MODEL 1
REMARK VINA RESULT:      -8.9      0.000      0.000
REMARK  Name = 
REMARK  5 active torsions:
REMARK  status: ('A' for Active; 'I' for Inactive)
REMARK    1  A    between atoms: C_1  and  N_2
REMARK    2  A    between atoms: N_5  and  C_6
REMARK    3  A    between atoms: C_8  and  C_9
REMARK    4  A    between atoms: C_10  and  C_11
REMARK    5  A    between atoms: C_16  and  C_17
REMARK                            x       y       z     vdW  Elec       q    Type
REMARK                         _______ _______ _______ _____ _____    ______ ____
ROOT
ATOM      1  C   UNL     1       3.303   5.169  19.040  0.00  0.00    +0.000 A 
ATOM      2  C   UNL     1       4.368   5.526  18.185  0.00  0.00    +0.000 A 
ATOM      3  C   UNL     1       4.846   4.655  17.192  0.00  0.00    +0.000 A 
ATOM      4  C   UNL     1       4.215   3.408  17.026  0.00  0.00    +0.000 A 
ATOM      5  C   UNL     1       3.094   3.113  17.812  0.00  0.00    +0.000 A 
ATOM      6  N   UNL     1       2.213   2.064  17.782  0.00  0.00    +0.000 N 
ATOM      7  N   UNL     1       1.258   2.124  18.725  0.00  0.00    +0.000 NA
ATOM      8  C   UNL     1       1.522   3.270  19.357  0.00  0.00    +0.000 A 
ATOM      9  C   UNL     1       2.647   3.944  18.828  0.00  0.00    +0.000 A 
ATOM     10  H   UNL     1       2.188   1.298  17.119  0.00  0.00    +0.000 HD
ENDROOT
BRANCH   1  15
ATOM     11  C   UNL     1       1.037   8.994  20.966  0.00  0.00    +0.000 C 
ATOM     12  N   UNL     1       1.838   7.799  21.015  0.00  0.00    +0.000 N 
ATOM     13  C   UNL     1       2.237   7.209  19.834  0.00  0.00    +0.000 C 
ATOM     14  O   UNL     1       1.977   7.668  18.729  0.00  0.00    +0.000 OA
ATOM     15  N   UNL     1       2.873   6.014  20.084  0.00  0.00    +0.000 N 
ATOM     16  H   UNL     1       2.507   7.717  21.768  0.00  0.00    +0.000 HD
ATOM     17  H   UNL     1       2.500   5.554  20.903  0.00  0.00    +0.000 HD
ENDBRANCH   1  15
BRANCH   3  18
ATOM     18  C   UNL     1       5.960   5.042  16.317  0.00  0.00    +0.000 A 
ATOM     19  C   UNL     1       6.335   4.639  14.993  0.00  0.00    +0.000 A 
ATOM     20  N   UNL     1       7.469   5.206  14.582  0.00  0.00    +0.000 NA
ATOM     21  N   UNL     1       7.835   5.968  15.615  0.00  0.00    +0.000 N 
ATOM     22  C   UNL     1       6.986   5.910  16.684  0.00  0.00    +0.000 A 
ATOM     23  C   UNL     1       7.311   6.671  17.920  0.00  0.00    +0.000 C 
ATOM     24  H   UNL     1       8.698   6.492  15.532  0.00  0.00    +0.000 HD
BRANCH  19  25
ATOM     25  C   UNL     1       5.571   3.671  14.082  0.00  0.00    +0.000 C 
ATOM     26  C   UNL     1       5.049   4.164  12.744  0.00  0.00    +0.000 C 
ATOM     27  C   UNL     1       6.239   3.269  12.778  0.00  0.00    +0.000 C 
ENDBRANCH  19  25
ENDBRANCH   3  18
TORSDOF 3
ENDMDL
MODEL 2
REMARK VINA RESULT:      -8.8      0.594      2.755
REMARK  Name = 
REMARK  5 active torsions:
REMARK  status: ('A' for Active; 'I' for Inactive)
REMARK    1  A    between atoms: C_1  and  N_2
REMARK    2  A    between atoms: N_5  and  C_6
REMARK    3  A    between atoms: C_8  and  C_9
REMARK    4  A    between atoms: C_10  and  C_11
REMARK    5  A    between atoms: C_16  and  C_17
REMARK                            x       y       z     vdW  Elec       q    Type
REMARK                         _______ _______ _______ _____ _____    ______ ____
ROOT
ATOM      1  C   UNL     1       3.071   5.186  19.145  0.00  0.00    +0.000 A 
ATOM      2  C   UNL     1       4.161   5.570  18.335  0.00  0.00    +0.000 A 
ATOM      3  C   UNL     1       4.690   4.719  17.351  0.00  0.00    +0.000 A 
ATOM      4  C   UNL     1       4.085   3.465  17.147  0.00  0.00    +0.000 A 
ATOM      5  C   UNL     1       2.940   3.142  17.886  0.00  0.00    +0.000 A 
ATOM      6  N   UNL     1       2.078   2.081  17.811  0.00  0.00    +0.000 N 
ATOM      7  N   UNL     1       1.087   2.115  18.719  0.00  0.00    +0.000 NA
ATOM      8  C   UNL     1       1.309   3.257  19.373  0.00  0.00    +0.000 A 
ATOM      9  C   UNL     1       2.443   3.955  18.894  0.00  0.00    +0.000 A 
ATOM     10  H   UNL     1       2.089   1.322  17.139  0.00  0.00    +0.000 HD
ENDROOT
BRANCH   1  15
ATOM     11  C   UNL     1       0.981   9.131  21.029  0.00  0.00    +0.000 C 
ATOM     12  N   UNL     1       1.631   7.848  21.096  0.00  0.00    +0.000 N 
ATOM     13  C   UNL     1       2.130   7.287  19.939  0.00  0.00    +0.000 C 
ATOM     14  O   UNL     1       2.085   7.840  18.848  0.00  0.00    +0.000 OA
ATOM     15  N   UNL     1       2.589   6.012  20.182  0.00  0.00    +0.000 N 
ATOM     16  H   UNL     1       2.170   7.642  21.926  0.00  0.00    +0.000 HD
ATOM     17  H   UNL     1       2.052   5.551  20.904  0.00  0.00    +0.000 HD
ENDBRANCH   1  15
BRANCH   3  18
ATOM     18  C   UNL     1       5.830   5.134  16.523  0.00  0.00    +0.000 A 
ATOM     19  C   UNL     1       6.830   6.147  16.696  0.00  0.00    +0.000 A 
ATOM     20  N   UNL     1       7.666   6.228  15.660  0.00  0.00    +0.000 NA
ATOM     21  N   UNL     1       7.226   5.287  14.823  0.00  0.00    +0.000 N 
ATOM     22  C   UNL     1       6.130   4.604  15.271  0.00  0.00    +0.000 A 
ATOM     23  C   UNL     1       5.509   3.567  14.406  0.00  0.00    +0.000 C 
ATOM     24  H   UNL     1       7.711   5.176  13.940  0.00  0.00    +0.000 HD
BRANCH  19  25
ATOM     25  C   UNL     1       6.993   7.075  17.905  0.00  0.00    +0.000 C 
ATOM     26  C   UNL     1       8.271   7.014  18.723  0.00  0.00    +0.000 C 
ATOM     27  C   UNL     1       8.045   8.166  17.808  0.00  0.00    +0.000 C 
ENDBRANCH  19  25
ENDBRANCH   3  18
TORSDOF 3
ENDMDL
MODEL 3
REMARK VINA RESULT:      -8.6      2.919      5.683
REMARK  Name = 
REMARK  5 active torsions:
REMARK  status: ('A' for Active; 'I' for Inactive)
REMARK    1  A    between atoms: C_1  and  N_2
REMARK    2  A    between atoms: N_5  and  C_6
REMARK    3  A    between atoms: C_8  and  C_9
REMARK    4  A    between atoms: C_10  and  C_11
REMARK    5  A    between atoms: C_16  and  C_17
REMARK                            x       y       z     vdW  Elec       q    Type
REMARK                         _______ _______ _______ _____ _____    ______ ____
ROOT
ATOM      1  C   UNL     1       0.958   9.167  18.587  0.00  0.00    +0.000 A 
ATOM      2  C   UNL     1       1.537   8.044  17.959  0.00  0.00    +0.000 A 
ATOM      3  C   UNL     1       2.275   7.089  18.679  0.00  0.00    +0.000 A 
ATOM      4  C   UNL     1       2.401   7.244  20.072  0.00  0.00    +0.000 A 
ATOM      5  C   UNL     1       1.733   8.306  20.694  0.00  0.00    +0.000 A 
ATOM      6  N   UNL     1       1.563   8.625  22.015  0.00  0.00    +0.000 N 
ATOM      7  N   UNL     1       0.861   9.753  22.220  0.00  0.00    +0.000 NA
ATOM      8  C   UNL     1       0.545  10.146  20.984  0.00  0.00    +0.000 A 
ATOM      9  C   UNL     1       1.046   9.280  19.985  0.00  0.00    +0.000 A 
ATOM     10  H   UNL     1       1.868   8.094  22.823  0.00  0.00    +0.000 HD
ENDROOT
BRANCH   1  15
ATOM     11  C   UNL     1      -2.917  11.578  16.960  0.00  0.00    +0.000 C 
ATOM     12  N   UNL     1      -1.508  11.302  17.061  0.00  0.00    +0.000 N 
ATOM     13  C   UNL     1      -1.091  10.182  17.751  0.00  0.00    +0.000 C 
ATOM     14  O   UNL     1      -1.862   9.378  18.259  0.00  0.00    +0.000 OA
ATOM     15  N   UNL     1       0.282  10.163  17.852  0.00  0.00    +0.000 N 
ATOM     16  H   UNL     1      -0.928  11.543  16.269  0.00  0.00    +0.000 HD
ATOM     17  H   UNL     1       0.667  11.095  17.908  0.00  0.00    +0.000 HD
ENDBRANCH   1  15
BRANCH   3  18
ATOM     18  C   UNL     1       2.876   5.931  18.006  0.00  0.00    +0.000 A 
ATOM     19  C   UNL     1       2.458   4.565  17.874  0.00  0.00    +0.000 A 
ATOM     20  N   UNL     1       3.342   3.816  17.215  0.00  0.00    +0.000 NA
ATOM     21  N   UNL     1       4.322   4.671  16.917  0.00  0.00    +0.000 N 
ATOM     22  C   UNL     1       4.113   5.945  17.366  0.00  0.00    +0.000 A 
ATOM     23  C   UNL     1       5.157   6.980  17.147  0.00  0.00    +0.000 C 
ATOM     24  H   UNL     1       5.128   4.311  16.418  0.00  0.00    +0.000 HD
BRANCH  19  25
ATOM     25  C   UNL     1       1.155   3.953  18.402  0.00  0.00    +0.000 C 
ATOM     26  C   UNL     1       1.164   2.531  18.935  0.00  0.00    +0.000 C 
ATOM     27  C   UNL     1       1.074   3.669  19.891  0.00  0.00    +0.000 C 
ENDBRANCH  19  25
ENDBRANCH   3  18
TORSDOF 3
ENDMDL
MODEL 4
REMARK VINA RESULT:      -8.6      1.320      1.500
REMARK  Name = 
REMARK  5 active torsions:
REMARK  status: ('A' for Active; 'I' for Inactive)
REMARK    1  A    between atoms: C_1  and  N_2
REMARK    2  A    between atoms: N_5  and  C_6
REMARK    3  A    between atoms: C_8  and  C_9
REMARK    4  A    between atoms: C_10  and  C_11
REMARK    5  A    between atoms: C_16  and  C_17
REMARK                            x       y       z     vdW  Elec       q    Type
REMARK                         _______ _______ _______ _____ _____    ______ ____
ROOT
ATOM      1  C   UNL     1       2.894   5.741  19.616  0.00  0.00    +0.000 A 
ATOM      2  C   UNL     1       4.148   5.782  18.970  0.00  0.00    +0.000 A 
ATOM      3  C   UNL     1       4.774   4.619  18.489  0.00  0.00    +0.000 A 
ATOM      4  C   UNL     1       4.106   3.388  18.624  0.00  0.00    +0.000 A 
ATOM      5  C   UNL     1       2.817   3.379  19.173  0.00  0.00    +0.000 A 
ATOM      6  N   UNL     1       1.891   2.378  19.302  0.00  0.00    +0.000 N 
ATOM      7  N   UNL     1       0.754   2.760  19.909  0.00  0.00    +0.000 NA
ATOM      8  C   UNL     1       0.952   4.059  20.143  0.00  0.00    +0.000 A 
ATOM      9  C   UNL     1       2.214   4.513  19.696  0.00  0.00    +0.000 A 
ATOM     10  H   UNL     1       1.960   1.425  18.964  0.00  0.00    +0.000 HD
ENDROOT
BRANCH   1  15
ATOM     11  C   UNL     1       0.705  10.061  19.476  0.00  0.00    +0.000 C 
ATOM     12  N   UNL     1       1.293   8.924  20.135  0.00  0.00    +0.000 N 
ATOM     13  C   UNL     1       1.928   7.963  19.376  0.00  0.00    +0.000 C 
ATOM     14  O   UNL     1       2.055   8.039  18.161  0.00  0.00    +0.000 OA
ATOM     15  N   UNL     1       2.302   6.898  20.164  0.00  0.00    +0.000 N 
ATOM     16  H   UNL     1       1.704   9.074  21.046  0.00  0.00    +0.000 HD
ATOM     17  H   UNL     1       1.654   6.748  20.925  0.00  0.00    +0.000 HD
ENDBRANCH   1  15
BRANCH   3  18
ATOM     18  C   UNL     1       6.082   4.682  17.826  0.00  0.00    +0.000 A 
ATOM     19  C   UNL     1       6.522   4.297  16.516  0.00  0.00    +0.000 A 
ATOM     20  N   UNL     1       7.830   4.479  16.337  0.00  0.00    +0.000 NA
ATOM     21  N   UNL     1       8.244   4.975  17.504  0.00  0.00    +0.000 N 
ATOM     22  C   UNL     1       7.256   5.113  18.439  0.00  0.00    +0.000 A 
ATOM     23  C   UNL     1       7.599   5.603  19.800  0.00  0.00    +0.000 C 
ATOM     24  H   UNL     1       9.232   5.180  17.607  0.00  0.00    +0.000 HD
BRANCH  19  25
ATOM     25  C   UNL     1       5.650   3.733  15.388  0.00  0.00    +0.000 C 
ATOM     26  C   UNL     1       5.039   4.684  14.374  0.00  0.00    +0.000 C 
ATOM     27  C   UNL     1       6.193   3.833  13.973  0.00  0.00    +0.000 C 
ENDBRANCH  19  25
ENDBRANCH   3  18
TORSDOF 3
ENDMDL
MODEL 5
REMARK VINA RESULT:      -8.5      0.854      1.008
REMARK  Name = 
REMARK  5 active torsions:
REMARK  status: ('A' for Active; 'I' for Inactive)
REMARK    1  A    between atoms: C_1  and  N_2
REMARK    2  A    between atoms: N_5  and  C_6
REMARK    3  A    between atoms: C_8  and  C_9
REMARK    4  A    between atoms: C_10  and  C_11
REMARK    5  A    between atoms: C_16  and  C_17
REMARK                            x       y       z     vdW  Elec       q    Type
REMARK                         _______ _______ _______ _____ _____    ______ ____
ROOT
ATOM      1  C   UNL     1       2.791   5.192  19.667  0.00  0.00    +0.000 A 
ATOM      2  C   UNL     1       3.957   5.586  18.975  0.00  0.00    +0.000 A 
ATOM      3  C   UNL     1       4.581   4.748  18.035  0.00  0.00    +0.000 A 
ATOM      4  C   UNL     1       3.999   3.499  17.753  0.00  0.00    +0.000 A 
ATOM      5  C   UNL     1       2.786   3.168  18.370  0.00  0.00    +0.000 A 
ATOM      6  N   UNL     1       1.935   2.110  18.192  0.00  0.00    +0.000 N 
ATOM      7  N   UNL     1       0.858   2.131  18.997  0.00  0.00    +0.000 NA
ATOM      8  C   UNL     1       1.015   3.263  19.688  0.00  0.00    +0.000 A 
ATOM      9  C   UNL     1       2.191   3.966  19.335  0.00  0.00    +0.000 A 
ATOM     10  H   UNL     1       2.013   1.361  17.513  0.00  0.00    +0.000 HD
ENDROOT
BRANCH   1  15
ATOM     11  C   UNL     1       0.621   9.157  21.413  0.00  0.00    +0.000 C 
ATOM     12  N   UNL     1       1.208   7.846  21.515  0.00  0.00    +0.000 N 
ATOM     13  C   UNL     1       1.834   7.303  20.411  0.00  0.00    +0.000 C 
ATOM     14  O   UNL     1       1.952   7.893  19.345  0.00  0.00    +0.000 OA
ATOM     15  N   UNL     1       2.209   6.003  20.663  0.00  0.00    +0.000 N 
ATOM     16  H   UNL     1       1.627   7.591  22.399  0.00  0.00    +0.000 HD
ATOM     17  H   UNL     1       1.566   5.541  21.292  0.00  0.00    +0.000 HD
ENDBRANCH   1  15
BRANCH   3  18
ATOM     18  C   UNL     1       5.798   5.174  17.332  0.00  0.00    +0.000 A 
ATOM     19  C   UNL     1       6.166   5.165  15.946  0.00  0.00    +0.000 A 
ATOM     20  N   UNL     1       7.410   5.598  15.740  0.00  0.00    +0.000 NA
ATOM     21  N   UNL     1       7.852   5.888  16.965  0.00  0.00    +0.000 N 
ATOM     22  C   UNL     1       6.946   5.650  17.961  0.00  0.00    +0.000 A 
ATOM     23  C   UNL     1       7.336   5.880  19.377  0.00  0.00    +0.000 C 
ATOM     24  H   UNL     1       8.803   6.228  17.056  0.00  0.00    +0.000 HD
BRANCH  19  25
ATOM     25  C   UNL     1       5.288   4.723  14.770  0.00  0.00    +0.000 C 
ATOM     26  C   UNL     1       5.940   4.381  13.442  0.00  0.00    +0.000 C 
ATOM     27  C   UNL     1       5.421   3.284  14.305  0.00  0.00    +0.000 C 
ENDBRANCH  19  25
ENDBRANCH   3  18
TORSDOF 3
ENDMDL
MODEL 6
REMARK VINA RESULT:      -8.4      0.865      2.742
REMARK  Name = 
REMARK  5 active torsions:
REMARK  status: ('A' for Active; 'I' for Inactive)
REMARK    1  A    between atoms: C_1  and  N_2
REMARK    2  A    between atoms: N_5  and  C_6
REMARK    3  A    between atoms: C_8  and  C_9
REMARK    4  A    between atoms: C_10  and  C_11
REMARK    5  A    between atoms: C_16  and  C_17
REMARK                            x       y       z     vdW  Elec       q    Type
REMARK                         _______ _______ _______ _____ _____    ______ ____
ROOT
ATOM      1  C   UNL     1       3.033   5.012  19.171  0.00  0.00    +0.000 A 
ATOM      2  C   UNL     1       4.186   5.198  18.379  0.00  0.00    +0.000 A 
ATOM      3  C   UNL     1       4.648   4.207  17.496  0.00  0.00    +0.000 A 
ATOM      4  C   UNL     1       3.911   3.015  17.375  0.00  0.00    +0.000 A 
ATOM      5  C   UNL     1       2.712   2.890  18.088  0.00  0.00    +0.000 A 
ATOM      6  N   UNL     1       1.738   1.928  18.067  0.00  0.00    +0.000 N 
ATOM      7  N   UNL     1       0.727   2.153  18.924  0.00  0.00    +0.000 NA
ATOM      8  C   UNL     1       1.056   3.319  19.487  0.00  0.00    +0.000 A 
ATOM      9  C   UNL     1       2.277   3.840  19.000  0.00  0.00    +0.000 A 
ATOM     10  H   UNL     1       1.685   1.115  17.464  0.00  0.00    +0.000 HD
ENDROOT
BRANCH   1  15
ATOM     11  C   UNL     1       1.091   9.212  20.611  0.00  0.00    +0.000 C 
ATOM     12  N   UNL     1       1.726   7.936  20.817  0.00  0.00    +0.000 N 
ATOM     13  C   UNL     1       2.161   7.218  19.722  0.00  0.00    +0.000 C 
ATOM     14  O   UNL     1       2.069   7.623  18.570  0.00  0.00    +0.000 OA
ATOM     15  N   UNL     1       2.613   5.977  20.111  0.00  0.00    +0.000 N 
ATOM     16  H   UNL     1       2.303   7.831  21.640  0.00  0.00    +0.000 HD
ATOM     17  H   UNL     1       2.107   5.626  20.911  0.00  0.00    +0.000 HD
ENDBRANCH   1  15
BRANCH   3  18
ATOM     18  C   UNL     1       5.855   4.417  16.687  0.00  0.00    +0.000 A 
ATOM     19  C   UNL     1       7.211   4.728  17.037  0.00  0.00    +0.000 A 
ATOM     20  N   UNL     1       7.995   4.890  15.971  0.00  0.00    +0.000 NA
ATOM     21  N   UNL     1       7.172   4.690  14.939  0.00  0.00    +0.000 N 
ATOM     22  C   UNL     1       5.882   4.412  15.294  0.00  0.00    +0.000 A 
ATOM     23  C   UNL     1       4.855   4.223  14.236  0.00  0.00    +0.000 C 
ATOM     24  H   UNL     1       7.556   4.779  14.005  0.00  0.00    +0.000 HD
BRANCH  19  25
ATOM     25  C   UNL     1       7.779   4.874  18.453  0.00  0.00    +0.000 C 
ATOM     26  C   UNL     1       8.160   6.253  18.963  0.00  0.00    +0.000 C 
ATOM     27  C   UNL     1       6.922   5.603  19.474  0.00  0.00    +0.000 C 
ENDBRANCH  19  25
ENDBRANCH   3  18
TORSDOF 3
ENDMDL
MODEL 7
REMARK VINA RESULT:      -8.4      1.013      2.774
REMARK  Name = 
REMARK  5 active torsions:
REMARK  status: ('A' for Active; 'I' for Inactive)
REMARK    1  A    between atoms: C_1  and  N_2
REMARK    2  A    between atoms: N_5  and  C_6
REMARK    3  A    between atoms: C_8  and  C_9
REMARK    4  A    between atoms: C_10  and  C_11
REMARK    5  A    between atoms: C_16  and  C_17
REMARK                            x       y       z     vdW  Elec       q    Type
REMARK                         _______ _______ _______ _____ _____    ______ ____
ROOT
ATOM      1  C   UNL     1       2.565   5.550  18.119  0.00  0.00    +0.000 A 
ATOM      2  C   UNL     1       3.771   5.799  17.430  0.00  0.00    +0.000 A 
ATOM      3  C   UNL     1       4.560   4.757  16.914  0.00  0.00    +0.000 A 
ATOM      4  C   UNL     1       4.108   3.433  17.060  0.00  0.00    +0.000 A 
ATOM      5  C   UNL     1       2.859   3.210  17.653  0.00  0.00    +0.000 A 
ATOM      6  N   UNL     1       2.114   2.071  17.804  0.00  0.00    +0.000 N 
ATOM      7  N   UNL     1       0.952   2.258  18.454  0.00  0.00    +0.000 NA
ATOM      8  C   UNL     1       0.944   3.571  18.696  0.00  0.00    +0.000 A 
ATOM      9  C   UNL     1       2.098   4.228  18.209  0.00  0.00    +0.000 A 
ATOM     10  H   UNL     1       2.325   1.144  17.453  0.00  0.00    +0.000 HD
ENDROOT
BRANCH   1  15
ATOM     11  C   UNL     1       1.183   8.537  21.675  0.00  0.00    +0.000 C 
ATOM     12  N   UNL     1       1.132   7.992  20.344  0.00  0.00    +0.000 N 
ATOM     13  C   UNL     1       1.889   6.878  20.044  0.00  0.00    +0.000 C 
ATOM     14  O   UNL     1       2.584   6.295  20.866  0.00  0.00    +0.000 OA
ATOM     15  N   UNL     1       1.812   6.592  18.700  0.00  0.00    +0.000 N 
ATOM     16  H   UNL     1       0.248   8.040  19.855  0.00  0.00    +0.000 HD
ATOM     17  H   UNL     1       1.707   7.429  18.143  0.00  0.00    +0.000 HD
ENDBRANCH   1  15
BRANCH   3  18
ATOM     18  C   UNL     1       5.816   5.037  16.207  0.00  0.00    +0.000 A 
ATOM     19  C   UNL     1       7.014   5.722  16.599  0.00  0.00    +0.000 A 
ATOM     20  N   UNL     1       7.909   5.799  15.615  0.00  0.00    +0.000 NA
ATOM     21  N   UNL     1       7.314   5.178  14.595  0.00  0.00    +0.000 N 
ATOM     22  C   UNL     1       6.062   4.708  14.876  0.00  0.00    +0.000 A 
ATOM     23  C   UNL     1       5.270   4.045  13.806  0.00  0.00    +0.000 C 
ATOM     24  H   UNL     1       7.815   5.128  13.715  0.00  0.00    +0.000 HD
BRANCH  19  25
ATOM     25  C   UNL     1       7.313   6.325  17.976  0.00  0.00    +0.000 C 
ATOM     26  C   UNL     1       6.757   5.652  19.219  0.00  0.00    +0.000 C 
ATOM     27  C   UNL     1       8.207   5.524  18.907  0.00  0.00    +0.000 C 
ENDBRANCH  19  25
ENDBRANCH   3  18
TORSDOF 3
ENDMDL
MODEL 8
REMARK VINA RESULT:      -8.3      2.391      6.119
REMARK  Name = 
REMARK  5 active torsions:
REMARK  status: ('A' for Active; 'I' for Inactive)
REMARK    1  A    between atoms: C_1  and  N_2
REMARK    2  A    between atoms: N_5  and  C_6
REMARK    3  A    between atoms: C_8  and  C_9
REMARK    4  A    between atoms: C_10  and  C_11
REMARK    5  A    between atoms: C_16  and  C_17
REMARK                            x       y       z     vdW  Elec       q    Type
REMARK                         _______ _______ _______ _____ _____    ______ ____
ROOT
ATOM      1  C   UNL     1       6.599   5.462  17.991  0.00  0.00    +0.000 A 
ATOM      2  C   UNL     1       5.677   5.025  18.966  0.00  0.00    +0.000 A 
ATOM      3  C   UNL     1       4.615   4.161  18.648  0.00  0.00    +0.000 A 
ATOM      4  C   UNL     1       4.498   3.692  17.327  0.00  0.00    +0.000 A 
ATOM      5  C   UNL     1       5.482   4.052  16.397  0.00  0.00    +0.000 A 
ATOM      6  N   UNL     1       5.703   3.650  15.106  0.00  0.00    +0.000 N 
ATOM      7  N   UNL     1       6.758   4.243  14.521  0.00  0.00    +0.000 NA
ATOM      8  C   UNL     1       7.245   5.026  15.487  0.00  0.00    +0.000 A 
ATOM      9  C   UNL     1       6.503   4.944  16.688  0.00  0.00    +0.000 A 
ATOM     10  H   UNL     1       5.194   2.947  14.582  0.00  0.00    +0.000 HD
ENDROOT
BRANCH   1  15
ATOM     11  C   UNL     1       8.686   9.833  18.142  0.00  0.00    +0.000 C 
ATOM     12  N   UNL     1       8.630   8.412  18.368  0.00  0.00    +0.000 N 
ATOM     13  C   UNL     1       7.566   7.693  17.863  0.00  0.00    +0.000 C 
ATOM     14  O   UNL     1       6.671   8.194  17.194  0.00  0.00    +0.000 OA
ATOM     15  N   UNL     1       7.620   6.387  18.295  0.00  0.00    +0.000 N 
ATOM     16  H   UNL     1       9.506   7.907  18.379  0.00  0.00    +0.000 HD
ATOM     17  H   UNL     1       8.027   6.313  19.217  0.00  0.00    +0.000 HD
ENDBRANCH   1  15
BRANCH   3  18
ATOM     18  C   UNL     1       3.662   3.724  19.676  0.00  0.00    +0.000 A 
ATOM     19  C   UNL     1       2.442   4.297  20.168  0.00  0.00    +0.000 A 
ATOM     20  N   UNL     1       1.905   3.590  21.163  0.00  0.00    +0.000 NA
ATOM     21  N   UNL     1       2.753   2.573  21.323  0.00  0.00    +0.000 N 
ATOM     22  C   UNL     1       3.826   2.596  20.476  0.00  0.00    +0.000 A 
ATOM     23  C   UNL     1       4.873   1.547  20.590  0.00  0.00    +0.000 C 
ATOM     24  H   UNL     1       2.551   1.899  22.053  0.00  0.00    +0.000 HD
BRANCH  19  25
ATOM     25  C   UNL     1       1.762   5.574  19.662  0.00  0.00    +0.000 C 
ATOM     26  C   UNL     1       1.482   6.704  20.637  0.00  0.00    +0.000 C 
ATOM     27  C   UNL     1       2.591   6.846  19.653  0.00  0.00    +0.000 C 
ENDBRANCH  19  25
ENDBRANCH   3  18
TORSDOF 3
ENDMDL
MODEL 9
REMARK VINA RESULT:      -8.3      1.029      2.783
REMARK  Name = 
REMARK  5 active torsions:
REMARK  status: ('A' for Active; 'I' for Inactive)
REMARK    1  A    between atoms: C_1  and  N_2
REMARK    2  A    between atoms: N_5  and  C_6
REMARK    3  A    between atoms: C_8  and  C_9
REMARK    4  A    between atoms: C_10  and  C_11
REMARK    5  A    between atoms: C_16  and  C_17
REMARK                            x       y       z     vdW  Elec       q    Type
REMARK                         _______ _______ _______ _____ _____    ______ ____
ROOT
ATOM      1  C   UNL     1       2.671   5.551  18.343  0.00  0.00    +0.000 A 
ATOM      2  C   UNL     1       3.855   5.805  17.619  0.00  0.00    +0.000 A 
ATOM      3  C   UNL     1       4.574   4.776  16.988  0.00  0.00    +0.000 A 
ATOM      4  C   UNL     1       4.071   3.463  17.051  0.00  0.00    +0.000 A 
ATOM      5  C   UNL     1       2.840   3.246  17.684  0.00  0.00    +0.000 A 
ATOM      6  N   UNL     1       2.053   2.129  17.781  0.00  0.00    +0.000 N 
ATOM      7  N   UNL     1       0.931   2.311  18.498  0.00  0.00    +0.000 NA
ATOM      8  C   UNL     1       0.991   3.600  18.840  0.00  0.00    +0.000 A 
ATOM      9  C   UNL     1       2.150   4.246  18.352  0.00  0.00    +0.000 A 
ATOM     10  H   UNL     1       2.208   1.225  17.350  0.00  0.00    +0.000 HD
ENDROOT
BRANCH   1  15
ATOM     11  C   UNL     1       1.131  10.078  19.127  0.00  0.00    +0.000 C 
ATOM     12  N   UNL     1       1.268   8.680  19.442  0.00  0.00    +0.000 N 
ATOM     13  C   UNL     1       2.097   7.895  18.667  0.00  0.00    +0.000 C 
ATOM     14  O   UNL     1       2.761   8.331  17.736  0.00  0.00    +0.000 OA
ATOM     15  N   UNL     1       1.991   6.573  19.038  0.00  0.00    +0.000 N 
ATOM     16  H   UNL     1       1.238   8.418  20.418  0.00  0.00    +0.000 HD
ATOM     17  H   UNL     1       1.061   6.348  19.362  0.00  0.00    +0.000 HD
ENDBRANCH   1  15
BRANCH   3  18
ATOM     18  C   UNL     1       5.809   5.060  16.246  0.00  0.00    +0.000 A 
ATOM     19  C   UNL     1       7.016   5.746  16.606  0.00  0.00    +0.000 A 
ATOM     20  N   UNL     1       7.884   5.828  15.597  0.00  0.00    +0.000 NA
ATOM     21  N   UNL     1       7.261   5.208  14.593  0.00  0.00    +0.000 N 
ATOM     22  C   UNL     1       6.018   4.734  14.908  0.00  0.00    +0.000 A 
ATOM     23  C   UNL     1       5.198   4.072  13.860  0.00  0.00    +0.000 C 
ATOM     24  H   UNL     1       7.737   5.160  13.699  0.00  0.00    +0.000 HD
BRANCH  19  25
ATOM     25  C   UNL     1       7.353   6.347  17.976  0.00  0.00    +0.000 C 
ATOM     26  C   UNL     1       6.799   5.695  19.230  0.00  0.00    +0.000 C 
ATOM     27  C   UNL     1       8.240   5.526  18.896  0.00  0.00    +0.000 C 
ENDBRANCH  19  25
ENDBRANCH   3  18
TORSDOF 3
ENDMDL
