MODEL 1
REMARK VINA RESULT:      -7.7      0.000      0.000
REMARK  Name = 
REMARK  5 active torsions:
REMARK  status: ('A' for Active; 'I' for Inactive)
REMARK    1  A    between atoms: N_2  and  C_4
REMARK    2  A    between atoms: C_7  and  C_8
REMARK    3  A    between atoms: N_10  and  C_11
REMARK    4  A    between atoms: C_19  and  C_20
REMARK    5  A    between atoms: C_22  and  C_23
REMARK                            x       y       z     vdW  Elec       q    Type
REMARK                         _______ _______ _______ _____ _____    ______ ____
ROOT
ATOM      1  C   UNL     1       0.437  10.043  19.604  0.00  0.00    +0.000 A 
ATOM      2  N   UNL     1       1.399   9.141  19.857  0.00  0.00    +0.000 NA
ATOM      3  N   UNL     1       1.640   8.515  18.684  0.00  0.00    +0.000 N 
ATOM      4  C   UNL     1       0.771   8.940  17.709  0.00  0.00    +0.000 A 
ATOM      5  C   UNL     1      -0.048   9.907  18.259  0.00  0.00    +0.000 A 
ENDROOT
BRANCH   3   6
ATOM      6  C   UNL     1       2.699   7.572  18.551  0.00  0.00    +0.000 A 
ATOM      7  C   UNL     1       3.580   7.666  17.463  0.00  0.00    +0.000 A 
ATOM      8  C   UNL     1       4.608   6.731  17.306  0.00  0.00    +0.000 A 
ATOM      9  C   UNL     1       4.752   5.697  18.228  0.00  0.00    +0.000 A 
ATOM     10 BR   UNL     1       6.127   4.419  18.005  0.00  0.00    +0.000 Br
ATOM     11  C   UNL     1       3.885   5.593  19.314  0.00  0.00    +0.000 A 
ATOM     12  C   UNL     1       2.862   6.532  19.481  0.00  0.00    +0.000 A 
ENDBRANCH   3   6
BRANCH   1  16
ATOM     13  C   UNL     1      -0.832  12.873  22.565  0.00  0.00    +0.000 A 
ATOM     14  C   UNL     1      -1.436  11.620  22.500  0.00  0.00    +0.000 A 
ATOM     15  C   UNL     1      -1.017  10.706  21.533  0.00  0.00    +0.000 A 
ATOM     16  C   UNL     1       0.034  10.997  20.650  0.00  0.00    +0.000 A 
ATOM     17  C   UNL     1       0.646  12.259  20.745  0.00  0.00    +0.000 A 
ATOM     18  C   UNL     1       0.213  13.201  21.690  0.00  0.00    +0.000 A 
BRANCH  13  20
ATOM     19  O   UNL     1      -0.553  14.760  23.885  0.00  0.00    +0.000 OA
ATOM     20  N   UNL     1      -1.329  13.860  23.530  0.00  0.00    +0.000 N 
ATOM     21  O   UNL     1      -2.489  13.730  23.941  0.00  0.00    +0.000 OA
ENDBRANCH  13  20
ENDBRANCH   1  16
BRANCH   5  22
ATOM     22  C   UNL     1      -1.165  10.655  17.600  0.00  0.00    +0.000 C 
ATOM     23  C   UNL     1      -2.586  10.263  17.953  0.00  0.00    +0.000 C 
ATOM     24  C   UNL     1      -3.119  11.568  18.464  0.00  0.00    +0.000 C 
ATOM     25  N   UNL     1      -2.256  12.537  18.514  0.00  0.00    +0.000 NA
ATOM     26  N   UNL     1      -1.113  12.070  17.966  0.00  0.00    +0.000 N 
ATOM     27  H   UNL     1      -0.285  12.332  18.504  0.00  0.00    +0.000 HD
BRANCH  24  28
ATOM     28  C   UNL     1      -4.530  11.702  18.877  0.00  0.00    +0.000 A 
ATOM     29  C   UNL     1      -4.887  12.523  19.954  0.00  0.00    +0.000 A 
ATOM     30  C   UNL     1      -6.218  12.607  20.358  0.00  0.00    +0.000 A 
ATOM     31  C   UNL     1      -7.196  11.874  19.689  0.00  0.00    +0.000 A 
ATOM     32  C   UNL     1      -6.847  11.058  18.612  0.00  0.00    +0.000 A 
ATOM     33  C   UNL     1      -5.515  10.969  18.205  0.00  0.00    +0.000 A 
ENDBRANCH  24  28
ENDBRANCH   5  22
TORSDOF 5
ENDMDL
MODEL 2
REMARK VINA RESULT:      -7.6      0.057      1.018
REMARK  Name = 
REMARK  5 active torsions:
REMARK  status: ('A' for Active; 'I' for Inactive)
REMARK    1  A    between atoms: N_2  and  C_4
REMARK    2  A    between atoms: C_7  and  C_8
REMARK    3  A    between atoms: N_10  and  C_11
REMARK    4  A    between atoms: C_19  and  C_20
REMARK    5  A    between atoms: C_22  and  C_23
REMARK                            x       y       z     vdW  Elec       q    Type
REMARK                         _______ _______ _______ _____ _____    ______ ____
ROOT
ATOM      1  C   UNL     1       0.441  10.029  19.563  0.00  0.00    +0.000 A 
ATOM      2  N   UNL     1       1.404   9.126  19.808  0.00  0.00    +0.000 NA
ATOM      3  N   UNL     1       1.639   8.505  18.631  0.00  0.00    +0.000 N 
ATOM      4  C   UNL     1       0.768   8.935  17.662  0.00  0.00    +0.000 A 
ATOM      5  C   UNL     1      -0.049   9.900  18.219  0.00  0.00    +0.000 A 
ENDROOT
BRANCH   3   6
ATOM      6  C   UNL     1       2.697   7.561  18.491  0.00  0.00    +0.000 A 
ATOM      7  C   UNL     1       2.847   6.541  19.442  0.00  0.00    +0.000 A 
ATOM      8  C   UNL     1       3.897   5.623  19.332  0.00  0.00    +0.000 A 
ATOM      9  C   UNL     1       4.803   5.729  18.279  0.00  0.00    +0.000 A 
ATOM     10 BR   UNL     1       6.235   4.504  18.140  0.00  0.00    +0.000 Br
ATOM     11  C   UNL     1       4.663   6.736  17.326  0.00  0.00    +0.000 A 
ATOM     12  C   UNL     1       3.609   7.649  17.426  0.00  0.00    +0.000 A 
ENDBRANCH   3   6
BRANCH   1  16
ATOM     13  C   UNL     1      -0.815  12.846  22.542  0.00  0.00    +0.000 A 
ATOM     14  C   UNL     1      -1.410  11.588  22.484  0.00  0.00    +0.000 A 
ATOM     15  C   UNL     1      -0.995  10.679  21.510  0.00  0.00    +0.000 A 
ATOM     16  C   UNL     1       0.043  10.979  20.615  0.00  0.00    +0.000 A 
ATOM     17  C   UNL     1       0.645  12.246  20.704  0.00  0.00    +0.000 A 
ATOM     18  C   UNL     1       0.216  13.183  21.656  0.00  0.00    +0.000 A 
BRANCH  13  20
ATOM     19  O   UNL     1      -2.476  13.702  23.917  0.00  0.00    +0.000 OA
ATOM     20  N   UNL     1      -1.309  13.827  23.514  0.00  0.00    +0.000 N 
ATOM     21  O   UNL     1      -0.538  14.728  23.866  0.00  0.00    +0.000 OA
ENDBRANCH  13  20
ENDBRANCH   1  16
BRANCH   5  22
ATOM     22  C   UNL     1      -1.167  10.653  17.567  0.00  0.00    +0.000 C 
ATOM     23  C   UNL     1      -2.588  10.259  17.923  0.00  0.00    +0.000 C 
ATOM     24  C   UNL     1      -3.118  11.562  18.442  0.00  0.00    +0.000 C 
ATOM     25  N   UNL     1      -2.255  12.530  18.496  0.00  0.00    +0.000 NA
ATOM     26  N   UNL     1      -1.113  12.065  17.942  0.00  0.00    +0.000 N 
ATOM     27  H   UNL     1      -0.285  12.324  18.480  0.00  0.00    +0.000 HD
BRANCH  24  28
ATOM     28  C   UNL     1      -4.529  11.693  18.860  0.00  0.00    +0.000 A 
ATOM     29  C   UNL     1      -4.877  12.464  19.977  0.00  0.00    +0.000 A 
ATOM     30  C   UNL     1      -6.207  12.545  20.383  0.00  0.00    +0.000 A 
ATOM     31  C   UNL     1      -7.193  11.859  19.677  0.00  0.00    +0.000 A 
ATOM     32  C   UNL     1      -6.853  11.094  18.561  0.00  0.00    +0.000 A 
ATOM     33  C   UNL     1      -5.522  11.008  18.151  0.00  0.00    +0.000 A 
ENDBRANCH  24  28
ENDBRANCH   5  22
TORSDOF 5
ENDMDL
MODEL 3
REMARK VINA RESULT:      -7.5      4.114      7.975
REMARK  Name = 
REMARK  5 active torsions:
REMARK  status: ('A' for Active; 'I' for Inactive)
REMARK    1  A    between atoms: N_2  and  C_4
REMARK    2  A    between atoms: C_7  and  C_8
REMARK    3  A    between atoms: N_10  and  C_11
REMARK    4  A    between atoms: C_19  and  C_20
REMARK    5  A    between atoms: C_22  and  C_23
REMARK                            x       y       z     vdW  Elec       q    Type
REMARK                         _______ _______ _______ _____ _____    ______ ____
ROOT
ATOM      1  C   UNL     1       0.823  12.023  18.984  0.00  0.00    +0.000 A 
ATOM      2  N   UNL     1      -0.387  12.537  18.710  0.00  0.00    +0.000 NA
ATOM      3  N   UNL     1      -1.240  11.489  18.689  0.00  0.00    +0.000 N 
ATOM      4  C   UNL     1      -0.570  10.302  18.850  0.00  0.00    +0.000 A 
ATOM      5  C   UNL     1       0.772  10.588  19.014  0.00  0.00    +0.000 A 
ENDROOT
BRANCH   3   6
ATOM      6  C   UNL     1      -2.644  11.681  18.548  0.00  0.00    +0.000 A 
ATOM      7  C   UNL     1      -3.278  11.313  17.351  0.00  0.00    +0.000 A 
ATOM      8  C   UNL     1      -4.651  11.521  17.187  0.00  0.00    +0.000 A 
ATOM      9  C   UNL     1      -5.392  12.103  18.214  0.00  0.00    +0.000 A 
ATOM     10 BR   UNL     1      -7.244  12.404  17.987  0.00  0.00    +0.000 Br
ATOM     11  C   UNL     1      -4.775  12.471  19.408  0.00  0.00    +0.000 A 
ATOM     12  C   UNL     1      -3.404  12.256  19.580  0.00  0.00    +0.000 A 
ENDBRANCH   3   6
BRANCH   1  16
ATOM     13  C   UNL     1       4.064  14.749  19.655  0.00  0.00    +0.000 A 
ATOM     14  C   UNL     1       3.372  14.215  20.739  0.00  0.00    +0.000 A 
ATOM     15  C   UNL     1       2.319  13.329  20.510  0.00  0.00    +0.000 A 
ATOM     16  C   UNL     1       1.966  12.922  19.215  0.00  0.00    +0.000 A 
ATOM     17  C   UNL     1       2.689  13.456  18.135  0.00  0.00    +0.000 A 
ATOM     18  C   UNL     1       3.729  14.373  18.347  0.00  0.00    +0.000 A 
BRANCH  13  20
ATOM     19  O   UNL     1       5.917  15.967  18.975  0.00  0.00    +0.000 OA
ATOM     20  N   UNL     1       5.117  15.741  19.896  0.00  0.00    +0.000 N 
ATOM     21  O   UNL     1       5.153  16.285  21.006  0.00  0.00    +0.000 OA
ENDBRANCH  13  20
ENDBRANCH   1  16
BRANCH   5  22
ATOM     22  C   UNL     1       1.904   9.627  19.205  0.00  0.00    +0.000 C 
ATOM     23  C   UNL     1       1.618   8.332  19.941  0.00  0.00    +0.000 C 
ATOM     24  C   UNL     1       2.028   7.326  18.908  0.00  0.00    +0.000 C 
ATOM     25  N   UNL     1       2.401   7.822  17.768  0.00  0.00    +0.000 NA
ATOM     26  N   UNL     1       2.400   9.166  17.909  0.00  0.00    +0.000 N 
ATOM     27  H   UNL     1       1.984   9.643  17.108  0.00  0.00    +0.000 HD
BRANCH  24  28
ATOM     28  C   UNL     1       1.990   5.879  19.202  0.00  0.00    +0.000 A 
ATOM     29  C   UNL     1       2.076   4.935  18.171  0.00  0.00    +0.000 A 
ATOM     30  C   UNL     1       1.998   3.574  18.460  0.00  0.00    +0.000 A 
ATOM     31  C   UNL     1       1.835   3.151  19.778  0.00  0.00    +0.000 A 
ATOM     32  C   UNL     1       1.754   4.087  20.810  0.00  0.00    +0.000 A 
ATOM     33  C   UNL     1       1.830   5.451  20.524  0.00  0.00    +0.000 A 
ENDBRANCH  24  28
ENDBRANCH   5  22
TORSDOF 5
ENDMDL
MODEL 4
REMARK VINA RESULT:      -7.4      3.896      7.906
REMARK  Name = 
REMARK  5 active torsions:
REMARK  status: ('A' for Active; 'I' for Inactive)
REMARK    1  A    between atoms: N_2  and  C_4
REMARK    2  A    between atoms: C_7  and  C_8
REMARK    3  A    between atoms: N_10  and  C_11
REMARK    4  A    between atoms: C_19  and  C_20
REMARK    5  A    between atoms: C_22  and  C_23
REMARK                            x       y       z     vdW  Elec       q    Type
REMARK                         _______ _______ _______ _____ _____    ______ ____
ROOT
ATOM      1  C   UNL     1      -0.049  12.037  18.906  0.00  0.00    +0.000 A 
ATOM      2  N   UNL     1       0.523  13.227  19.153  0.00  0.00    +0.000 NA
ATOM      3  N   UNL     1       1.851  12.989  19.241  0.00  0.00    +0.000 N 
ATOM      4  C   UNL     1       2.120  11.646  19.150  0.00  0.00    +0.000 A 
ATOM      5  C   UNL     1       0.923  10.982  18.962  0.00  0.00    +0.000 A 
ENDROOT
BRANCH   3   6
ATOM      6  C   UNL     1       2.786  14.054  19.377  0.00  0.00    +0.000 A 
ATOM      7  C   UNL     1       3.417  14.271  20.611  0.00  0.00    +0.000 A 
ATOM      8  C   UNL     1       4.317  15.330  20.767  0.00  0.00    +0.000 A 
ATOM      9  C   UNL     1       4.582  16.178  19.694  0.00  0.00    +0.000 A 
ATOM     10 BR   UNL     1       5.782  17.623  19.908  0.00  0.00    +0.000 Br
ATOM     11  C   UNL     1       3.965  15.973  18.462  0.00  0.00    +0.000 A 
ATOM     12  C   UNL     1       3.071  14.909  18.299  0.00  0.00    +0.000 A 
ENDBRANCH   3   6
BRANCH   1  16
ATOM     13  C   UNL     1      -4.250  11.700  18.115  0.00  0.00    +0.000 A 
ATOM     14  C   UNL     1      -3.814  12.212  19.335  0.00  0.00    +0.000 A 
ATOM     15  C   UNL     1      -2.445  12.318  19.583  0.00  0.00    +0.000 A 
ATOM     16  C   UNL     1      -1.491  11.965  18.616  0.00  0.00    +0.000 A 
ATOM     17  C   UNL     1      -1.952  11.470  17.384  0.00  0.00    +0.000 A 
ATOM     18  C   UNL     1      -3.324  11.328  17.132  0.00  0.00    +0.000 A 
BRANCH  13  20
ATOM     19  O   UNL     1      -6.273  12.357  17.190  0.00  0.00    +0.000 OA
ATOM     20  N   UNL     1      -5.688  11.516  17.889  0.00  0.00    +0.000 N 
ATOM     21  O   UNL     1      -6.234  10.540  18.418  0.00  0.00    +0.000 OA
ENDBRANCH  13  20
ENDBRANCH   1  16
BRANCH   5  22
ATOM     22  C   UNL     1       0.695   9.509  18.825  0.00  0.00    +0.000 C 
ATOM     23  C   UNL     1       1.473   8.768  17.754  0.00  0.00    +0.000 C 
ATOM     24  C   UNL     1       2.187   7.743  18.584  0.00  0.00    +0.000 C 
ATOM     25  N   UNL     1       1.998   7.838  19.865  0.00  0.00    +0.000 NA
ATOM     26  N   UNL     1       1.089   8.819  20.053  0.00  0.00    +0.000 N 
ATOM     27  H   UNL     1       1.341   9.444  20.821  0.00  0.00    +0.000 HD
BRANCH  24  28
ATOM     28  C   UNL     1       3.041   6.717  17.952  0.00  0.00    +0.000 A 
ATOM     29  C   UNL     1       2.682   5.364  17.988  0.00  0.00    +0.000 A 
ATOM     30  C   UNL     1       3.518   4.404  17.423  0.00  0.00    +0.000 A 
ATOM     31  C   UNL     1       4.714   4.790  16.820  0.00  0.00    +0.000 A 
ATOM     32  C   UNL     1       5.074   6.137  16.778  0.00  0.00    +0.000 A 
ATOM     33  C   UNL     1       4.241   7.102  17.344  0.00  0.00    +0.000 A 
ENDBRANCH  24  28
ENDBRANCH   5  22
TORSDOF 5
ENDMDL
MODEL 5
REMARK VINA RESULT:      -7.4      3.879      7.944
REMARK  Name = 
REMARK  5 active torsions:
REMARK  status: ('A' for Active; 'I' for Inactive)
REMARK    1  A    between atoms: N_2  and  C_4
REMARK    2  A    between atoms: C_7  and  C_8
REMARK    3  A    between atoms: N_10  and  C_11
REMARK    4  A    between atoms: C_19  and  C_20
REMARK    5  A    between atoms: C_22  and  C_23
REMARK                            x       y       z     vdW  Elec       q    Type
REMARK                         _______ _______ _______ _____ _____    ______ ____
ROOT
ATOM      1  C   UNL     1      -0.119  11.916  18.927  0.00  0.00    +0.000 A 
ATOM      2  N   UNL     1       0.416  13.118  19.198  0.00  0.00    +0.000 NA
ATOM      3  N   UNL     1       1.751  12.922  19.269  0.00  0.00    +0.000 N 
ATOM      4  C   UNL     1       2.064  11.592  19.144  0.00  0.00    +0.000 A 
ATOM      5  C   UNL     1       0.888  10.893  18.950  0.00  0.00    +0.000 A 
ENDROOT
BRANCH   3   6
ATOM      6  C   UNL     1       2.652  14.015  19.423  0.00  0.00    +0.000 A 
ATOM      7  C   UNL     1       3.019  14.437  20.710  0.00  0.00    +0.000 A 
ATOM      8  C   UNL     1       3.881  15.525  20.877  0.00  0.00    +0.000 A 
ATOM      9  C   UNL     1       4.371  16.199  19.761  0.00  0.00    +0.000 A 
ATOM     10 BR   UNL     1       5.519  17.683  19.983  0.00  0.00    +0.000 Br
ATOM     11  C   UNL     1       4.017  15.789  18.477  0.00  0.00    +0.000 A 
ATOM     12  C   UNL     1       3.163  14.694  18.305  0.00  0.00    +0.000 A 
ENDBRANCH   3   6
BRANCH   1  16
ATOM     13  C   UNL     1      -4.313  11.713  18.055  0.00  0.00    +0.000 A 
ATOM     14  C   UNL     1      -3.387  11.267  17.114  0.00  0.00    +0.000 A 
ATOM     15  C   UNL     1      -2.025  11.338  17.407  0.00  0.00    +0.000 A 
ATOM     16  C   UNL     1      -1.561  11.803  18.647  0.00  0.00    +0.000 A 
ATOM     17  C   UNL     1      -2.511  12.229  19.591  0.00  0.00    +0.000 A 
ATOM     18  C   UNL     1      -3.882  12.194  19.298  0.00  0.00    +0.000 A 
BRANCH  13  20
ATOM     19  O   UNL     1      -6.162  12.639  17.005  0.00  0.00    +0.000 OA
ATOM     20  N   UNL     1      -5.739  11.712  17.712  0.00  0.00    +0.000 N 
ATOM     21  O   UNL     1      -6.438  10.793  18.157  0.00  0.00    +0.000 OA
ENDBRANCH  13  20
ENDBRANCH   1  16
BRANCH   5  22
ATOM     22  C   UNL     1       0.708   9.417  18.780  0.00  0.00    +0.000 C 
ATOM     23  C   UNL     1       1.544   8.718  17.724  0.00  0.00    +0.000 C 
ATOM     24  C   UNL     1       2.258   7.699  18.561  0.00  0.00    +0.000 C 
ATOM     25  N   UNL     1       2.021   7.765  19.836  0.00  0.00    +0.000 NA
ATOM     26  N   UNL     1       1.078   8.716  20.009  0.00  0.00    +0.000 N 
ATOM     27  H   UNL     1       1.285   9.333  20.795  0.00  0.00    +0.000 HD
BRANCH  24  28
ATOM     28  C   UNL     1       3.163   6.709  17.942  0.00  0.00    +0.000 A 
ATOM     29  C   UNL     1       4.311   7.120  17.254  0.00  0.00    +0.000 A 
ATOM     30  C   UNL     1       5.134   6.178  16.640  0.00  0.00    +0.000 A 
ATOM     31  C   UNL     1       4.813   4.824  16.712  0.00  0.00    +0.000 A 
ATOM     32  C   UNL     1       3.673   4.408  17.399  0.00  0.00    +0.000 A 
ATOM     33  C   UNL     1       2.845   5.349  18.014  0.00  0.00    +0.000 A 
ENDBRANCH  24  28
ENDBRANCH   5  22
TORSDOF 5
ENDMDL
MODEL 6
REMARK VINA RESULT:      -7.4      4.140      8.013
REMARK  Name = 
REMARK  5 active torsions:
REMARK  status: ('A' for Active; 'I' for Inactive)
REMARK    1  A    between atoms: N_2  and  C_4
REMARK    2  A    between atoms: C_7  and  C_8
REMARK    3  A    between atoms: N_10  and  C_11
REMARK    4  A    between atoms: C_19  and  C_20
REMARK    5  A    between atoms: C_22  and  C_23
REMARK                            x       y       z     vdW  Elec       q    Type
REMARK                         _______ _______ _______ _____ _____    ______ ____
ROOT
ATOM      1  C   UNL     1       0.753  12.112  18.986  0.00  0.00    +0.000 A 
ATOM      2  N   UNL     1      -0.465  12.614  18.725  0.00  0.00    +0.000 NA
ATOM      3  N   UNL     1      -1.309  11.558  18.726  0.00  0.00    +0.000 N 
ATOM      4  C   UNL     1      -0.626  10.379  18.888  0.00  0.00    +0.000 A 
ATOM      5  C   UNL     1       0.715  10.677  19.031  0.00  0.00    +0.000 A 
ENDROOT
BRANCH   3   6
ATOM      6  C   UNL     1      -2.717  11.737  18.603  0.00  0.00    +0.000 A 
ATOM      7  C   UNL     1      -3.363  11.364  17.414  0.00  0.00    +0.000 A 
ATOM      8  C   UNL     1      -4.739  11.558  17.268  0.00  0.00    +0.000 A 
ATOM      9  C   UNL     1      -5.472  12.133  18.305  0.00  0.00    +0.000 A 
ATOM     10 BR   UNL     1      -7.330  12.416  18.103  0.00  0.00    +0.000 Br
ATOM     11  C   UNL     1      -4.844  12.505  19.491  0.00  0.00    +0.000 A 
ATOM     12  C   UNL     1      -3.469  12.303  19.645  0.00  0.00    +0.000 A 
ENDBRANCH   3   6
BRANCH   1  16
ATOM     13  C   UNL     1       4.152  14.656  19.590  0.00  0.00    +0.000 A 
ATOM     14  C   UNL     1       3.762  14.316  18.296  0.00  0.00    +0.000 A 
ATOM     15  C   UNL     1       2.655  13.487  18.111  0.00  0.00    +0.000 A 
ATOM     16  C   UNL     1       1.891  13.023  19.192  0.00  0.00    +0.000 A 
ATOM     17  C   UNL     1       2.287  13.395  20.488  0.00  0.00    +0.000 A 
ATOM     18  C   UNL     1       3.417  14.201  20.693  0.00  0.00    +0.000 A 
BRANCH  13  20
ATOM     19  O   UNL     1       5.918  15.407  20.893  0.00  0.00    +0.000 OA
ATOM     20  N   UNL     1       5.362  15.461  19.785  0.00  0.00    +0.000 N 
ATOM     21  O   UNL     1       5.752  16.155  18.837  0.00  0.00    +0.000 OA
ENDBRANCH  13  20
ENDBRANCH   1  16
BRANCH   5  22
ATOM     22  C   UNL     1       1.858   9.728  19.214  0.00  0.00    +0.000 C 
ATOM     23  C   UNL     1       1.585   8.421  19.934  0.00  0.00    +0.000 C 
ATOM     24  C   UNL     1       2.011   7.432  18.890  0.00  0.00    +0.000 C 
ATOM     25  N   UNL     1       2.382   7.947  17.758  0.00  0.00    +0.000 NA
ATOM     26  N   UNL     1       2.365   9.289  17.915  0.00  0.00    +0.000 N 
ATOM     27  H   UNL     1       1.945   9.770  17.118  0.00  0.00    +0.000 HD
BRANCH  24  28
ATOM     28  C   UNL     1       1.990   5.981  19.167  0.00  0.00    +0.000 A 
ATOM     29  C   UNL     1       1.882   5.504  20.479  0.00  0.00    +0.000 A 
ATOM     30  C   UNL     1       1.904   4.133  20.728  0.00  0.00    +0.000 A 
ATOM     31  C   UNL     1       2.034   3.236  19.670  0.00  0.00    +0.000 A 
ATOM     32  C   UNL     1       2.138   3.706  18.361  0.00  0.00    +0.000 A 
ATOM     33  C   UNL     1       2.117   5.078  18.106  0.00  0.00    +0.000 A 
ENDBRANCH  24  28
ENDBRANCH   5  22
TORSDOF 5
ENDMDL
MODEL 7
REMARK VINA RESULT:      -7.4      2.943      5.508
REMARK  Name = 
REMARK  5 active torsions:
REMARK  status: ('A' for Active; 'I' for Inactive)
REMARK    1  A    between atoms: N_2  and  C_4
REMARK    2  A    between atoms: C_7  and  C_8
REMARK    3  A    between atoms: N_10  and  C_11
REMARK    4  A    between atoms: C_19  and  C_20
REMARK    5  A    between atoms: C_22  and  C_23
REMARK                            x       y       z     vdW  Elec       q    Type
REMARK                         _______ _______ _______ _____ _____    ______ ____
ROOT
ATOM      1  C   UNL     1       0.401  10.615  19.996  0.00  0.00    +0.000 A 
ATOM      2  N   UNL     1       0.620   9.290  20.010  0.00  0.00    +0.000 NA
ATOM      3  N   UNL     1       1.633   9.073  19.143  0.00  0.00    +0.000 N 
ATOM      4  C   UNL     1       1.996  10.232  18.505  0.00  0.00    +0.000 A 
ATOM      5  C   UNL     1       1.210  11.256  18.998  0.00  0.00    +0.000 A 
ENDROOT
BRANCH   3   6
ATOM      6  C   UNL     1       2.216   7.781  18.996  0.00  0.00    +0.000 A 
ATOM      7  C   UNL     1       2.031   6.817  19.998  0.00  0.00    +0.000 A 
ATOM      8  C   UNL     1       2.620   5.554  19.880  0.00  0.00    +0.000 A 
ATOM      9  C   UNL     1       3.401   5.255  18.766  0.00  0.00    +0.000 A 
ATOM     10 BR   UNL     1       4.216   3.557  18.613  0.00  0.00    +0.000 Br
ATOM     11  C   UNL     1       3.591   6.202  17.762  0.00  0.00    +0.000 A 
ATOM     12  C   UNL     1       2.995   7.463  17.871  0.00  0.00    +0.000 A 
ENDBRANCH   3   6
BRANCH   1  16
ATOM     13  C   UNL     1      -2.472  12.230  22.740  0.00  0.00    +0.000 A 
ATOM     14  C   UNL     1      -1.422  11.447  23.217  0.00  0.00    +0.000 A 
ATOM     15  C   UNL     1      -0.493  10.926  22.315  0.00  0.00    +0.000 A 
ATOM     16  C   UNL     1      -0.559  11.208  20.943  0.00  0.00    +0.000 A 
ATOM     17  C   UNL     1      -1.613  12.017  20.484  0.00  0.00    +0.000 A 
ATOM     18  C   UNL     1      -2.573  12.521  21.373  0.00  0.00    +0.000 A 
BRANCH  13  20
ATOM     19  O   UNL     1      -3.545  13.929  23.898  0.00  0.00    +0.000 OA
ATOM     20  N   UNL     1      -3.491  12.709  23.680  0.00  0.00    +0.000 N 
ATOM     21  O   UNL     1      -4.229  11.868  24.208  0.00  0.00    +0.000 OA
ENDBRANCH  13  20
ENDBRANCH   1  16
BRANCH   5  22
ATOM     22  C   UNL     1       1.217  12.699  18.600  0.00  0.00    +0.000 C 
ATOM     23  C   UNL     1       1.564  13.724  19.663  0.00  0.00    +0.000 C 
ATOM     24  C   UNL     1       2.743  14.399  19.026  0.00  0.00    +0.000 C 
ATOM     25  N   UNL     1       3.123  13.896  17.891  0.00  0.00    +0.000 NA
ATOM     26  N   UNL     1       2.228  12.936  17.571  0.00  0.00    +0.000 N 
ATOM     27  H   UNL     1       2.674  12.087  17.220  0.00  0.00    +0.000 HD
BRANCH  24  28
ATOM     28  C   UNL     1       3.402  15.548  19.679  0.00  0.00    +0.000 A 
ATOM     29  C   UNL     1       2.853  16.132  20.827  0.00  0.00    +0.000 A 
ATOM     30  C   UNL     1       3.464  17.241  21.408  0.00  0.00    +0.000 A 
ATOM     31  C   UNL     1       4.625  17.769  20.847  0.00  0.00    +0.000 A 
ATOM     32  C   UNL     1       5.179  17.188  19.706  0.00  0.00    +0.000 A 
ATOM     33  C   UNL     1       4.569  16.079  19.119  0.00  0.00    +0.000 A 
ENDBRANCH  24  28
ENDBRANCH   5  22
TORSDOF 5
ENDMDL
MODEL 8
REMARK VINA RESULT:      -7.4      2.704      3.743
REMARK  Name = 
REMARK  5 active torsions:
REMARK  status: ('A' for Active; 'I' for Inactive)
REMARK    1  A    between atoms: N_2  and  C_4
REMARK    2  A    between atoms: C_7  and  C_8
REMARK    3  A    between atoms: N_10  and  C_11
REMARK    4  A    between atoms: C_19  and  C_20
REMARK    5  A    between atoms: C_22  and  C_23
REMARK                            x       y       z     vdW  Elec       q    Type
REMARK                         _______ _______ _______ _____ _____    ______ ____
ROOT
ATOM      1  C   UNL     1       0.490  10.733  19.725  0.00  0.00    +0.000 A 
ATOM      2  N   UNL     1       0.667   9.403  19.770  0.00  0.00    +0.000 NA
ATOM      3  N   UNL     1       1.724   9.142  18.969  0.00  0.00    +0.000 N 
ATOM      4  C   UNL     1       2.160  10.280  18.338  0.00  0.00    +0.000 A 
ATOM      5  C   UNL     1       1.377  11.334  18.768  0.00  0.00    +0.000 A 
ENDROOT
BRANCH   3   6
ATOM      6  C   UNL     1       2.274   7.831  18.875  0.00  0.00    +0.000 A 
ATOM      7  C   UNL     1       2.048   6.907  19.906  0.00  0.00    +0.000 A 
ATOM      8  C   UNL     1       2.604   5.626  19.840  0.00  0.00    +0.000 A 
ATOM      9  C   UNL     1       3.395   5.269  18.750  0.00  0.00    +0.000 A 
ATOM     10 BR   UNL     1       4.166   3.545  18.668  0.00  0.00    +0.000 Br
ATOM     11  C   UNL     1       3.626   6.176  17.718  0.00  0.00    +0.000 A 
ATOM     12  C   UNL     1       3.063   7.455  17.775  0.00  0.00    +0.000 A 
ENDBRANCH   3   6
BRANCH   1  16
ATOM     13  C   UNL     1      -2.457  12.461  22.316  0.00  0.00    +0.000 A 
ATOM     14  C   UNL     1      -1.202  12.127  22.820  0.00  0.00    +0.000 A 
ATOM     15  C   UNL     1      -0.250  11.565  21.969  0.00  0.00    +0.000 A 
ATOM     16  C   UNL     1      -0.506  11.370  20.603  0.00  0.00    +0.000 A 
ATOM     17  C   UNL     1      -1.770  11.734  20.109  0.00  0.00    +0.000 A 
ATOM     18  C   UNL     1      -2.749  12.269  20.960  0.00  0.00    +0.000 A 
BRANCH  13  20
ATOM     19  O   UNL     1      -3.571  14.208  23.360  0.00  0.00    +0.000 OA
ATOM     20  N   UNL     1      -3.481  12.977  23.231  0.00  0.00    +0.000 N 
ATOM     21  O   UNL     1      -4.186  12.156  23.829  0.00  0.00    +0.000 OA
ENDBRANCH  13  20
ENDBRANCH   1  16
BRANCH   5  22
ATOM     22  C   UNL     1       1.453  12.769  18.352  0.00  0.00    +0.000 C 
ATOM     23  C   UNL     1       0.152  13.540  18.227  0.00  0.00    +0.000 C 
ATOM     24  C   UNL     1       0.399  14.665  19.187  0.00  0.00    +0.000 C 
ATOM     25  N   UNL     1       1.522  14.604  19.835  0.00  0.00    +0.000 NA
ATOM     26  N   UNL     1       2.200  13.545  19.341  0.00  0.00    +0.000 N 
ATOM     27  H   UNL     1       2.633  12.981  20.074  0.00  0.00    +0.000 HD
BRANCH  24  28
ATOM     28  C   UNL     1      -0.594  15.745  19.361  0.00  0.00    +0.000 A 
ATOM     29  C   UNL     1      -1.549  15.682  20.383  0.00  0.00    +0.000 A 
ATOM     30  C   UNL     1      -2.505  16.688  20.509  0.00  0.00    +0.000 A 
ATOM     31  C   UNL     1      -2.510  17.759  19.618  0.00  0.00    +0.000 A 
ATOM     32  C   UNL     1      -1.557  17.829  18.601  0.00  0.00    +0.000 A 
ATOM     33  C   UNL     1      -0.599  16.822  18.469  0.00  0.00    +0.000 A 
ENDBRANCH  24  28
ENDBRANCH   5  22
TORSDOF 5
ENDMDL
MODEL 9
REMARK VINA RESULT:      -7.4      4.128      8.025
REMARK  Name = 
REMARK  5 active torsions:
REMARK  status: ('A' for Active; 'I' for Inactive)
REMARK    1  A    between atoms: N_2  and  C_4
REMARK    2  A    between atoms: C_7  and  C_8
REMARK    3  A    between atoms: N_10  and  C_11
REMARK    4  A    between atoms: C_19  and  C_20
REMARK    5  A    between atoms: C_22  and  C_23
REMARK                            x       y       z     vdW  Elec       q    Type
REMARK                         _______ _______ _______ _____ _____    ______ ____
ROOT
ATOM      1  C   UNL     1       0.741  12.122  19.000  0.00  0.00    +0.000 A 
ATOM      2  N   UNL     1      -0.492  12.614  18.801  0.00  0.00    +0.000 NA
ATOM      3  N   UNL     1      -1.329  11.556  18.865  0.00  0.00    +0.000 N 
ATOM      4  C   UNL     1      -0.632  10.381  19.004  0.00  0.00    +0.000 A 
ATOM      5  C   UNL     1       0.713  10.688  19.067  0.00  0.00    +0.000 A 
ENDROOT
BRANCH   3   6
ATOM      6  C   UNL     1      -2.743  11.726  18.818  0.00  0.00    +0.000 A 
ATOM      7  C   UNL     1      -3.386  12.463  19.824  0.00  0.00    +0.000 A 
ATOM      8  C   UNL     1      -4.776  12.615  19.807  0.00  0.00    +0.000 A 
ATOM      9  C   UNL     1      -5.526  12.026  18.792  0.00  0.00    +0.000 A 
ATOM     10 BR   UNL     1      -7.407  12.212  18.778  0.00  0.00    +0.000 Br
ATOM     11  C   UNL     1      -4.899  11.293  17.786  0.00  0.00    +0.000 A 
ATOM     12  C   UNL     1      -3.508  11.147  17.793  0.00  0.00    +0.000 A 
ENDBRANCH   3   6
BRANCH   1  16
ATOM     13  C   UNL     1       3.981  14.905  19.382  0.00  0.00    +0.000 A 
ATOM     14  C   UNL     1       3.392  14.367  20.524  0.00  0.00    +0.000 A 
ATOM     15  C   UNL     1       2.338  13.462  20.389  0.00  0.00    +0.000 A 
ATOM     16  C   UNL     1       1.885  13.041  19.130  0.00  0.00    +0.000 A 
ATOM     17  C   UNL     1       2.506  13.579  17.990  0.00  0.00    +0.000 A 
ATOM     18  C   UNL     1       3.545  14.514  18.109  0.00  0.00    +0.000 A 
BRANCH  13  20
ATOM     19  O   UNL     1       4.841  17.027  19.014  0.00  0.00    +0.000 OA
ATOM     20  N   UNL     1       5.035  15.915  19.528  0.00  0.00    +0.000 N 
ATOM     21  O   UNL     1       6.058  15.595  20.145  0.00  0.00    +0.000 OA
ENDBRANCH  13  20
ENDBRANCH   1  16
BRANCH   5  22
ATOM     22  C   UNL     1       1.870   9.747  19.199  0.00  0.00    +0.000 C 
ATOM     23  C   UNL     1       1.643   8.445  19.944  0.00  0.00    +0.000 C 
ATOM     24  C   UNL     1       2.019   7.448  18.888  0.00  0.00    +0.000 C 
ATOM     25  N   UNL     1       2.327   7.954  17.733  0.00  0.00    +0.000 NA
ATOM     26  N   UNL     1       2.310   9.298  17.879  0.00  0.00    +0.000 N 
ATOM     27  H   UNL     1       1.847   9.770  17.101  0.00  0.00    +0.000 HD
BRANCH  24  28
ATOM     28  C   UNL     1       2.021   6.000  19.179  0.00  0.00    +0.000 A 
ATOM     29  C   UNL     1       1.887   5.533  20.492  0.00  0.00    +0.000 A 
ATOM     30  C   UNL     1       1.931   4.165  20.755  0.00  0.00    +0.000 A 
ATOM     31  C   UNL     1       2.109   3.261  19.710  0.00  0.00    +0.000 A 
ATOM     32  C   UNL     1       2.239   3.721  18.400  0.00  0.00    +0.000 A 
ATOM     33  C   UNL     1       2.196   5.090  18.131  0.00  0.00    +0.000 A 
ENDBRANCH  24  28
ENDBRANCH   5  22
TORSDOF 5
ENDMDL
