MODEL 1
REMARK VINA RESULT:      -8.5      0.000      0.000
REMARK  Name = 
REMARK  6 active torsions:
REMARK  status: ('A' for Active; 'I' for Inactive)
REMARK    1  A    between atoms: C_1  and  C_2
REMARK    2  A    between atoms: C_2  and  O_3
REMARK    3  A    between atoms: C_2  and  C_4
REMARK    4  A    between atoms: C_2  and  C_10
REMARK    5  A    between atoms: C_17  and  C_18
REMARK    6  A    between atoms: C_29  and  C_30
REMARK                            x       y       z     vdW  Elec       q    Type
REMARK                         _______ _______ _______ _____ _____    ______ ____
ROOT
ATOM      1  C   UNL     1      -0.675  11.776  20.483  0.00  0.00    +0.000 C 
ATOM      2  C   UNL     1      -1.534  11.795  21.767  0.00  0.00    +0.000 C 
ATOM      3  C   UNL     1      -0.866  11.050  22.925  0.00  0.00    +0.000 C 
ATOM      4  C   UNL     1      -0.452   9.622  22.590  0.00  0.00    +0.000 C 
ATOM      5  C   UNL     1       0.258   9.470  21.267  0.00  0.00    +0.000 C 
ATOM      6  C   UNL     1       1.208   8.519  21.107  0.00  0.00    +0.000 C 
ATOM      7  C   UNL     1       1.739   8.225  19.826  0.00  0.00    +0.000 A 
ATOM      8  C   UNL     1       2.420   7.192  19.195  0.00  0.00    +0.000 A 
ATOM      9  N   UNL     1       2.777   7.556  17.907  0.00  0.00    +0.000 NA
ATOM     10  C   UNL     1       2.262   8.748  17.730  0.00  0.00    +0.000 A 
ATOM     11  N   UNL     1       1.565   9.145  18.822  0.00  0.00    +0.000 N 
ATOM     12  C   UNL     1       0.754  10.332  18.932  0.00  0.00    +0.000 C 
ATOM     13  C   UNL     1      -0.303  10.278  20.070  0.00  0.00    +0.000 C 
ATOM     14  C   UNL     1      -1.518   9.428  19.620  0.00  0.00    +0.000 C 
ENDROOT
BRANCH   8  15
ATOM     15  C   UNL     1       2.724   5.866  19.703  0.00  0.00    +0.000 A 
ATOM     16  C   UNL     1       1.882   5.210  20.611  0.00  0.00    +0.000 A 
ATOM     17  C   UNL     1       2.183   3.915  21.040  0.00  0.00    +0.000 A 
ATOM     18  C   UNL     1       3.314   3.274  20.550  0.00  0.00    +0.000 A 
ATOM     19  F   UNL     1       3.597   2.030  20.962  0.00  0.00    +0.000 F 
ATOM     20  C   UNL     1       4.144   3.894  19.626  0.00  0.00    +0.000 A 
ATOM     21  C   UNL     1       3.845   5.188  19.199  0.00  0.00    +0.000 A 
ENDBRANCH   8  15
BRANCH   1  23
ATOM     22  C   UNL     1      -0.202  13.312  18.390  0.00  0.00    +0.000 C 
ATOM     23  C   UNL     1      -1.259  12.725  19.344  0.00  0.00    +0.000 C 
BRANCH  23  24
ATOM     24  C   UNL     1      -2.408  12.082  18.537  0.00  0.00    +0.000 A 
ATOM     25  C   UNL     1      -2.212  11.569  17.239  0.00  0.00    +0.000 A 
ATOM     26  C   UNL     1      -3.284  11.125  16.458  0.00  0.00    +0.000 A 
ATOM     27  C   UNL     1      -4.578  11.163  16.963  0.00  0.00    +0.000 A 
ATOM     28  C   UNL     1      -4.798  11.627  18.257  0.00  0.00    +0.000 A 
ATOM     29  C   UNL     1      -3.725  12.075  19.038  0.00  0.00    +0.000 A 
ENDBRANCH  23  24
BRANCH  23  30
ATOM     30  O   UNL     1      -1.844  13.876  19.979  0.00  0.00    +0.000 OA
ATOM     31  H   UNL     1      -1.150  14.557  20.046  0.00  0.00    +0.000 HD
ENDBRANCH  23  30
ENDBRANCH   1  23
TORSDOF 4
ENDMDL
MODEL 2
REMARK VINA RESULT:      -8.3      2.068      3.571
REMARK  Name = 
REMARK  6 active torsions:
REMARK  status: ('A' for Active; 'I' for Inactive)
REMARK    1  A    between atoms: C_1  and  C_2
REMARK    2  A    between atoms: C_2  and  O_3
REMARK    3  A    between atoms: C_2  and  C_4
REMARK    4  A    between atoms: C_2  and  C_10
REMARK    5  A    between atoms: C_17  and  C_18
REMARK    6  A    between atoms: C_29  and  C_30
REMARK                            x       y       z     vdW  Elec       q    Type
REMARK                         _______ _______ _______ _____ _____    ______ ____
ROOT
ATOM      1  C   UNL     1       0.371  11.825  20.531  0.00  0.00    +0.000 C 
ATOM      2  C   UNL     1      -0.695  11.897  21.648  0.00  0.00    +0.000 C 
ATOM      3  C   UNL     1      -0.495  10.815  22.712  0.00  0.00    +0.000 C 
ATOM      4  C   UNL     1      -0.412   9.400  22.154  0.00  0.00    +0.000 C 
ATOM      5  C   UNL     1       0.485   9.253  20.949  0.00  0.00    +0.000 C 
ATOM      6  C   UNL     1       1.164   8.101  20.739  0.00  0.00    +0.000 C 
ATOM      7  C   UNL     1       1.846   7.867  19.519  0.00  0.00    +0.000 A 
ATOM      8  C   UNL     1       2.345   6.791  18.796  0.00  0.00    +0.000 A 
ATOM      9  N   UNL     1       3.038   7.231  17.681  0.00  0.00    +0.000 NA
ATOM     10  C   UNL     1       2.902   8.534  17.680  0.00  0.00    +0.000 A 
ATOM     11  N   UNL     1       2.127   8.943  18.714  0.00  0.00    +0.000 N 
ATOM     12  C   UNL     1       1.653  10.284  18.946  0.00  0.00    +0.000 C 
ATOM     13  C   UNL     1       0.411  10.368  19.876  0.00  0.00    +0.000 C 
ATOM     14  C   UNL     1      -0.868   9.998  19.083  0.00  0.00    +0.000 C 
ENDROOT
BRANCH   8  15
ATOM     15  C   UNL     1       2.180   5.373  19.057  0.00  0.00    +0.000 A 
ATOM     16  C   UNL     1       2.150   4.857  20.360  0.00  0.00    +0.000 A 
ATOM     17  C   UNL     1       1.942   3.492  20.571  0.00  0.00    +0.000 A 
ATOM     18  C   UNL     1       1.748   2.649  19.483  0.00  0.00    +0.000 A 
ATOM     19  F   UNL     1       1.546   1.340  19.692  0.00  0.00    +0.000 F 
ATOM     20  C   UNL     1       1.744   3.144  18.187  0.00  0.00    +0.000 A 
ATOM     21  C   UNL     1       1.953   4.507  17.975  0.00  0.00    +0.000 A 
ENDBRANCH   8  15
BRANCH   1  23
ATOM     22  C   UNL     1      -0.858  14.047  19.817  0.00  0.00    +0.000 C 
ATOM     23  C   UNL     1       0.300  13.071  19.541  0.00  0.00    +0.000 C 
BRANCH  23  24
ATOM     24  C   UNL     1       1.634  13.843  19.428  0.00  0.00    +0.000 A 
ATOM     25  C   UNL     1       2.349  13.923  18.217  0.00  0.00    +0.000 A 
ATOM     26  C   UNL     1       3.625  14.494  18.157  0.00  0.00    +0.000 A 
ATOM     27  C   UNL     1       4.209  15.018  19.303  0.00  0.00    +0.000 A 
ATOM     28  C   UNL     1       3.510  14.990  20.506  0.00  0.00    +0.000 A 
ATOM     29  C   UNL     1       2.234  14.416  20.567  0.00  0.00    +0.000 A 
ENDBRANCH  23  24
BRANCH  23  30
ATOM     30  O   UNL     1       0.040  12.575  18.215  0.00  0.00    +0.000 OA
ATOM     31  H   UNL     1       0.902  12.426  17.786  0.00  0.00    +0.000 HD
ENDBRANCH  23  30
ENDBRANCH   1  23
TORSDOF 4
ENDMDL
MODEL 3
REMARK VINA RESULT:      -8.2      3.931      8.634
REMARK  Name = 
REMARK  6 active torsions:
REMARK  status: ('A' for Active; 'I' for Inactive)
REMARK    1  A    between atoms: C_1  and  C_2
REMARK    2  A    between atoms: C_2  and  O_3
REMARK    3  A    between atoms: C_2  and  C_4
REMARK    4  A    between atoms: C_2  and  C_10
REMARK    5  A    between atoms: C_17  and  C_18
REMARK    6  A    between atoms: C_29  and  C_30
REMARK                            x       y       z     vdW  Elec       q    Type
REMARK                         _______ _______ _______ _____ _____    ______ ____
ROOT
ATOM      1  C   UNL     1       4.017   4.420  17.317  0.00  0.00    +0.000 C 
ATOM      2  C   UNL     1       3.902   3.075  18.070  0.00  0.00    +0.000 C 
ATOM      3  C   UNL     1       2.528   2.886  18.715  0.00  0.00    +0.000 C 
ATOM      4  C   UNL     1       2.100   4.034  19.621  0.00  0.00    +0.000 C 
ATOM      5  C   UNL     1       2.324   5.408  19.038  0.00  0.00    +0.000 C 
ATOM      6  C   UNL     1       1.485   6.425  19.345  0.00  0.00    +0.000 C 
ATOM      7  C   UNL     1       1.789   7.760  18.976  0.00  0.00    +0.000 A 
ATOM      8  C   UNL     1       1.423   9.049  19.342  0.00  0.00    +0.000 A 
ATOM      9  N   UNL     1       2.009   9.980  18.501  0.00  0.00    +0.000 NA
ATOM     10  C   UNL     1       2.771   9.286  17.693  0.00  0.00    +0.000 A 
ATOM     11  N   UNL     1       2.731   7.966  18.000  0.00  0.00    +0.000 N 
ATOM     12  C   UNL     1       3.545   6.930  17.415  0.00  0.00    +0.000 C 
ATOM     13  C   UNL     1       3.654   5.643  18.280  0.00  0.00    +0.000 C 
ATOM     14  C   UNL     1       4.671   5.865  19.428  0.00  0.00    +0.000 C 
ENDROOT
BRANCH   8  15
ATOM     15  C   UNL     1       0.594   9.471  20.456  0.00  0.00    +0.000 A 
ATOM     16  C   UNL     1       0.608   8.801  21.687  0.00  0.00    +0.000 A 
ATOM     17  C   UNL     1      -0.169   9.266  22.750  0.00  0.00    +0.000 A 
ATOM     18  C   UNL     1      -0.945  10.407  22.587  0.00  0.00    +0.000 A 
ATOM     19  F   UNL     1      -1.687  10.851  23.612  0.00  0.00    +0.000 F 
ATOM     20  C   UNL     1      -0.951  11.104  21.387  0.00  0.00    +0.000 A 
ATOM     21  C   UNL     1      -0.176  10.638  20.323  0.00  0.00    +0.000 A 
ENDBRANCH   8  15
BRANCH   1  23
ATOM     22  C   UNL     1       5.168   5.015  15.020  0.00  0.00    +0.000 C 
ATOM     23  C   UNL     1       5.361   4.531  16.468  0.00  0.00    +0.000 C 
BRANCH  23  24
ATOM     24  C   UNL     1       6.463   5.358  17.166  0.00  0.00    +0.000 A 
ATOM     25  C   UNL     1       7.210   4.845  18.245  0.00  0.00    +0.000 A 
ATOM     26  C   UNL     1       8.099   5.648  18.967  0.00  0.00    +0.000 A 
ATOM     27  C   UNL     1       8.279   6.980  18.615  0.00  0.00    +0.000 A 
ATOM     28  C   UNL     1       7.586   7.504  17.528  0.00  0.00    +0.000 A 
ATOM     29  C   UNL     1       6.692   6.701  16.807  0.00  0.00    +0.000 A 
ENDBRANCH  23  24
BRANCH  23  30
ATOM     30  O   UNL     1       5.913   3.209  16.331  0.00  0.00    +0.000 OA
ATOM     31  H   UNL     1       6.768   3.200  16.800  0.00  0.00    +0.000 HD
ENDBRANCH  23  30
ENDBRANCH   1  23
TORSDOF 4
ENDMDL
MODEL 4
REMARK VINA RESULT:      -8.1      2.087      3.698
REMARK  Name = 
REMARK  6 active torsions:
REMARK  status: ('A' for Active; 'I' for Inactive)
REMARK    1  A    between atoms: C_1  and  C_2
REMARK    2  A    between atoms: C_2  and  O_3
REMARK    3  A    between atoms: C_2  and  C_4
REMARK    4  A    between atoms: C_2  and  C_10
REMARK    5  A    between atoms: C_17  and  C_18
REMARK    6  A    between atoms: C_29  and  C_30
REMARK                            x       y       z     vdW  Elec       q    Type
REMARK                         _______ _______ _______ _____ _____    ______ ____
ROOT
ATOM      1  C   UNL     1       0.367  11.849  20.571  0.00  0.00    +0.000 C 
ATOM      2  C   UNL     1      -0.708  11.909  21.680  0.00  0.00    +0.000 C 
ATOM      3  C   UNL     1      -0.528  10.806  22.725  0.00  0.00    +0.000 C 
ATOM      4  C   UNL     1      -0.451   9.401  22.141  0.00  0.00    +0.000 C 
ATOM      5  C   UNL     1       0.455   9.269  20.942  0.00  0.00    +0.000 C 
ATOM      6  C   UNL     1       1.126   8.116  20.716  0.00  0.00    +0.000 C 
ATOM      7  C   UNL     1       1.818   7.899  19.497  0.00  0.00    +0.000 A 
ATOM      8  C   UNL     1       2.314   6.832  18.760  0.00  0.00    +0.000 A 
ATOM      9  N   UNL     1       3.021   7.287  17.658  0.00  0.00    +0.000 NA
ATOM     10  C   UNL     1       2.896   8.590  17.681  0.00  0.00    +0.000 A 
ATOM     11  N   UNL     1       2.115   8.987  18.716  0.00  0.00    +0.000 N 
ATOM     12  C   UNL     1       1.650  10.327  18.969  0.00  0.00    +0.000 C 
ATOM     13  C   UNL     1       0.400  10.405  19.889  0.00  0.00    +0.000 C 
ATOM     14  C   UNL     1      -0.874  10.061  19.078  0.00  0.00    +0.000 C 
ENDROOT
BRANCH   8  15
ATOM     15  C   UNL     1       2.135   5.411  18.992  0.00  0.00    +0.000 A 
ATOM     16  C   UNL     1       1.886   4.514  17.943  0.00  0.00    +0.000 A 
ATOM     17  C   UNL     1       1.766   3.146  18.200  0.00  0.00    +0.000 A 
ATOM     18  C   UNL     1       1.911   2.676  19.500  0.00  0.00    +0.000 A 
ATOM     19  F   UNL     1       1.797   1.362  19.741  0.00  0.00    +0.000 F 
ATOM     20  C   UNL     1       2.187   3.542  20.548  0.00  0.00    +0.000 A 
ATOM     21  C   UNL     1       2.306   4.909  20.292  0.00  0.00    +0.000 A 
ENDBRANCH   8  15
BRANCH   1  23
ATOM     22  C   UNL     1      -0.893  14.043  19.823  0.00  0.00    +0.000 C 
ATOM     23  C   UNL     1       0.315  13.114  19.603  0.00  0.00    +0.000 C 
BRANCH  23  24
ATOM     24  C   UNL     1       1.625  13.934  19.594  0.00  0.00    +0.000 A 
ATOM     25  C   UNL     1       2.663  13.691  20.514  0.00  0.00    +0.000 A 
ATOM     26  C   UNL     1       3.779  14.531  20.597  0.00  0.00    +0.000 A 
ATOM     27  C   UNL     1       3.894  15.624  19.747  0.00  0.00    +0.000 A 
ATOM     28  C   UNL     1       2.904  15.866  18.800  0.00  0.00    +0.000 A 
ATOM     29  C   UNL     1       1.784  15.027  18.719  0.00  0.00    +0.000 A 
ENDBRANCH  23  24
BRANCH  23  30
ATOM     30  O   UNL     1       0.160  12.640  18.254  0.00  0.00    +0.000 OA
ATOM     31  H   UNL     1       0.628  11.787  18.189  0.00  0.00    +0.000 HD
ENDBRANCH  23  30
ENDBRANCH   1  23
TORSDOF 4
ENDMDL
MODEL 5
REMARK VINA RESULT:      -8.1      1.880      3.352
REMARK  Name = 
REMARK  6 active torsions:
REMARK  status: ('A' for Active; 'I' for Inactive)
REMARK    1  A    between atoms: C_1  and  C_2
REMARK    2  A    between atoms: C_2  and  O_3
REMARK    3  A    between atoms: C_2  and  C_4
REMARK    4  A    between atoms: C_2  and  C_10
REMARK    5  A    between atoms: C_17  and  C_18
REMARK    6  A    between atoms: C_29  and  C_30
REMARK                            x       y       z     vdW  Elec       q    Type
REMARK                         _______ _______ _______ _____ _____    ______ ____
ROOT
ATOM      1  C   UNL     1      -0.117  11.643  21.062  0.00  0.00    +0.000 C 
ATOM      2  C   UNL     1      -1.106  11.441  22.232  0.00  0.00    +0.000 C 
ATOM      3  C   UNL     1      -0.690  10.294  23.155  0.00  0.00    +0.000 C 
ATOM      4  C   UNL     1      -0.448   8.973  22.437  0.00  0.00    +0.000 C 
ATOM      5  C   UNL     1       0.380   9.085  21.180  0.00  0.00    +0.000 C 
ATOM      6  C   UNL     1       1.196   8.072  20.806  0.00  0.00    +0.000 C 
ATOM      7  C   UNL     1       1.824   8.069  19.535  0.00  0.00    +0.000 A 
ATOM      8  C   UNL     1       2.418   7.159  18.671  0.00  0.00    +0.000 A 
ATOM      9  N   UNL     1       2.969   7.809  17.579  0.00  0.00    +0.000 NA
ATOM     10  C   UNL     1       2.654   9.071  17.733  0.00  0.00    +0.000 A 
ATOM     11  N   UNL     1       1.899   9.253  18.845  0.00  0.00    +0.000 N 
ATOM     12  C   UNL     1       1.260  10.479  19.250  0.00  0.00    +0.000 C 
ATOM     13  C   UNL     1       0.082  10.284  20.245  0.00  0.00    +0.000 C 
ATOM     14  C   UNL     1      -1.182   9.818  19.480  0.00  0.00    +0.000 C 
ENDROOT
BRANCH   8  15
ATOM     15  C   UNL     1       2.469   5.712  18.777  0.00  0.00    +0.000 A 
ATOM     16  C   UNL     1       1.761   4.880  17.899  0.00  0.00    +0.000 A 
ATOM     17  C   UNL     1       1.872   3.491  18.002  0.00  0.00    +0.000 A 
ATOM     18  C   UNL     1       2.701   2.938  18.971  0.00  0.00    +0.000 A 
ATOM     19  F   UNL     1       2.806   1.605  19.064  0.00  0.00    +0.000 F 
ATOM     20  C   UNL     1       3.435   3.744  19.830  0.00  0.00    +0.000 A 
ATOM     21  C   UNL     1       3.323   5.131  19.728  0.00  0.00    +0.000 A 
ENDBRANCH   8  15
BRANCH   1  23
ATOM     22  C   UNL     1      -1.665  13.746  20.690  0.00  0.00    +0.000 C 
ATOM     23  C   UNL     1      -0.424  12.963  20.224  0.00  0.00    +0.000 C 
BRANCH  23  24
ATOM     24  C   UNL     1       0.790  13.910  20.102  0.00  0.00    +0.000 A 
ATOM     25  C   UNL     1       1.249  14.377  18.855  0.00  0.00    +0.000 A 
ATOM     26  C   UNL     1       2.434  15.111  18.738  0.00  0.00    +0.000 A 
ATOM     27  C   UNL     1       3.181  15.413  19.871  0.00  0.00    +0.000 A 
ATOM     28  C   UNL     1       2.732  15.000  21.121  0.00  0.00    +0.000 A 
ATOM     29  C   UNL     1       1.547  14.262  21.237  0.00  0.00    +0.000 A 
ENDBRANCH  23  24
BRANCH  23  30
ATOM     30  O   UNL     1      -0.735  12.573  18.874  0.00  0.00    +0.000 OA
ATOM     31  H   UNL     1       0.102  12.313  18.446  0.00  0.00    +0.000 HD
ENDBRANCH  23  30
ENDBRANCH   1  23
TORSDOF 4
ENDMDL
MODEL 6
REMARK VINA RESULT:      -8.0      1.023      1.488
REMARK  Name = 
REMARK  6 active torsions:
REMARK  status: ('A' for Active; 'I' for Inactive)
REMARK    1  A    between atoms: C_1  and  C_2
REMARK    2  A    between atoms: C_2  and  O_3
REMARK    3  A    between atoms: C_2  and  C_4
REMARK    4  A    between atoms: C_2  and  C_10
REMARK    5  A    between atoms: C_17  and  C_18
REMARK    6  A    between atoms: C_29  and  C_30
REMARK                            x       y       z     vdW  Elec       q    Type
REMARK                         _______ _______ _______ _____ _____    ______ ____
ROOT
ATOM      1  C   UNL     1      -0.190  11.413  20.986  0.00  0.00    +0.000 C 
ATOM      2  C   UNL     1      -1.082  11.177  22.226  0.00  0.00    +0.000 C 
ATOM      3  C   UNL     1      -0.509  10.108  23.160  0.00  0.00    +0.000 C 
ATOM      4  C   UNL     1      -0.200   8.783  22.474  0.00  0.00    +0.000 C 
ATOM      5  C   UNL     1       0.533   8.913  21.161  0.00  0.00    +0.000 C 
ATOM      6  C   UNL     1       1.409   7.958  20.770  0.00  0.00    +0.000 C 
ATOM      7  C   UNL     1       1.952   7.956  19.461  0.00  0.00    +0.000 A 
ATOM      8  C   UNL     1       2.567   7.063  18.592  0.00  0.00    +0.000 A 
ATOM      9  N   UNL     1       2.988   7.713  17.443  0.00  0.00    +0.000 NA
ATOM     10  C   UNL     1       2.575   8.949  17.573  0.00  0.00    +0.000 A 
ATOM     11  N   UNL     1       1.880   9.112  18.725  0.00  0.00    +0.000 N 
ATOM     12  C   UNL     1       1.164  10.296  19.129  0.00  0.00    +0.000 C 
ATOM     13  C   UNL     1       0.073  10.043  20.207  0.00  0.00    +0.000 C 
ATOM     14  C   UNL     1      -1.192   9.441  19.545  0.00  0.00    +0.000 C 
ENDROOT
BRANCH   8  15
ATOM     15  C   UNL     1       2.750   5.632  18.745  0.00  0.00    +0.000 A 
ATOM     16  C   UNL     1       3.738   5.096  19.582  0.00  0.00    +0.000 A 
ATOM     17  C   UNL     1       3.853   3.713  19.740  0.00  0.00    +0.000 A 
ATOM     18  C   UNL     1       2.970   2.870  19.076  0.00  0.00    +0.000 A 
ATOM     19  F   UNL     1       3.082   1.544  19.234  0.00  0.00    +0.000 F 
ATOM     20  C   UNL     1       1.964   3.380  18.268  0.00  0.00    +0.000 A 
ATOM     21  C   UNL     1       1.851   4.762  18.108  0.00  0.00    +0.000 A 
ENDBRANCH   8  15
BRANCH   1  23
ATOM     22  C   UNL     1       0.440  13.312  19.267  0.00  0.00    +0.000 C 
ATOM     23  C   UNL     1      -0.664  12.666  20.124  0.00  0.00    +0.000 C 
BRANCH  23  24
ATOM     24  C   UNL     1      -1.913  12.382  19.261  0.00  0.00    +0.000 A 
ATOM     25  C   UNL     1      -3.214  12.408  19.799  0.00  0.00    +0.000 A 
ATOM     26  C   UNL     1      -4.324  12.005  19.051  0.00  0.00    +0.000 A 
ATOM     27  C   UNL     1      -4.164  11.584  17.736  0.00  0.00    +0.000 A 
ATOM     28  C   UNL     1      -2.895  11.585  17.163  0.00  0.00    +0.000 A 
ATOM     29  C   UNL     1      -1.783  11.986  17.914  0.00  0.00    +0.000 A 
ENDBRANCH  23  24
BRANCH  23  30
ATOM     30  O   UNL     1      -1.065  13.708  21.033  0.00  0.00    +0.000 OA
ATOM     31  H   UNL     1      -0.617  14.527  20.754  0.00  0.00    +0.000 HD
ENDBRANCH  23  30
ENDBRANCH   1  23
TORSDOF 4
ENDMDL
MODEL 7
REMARK VINA RESULT:      -8.0      1.883      3.535
REMARK  Name = 
REMARK  6 active torsions:
REMARK  status: ('A' for Active; 'I' for Inactive)
REMARK    1  A    between atoms: C_1  and  C_2
REMARK    2  A    between atoms: C_2  and  O_3
REMARK    3  A    between atoms: C_2  and  C_4
REMARK    4  A    between atoms: C_2  and  C_10
REMARK    5  A    between atoms: C_17  and  C_18
REMARK    6  A    between atoms: C_29  and  C_30
REMARK                            x       y       z     vdW  Elec       q    Type
REMARK                         _______ _______ _______ _____ _____    ______ ____
ROOT
ATOM      1  C   UNL     1       0.238  12.100  20.258  0.00  0.00    +0.000 C 
ATOM      2  C   UNL     1      -0.786  12.302  21.398  0.00  0.00    +0.000 C 
ATOM      3  C   UNL     1      -0.541  11.356  22.575  0.00  0.00    +0.000 C 
ATOM      4  C   UNL     1      -0.469   9.884  22.187  0.00  0.00    +0.000 C 
ATOM      5  C   UNL     1       0.384   9.597  20.975  0.00  0.00    +0.000 C 
ATOM      6  C   UNL     1       1.063   8.430  20.879  0.00  0.00    +0.000 C 
ATOM      7  C   UNL     1       1.702   8.053  19.671  0.00  0.00    +0.000 A 
ATOM      8  C   UNL     1       2.181   6.900  19.064  0.00  0.00    +0.000 A 
ATOM      9  N   UNL     1       2.830   7.205  17.878  0.00  0.00    +0.000 NA
ATOM     10  C   UNL     1       2.685   8.498  17.728  0.00  0.00    +0.000 A 
ATOM     11  N   UNL     1       1.946   9.026  18.734  0.00  0.00    +0.000 N 
ATOM     12  C   UNL     1       1.471  10.384  18.822  0.00  0.00    +0.000 C 
ATOM     13  C   UNL     1       0.264  10.576  19.781  0.00  0.00    +0.000 C 
ATOM     14  C   UNL     1      -1.041  10.111  19.085  0.00  0.00    +0.000 C 
ENDROOT
BRANCH   8  15
ATOM     15  C   UNL     1       2.035   5.522  19.497  0.00  0.00    +0.000 A 
ATOM     16  C   UNL     1       1.838   4.476  18.586  0.00  0.00    +0.000 A 
ATOM     17  C   UNL     1       1.749   3.157  19.037  0.00  0.00    +0.000 A 
ATOM     18  C   UNL     1       1.874   2.885  20.394  0.00  0.00    +0.000 A 
ATOM     19  F   UNL     1       1.791   1.617  20.822  0.00  0.00    +0.000 F 
ATOM     20  C   UNL     1       2.100   3.902  21.310  0.00  0.00    +0.000 A 
ATOM     21  C   UNL     1       2.187   5.220  20.860  0.00  0.00    +0.000 A 
ENDBRANCH   8  15
BRANCH   1  23
ATOM     22  C   UNL     1      -1.091  14.156  19.274  0.00  0.00    +0.000 C 
ATOM     23  C   UNL     1       0.123  13.219  19.130  0.00  0.00    +0.000 C 
BRANCH  23  24
ATOM     24  C   UNL     1       1.416  14.044  18.948  0.00  0.00    +0.000 A 
ATOM     25  C   UNL     1       1.414  15.453  18.989  0.00  0.00    +0.000 A 
ATOM     26  C   UNL     1       2.557  16.195  18.677  0.00  0.00    +0.000 A 
ATOM     27  C   UNL     1       3.739  15.548  18.335  0.00  0.00    +0.000 A 
ATOM     28  C   UNL     1       3.782  14.157  18.326  0.00  0.00    +0.000 A 
ATOM     29  C   UNL     1       2.636  13.413  18.636  0.00  0.00    +0.000 A 
ENDBRANCH  23  24
BRANCH  23  30
ATOM     30  O   UNL     1      -0.083  12.561  17.867  0.00  0.00    +0.000 OA
ATOM     31  H   UNL     1       0.768  12.567  17.393  0.00  0.00    +0.000 HD
ENDBRANCH  23  30
ENDBRANCH   1  23
TORSDOF 4
ENDMDL
MODEL 8
REMARK VINA RESULT:      -7.9      1.530      2.167
REMARK  Name = 
REMARK  6 active torsions:
REMARK  status: ('A' for Active; 'I' for Inactive)
REMARK    1  A    between atoms: C_1  and  C_2
REMARK    2  A    between atoms: C_2  and  O_3
REMARK    3  A    between atoms: C_2  and  C_4
REMARK    4  A    between atoms: C_2  and  C_10
REMARK    5  A    between atoms: C_17  and  C_18
REMARK    6  A    between atoms: C_29  and  C_30
REMARK                            x       y       z     vdW  Elec       q    Type
REMARK                         _______ _______ _______ _____ _____    ______ ____
ROOT
ATOM      1  C   UNL     1      -0.223  11.624  21.071  0.00  0.00    +0.000 C 
ATOM      2  C   UNL     1      -1.149  11.396  22.287  0.00  0.00    +0.000 C 
ATOM      3  C   UNL     1      -0.635  10.286  23.208  0.00  0.00    +0.000 C 
ATOM      4  C   UNL     1      -0.360   8.966  22.500  0.00  0.00    +0.000 C 
ATOM      5  C   UNL     1       0.404   9.096  21.206  0.00  0.00    +0.000 C 
ATOM      6  C   UNL     1       1.253   8.118  20.812  0.00  0.00    +0.000 C 
ATOM      7  C   UNL     1       1.822   8.123  19.513  0.00  0.00    +0.000 A 
ATOM      8  C   UNL     1       2.423   7.228  18.638  0.00  0.00    +0.000 A 
ATOM      9  N   UNL     1       2.891   7.885  17.512  0.00  0.00    +0.000 NA
ATOM     10  C   UNL     1       2.521   9.133  17.661  0.00  0.00    +0.000 A 
ATOM     11  N   UNL     1       1.808   9.297  18.802  0.00  0.00    +0.000 N 
ATOM     12  C   UNL     1       1.128  10.497  19.217  0.00  0.00    +0.000 C 
ATOM     13  C   UNL     1       0.006  10.263  20.267  0.00  0.00    +0.000 C 
ATOM     14  C   UNL     1      -1.266   9.722  19.567  0.00  0.00    +0.000 C 
ENDROOT
BRANCH   8  15
ATOM     15  C   UNL     1       2.549   5.788  18.763  0.00  0.00    +0.000 A 
ATOM     16  C   UNL     1       3.322   5.197  19.773  0.00  0.00    +0.000 A 
ATOM     17  C   UNL     1       3.382   3.806  19.890  0.00  0.00    +0.000 A 
ATOM     18  C   UNL     1       2.657   3.010  19.011  0.00  0.00    +0.000 A 
ATOM     19  F   UNL     1       2.716   1.676  19.130  0.00  0.00    +0.000 F 
ATOM     20  C   UNL     1       1.862   3.575  18.024  0.00  0.00    +0.000 A 
ATOM     21  C   UNL     1       1.804   4.964  17.905  0.00  0.00    +0.000 A 
ENDBRANCH   8  15
BRANCH   1  23
ATOM     22  C   UNL     1      -0.345  12.812  18.718  0.00  0.00    +0.000 C 
ATOM     23  C   UNL     1      -0.633  12.913  20.227  0.00  0.00    +0.000 C 
BRANCH  23  24
ATOM     24  C   UNL     1      -2.091  13.364  20.465  0.00  0.00    +0.000 A 
ATOM     25  C   UNL     1      -2.406  14.470  21.278  0.00  0.00    +0.000 A 
ATOM     26  C   UNL     1      -3.729  14.782  21.609  0.00  0.00    +0.000 A 
ATOM     27  C   UNL     1      -4.773  14.008  21.116  0.00  0.00    +0.000 A 
ATOM     28  C   UNL     1      -4.495  12.933  20.276  0.00  0.00    +0.000 A 
ATOM     29  C   UNL     1      -3.169  12.619  19.948  0.00  0.00    +0.000 A 
ENDBRANCH  23  24
BRANCH  23  30
ATOM     30  O   UNL     1       0.179  14.015  20.672  0.00  0.00    +0.000 OA
ATOM     31  H   UNL     1      -0.266  14.835  20.392  0.00  0.00    +0.000 HD
ENDBRANCH  23  30
ENDBRANCH   1  23
TORSDOF 4
ENDMDL
MODEL 9
REMARK VINA RESULT:      -7.9      1.785      3.349
REMARK  Name = 
REMARK  6 active torsions:
REMARK  status: ('A' for Active; 'I' for Inactive)
REMARK    1  A    between atoms: C_1  and  C_2
REMARK    2  A    between atoms: C_2  and  O_3
REMARK    3  A    between atoms: C_2  and  C_4
REMARK    4  A    between atoms: C_2  and  C_10
REMARK    5  A    between atoms: C_17  and  C_18
REMARK    6  A    between atoms: C_29  and  C_30
REMARK                            x       y       z     vdW  Elec       q    Type
REMARK                         _______ _______ _______ _____ _____    ______ ____
ROOT
ATOM      1  C   UNL     1       0.080  11.844  20.464  0.00  0.00    +0.000 C 
ATOM      2  C   UNL     1      -0.939  11.979  21.618  0.00  0.00    +0.000 C 
ATOM      3  C   UNL     1      -0.612  11.055  22.793  0.00  0.00    +0.000 C 
ATOM      4  C   UNL     1      -0.445   9.591  22.406  0.00  0.00    +0.000 C 
ATOM      5  C   UNL     1       0.408   9.359  21.183  0.00  0.00    +0.000 C 
ATOM      6  C   UNL     1       1.163   8.241  21.079  0.00  0.00    +0.000 C 
ATOM      7  C   UNL     1       1.809   7.905  19.862  0.00  0.00    +0.000 A 
ATOM      8  C   UNL     1       2.358   6.786  19.250  0.00  0.00    +0.000 A 
ATOM      9  N   UNL     1       2.966   7.131  18.055  0.00  0.00    +0.000 NA
ATOM     10  C   UNL     1       2.731   8.411  17.904  0.00  0.00    +0.000 A 
ATOM     11  N   UNL     1       1.972   8.890  18.920  0.00  0.00    +0.000 N 
ATOM     12  C   UNL     1       1.407  10.212  19.012  0.00  0.00    +0.000 C 
ATOM     13  C   UNL     1       0.203  10.324  19.989  0.00  0.00    +0.000 C 
ATOM     14  C   UNL     1      -1.076   9.769  19.313  0.00  0.00    +0.000 C 
ENDROOT
BRANCH   8  15
ATOM     15  C   UNL     1       2.313   5.403  19.688  0.00  0.00    +0.000 A 
ATOM     16  C   UNL     1       3.433   4.563  19.608  0.00  0.00    +0.000 A 
ATOM     17  C   UNL     1       3.364   3.252  20.083  0.00  0.00    +0.000 A 
ATOM     18  C   UNL     1       2.184   2.787  20.652  0.00  0.00    +0.000 A 
ATOM     19  F   UNL     1       2.124   1.529  21.109  0.00  0.00    +0.000 F 
ATOM     20  C   UNL     1       1.073   3.611  20.769  0.00  0.00    +0.000 A 
ATOM     21  C   UNL     1       1.141   4.921  20.292  0.00  0.00    +0.000 A 
ENDBRANCH   8  15
BRANCH   1  23
ATOM     22  C   UNL     1      -1.407  13.792  19.488  0.00  0.00    +0.000 C 
ATOM     23  C   UNL     1      -0.128  12.949  19.335  0.00  0.00    +0.000 C 
BRANCH  23  24
ATOM     24  C   UNL     1       1.098  13.869  19.142  0.00  0.00    +0.000 A 
ATOM     25  C   UNL     1       2.112  13.575  18.210  0.00  0.00    +0.000 A 
ATOM     26  C   UNL     1       3.288  14.328  18.145  0.00  0.00    +0.000 A 
ATOM     27  C   UNL     1       3.471  15.410  18.998  0.00  0.00    +0.000 A 
ATOM     28  C   UNL     1       2.469  15.751  19.902  0.00  0.00    +0.000 A 
ATOM     29  C   UNL     1       1.292  14.994  19.969  0.00  0.00    +0.000 A 
ENDBRANCH  23  24
BRANCH  23  30
ATOM     30  O   UNL     1      -0.294  12.276  18.074  0.00  0.00    +0.000 OA
ATOM     31  H   UNL     1      -0.328  12.959  17.380  0.00  0.00    +0.000 HD
ENDBRANCH  23  30
ENDBRANCH   1  23
TORSDOF 4
ENDMDL
