MODEL 1
REMARK VINA RESULT:      -7.2      0.000      0.000
REMARK  Name = 
REMARK  3 active torsions:
REMARK  status: ('A' for Active; 'I' for Inactive)
REMARK    1  A    between atoms: C_2  and  O_3
REMARK    2  A    between atoms: C_2  and  C_4
REMARK    3  A    between atoms: C_4  and  C_5
REMARK                            x       y       z     vdW  Elec       q    Type
REMARK                         _______ _______ _______ _____ _____    ______ ____
ROOT
ATOM      1  C   UNL     1       2.198   4.448  18.540  0.00  0.00    +0.000 A 
ATOM      2  C   UNL     1       1.734   4.439  19.866  0.00  0.00    +0.000 A 
ATOM      3  C   UNL     1       1.630   5.633  20.589  0.00  0.00    +0.000 A 
ATOM      4  C   UNL     1       1.971   6.844  19.989  0.00  0.00    +0.000 A 
ATOM      5  C   UNL     1       2.453   6.852  18.685  0.00  0.00    +0.000 A 
ATOM      6  C   UNL     1       2.562   5.669  17.956  0.00  0.00    +0.000 A 
ATOM      7  O   UNL     1       2.914   8.009  18.128  0.00  0.00    +0.000 OA
ATOM      8  C   UNL     1       1.822   8.869  17.808  0.00  0.00    +0.000 C 
ATOM      9  C   UNL     1       1.052   9.460  18.965  0.00  0.00    +0.000 A 
ATOM     10  C   UNL     1       0.178  10.524  18.664  0.00  0.00    +0.000 A 
ATOM     11  C   UNL     1      -0.577  11.146  19.661  0.00  0.00    +0.000 A 
ATOM     12  C   UNL     1      -0.466  10.717  20.977  0.00  0.00    +0.000 A 
ATOM     13  C   UNL     1       0.387   9.659  21.291  0.00  0.00    +0.000 A 
ATOM     14  C   UNL     1       1.128   9.012  20.291  0.00  0.00    +0.000 A 
ATOM     15  O   UNL     1       1.916   7.982  20.752  0.00  0.00    +0.000 OA
ENDROOT
BRANCH   1  16
ATOM     16  C   UNL     1       2.323   3.161  17.754  0.00  0.00    +0.000 C 
BRANCH  16  18
ATOM     17  O   UNL     1       3.596   1.246  18.440  0.00  0.00    +0.000 OA
ATOM     18  C   UNL     1       3.596   2.363  17.929  0.00  0.00    +0.000 C 
BRANCH  18  19
ATOM     19  O   UNL     1       4.745   2.934  17.515  0.00  0.00    +0.000 OA
ATOM     20  H   UNL     1       4.687   3.398  16.659  0.00  0.00    +0.000 HD
ENDBRANCH  18  19
ENDBRANCH  16  18
ENDBRANCH   1  16
TORSDOF 3
ENDMDL
MODEL 2
REMARK VINA RESULT:      -7.1      3.980      5.325
REMARK  Name = 
REMARK  3 active torsions:
REMARK  status: ('A' for Active; 'I' for Inactive)
REMARK    1  A    between atoms: C_2  and  O_3
REMARK    2  A    between atoms: C_2  and  C_4
REMARK    3  A    between atoms: C_4  and  C_5
REMARK                            x       y       z     vdW  Elec       q    Type
REMARK                         _______ _______ _______ _____ _____    ______ ____
ROOT
ATOM      1  C   UNL     1       6.240   5.333  16.435  0.00  0.00    +0.000 A 
ATOM      2  C   UNL     1       6.845   4.971  17.650  0.00  0.00    +0.000 A 
ATOM      3  C   UNL     1       6.099   4.945  18.834  0.00  0.00    +0.000 A 
ATOM      4  C   UNL     1       4.742   5.261  18.810  0.00  0.00    +0.000 A 
ATOM      5  C   UNL     1       4.147   5.642  17.613  0.00  0.00    +0.000 A 
ATOM      6  C   UNL     1       4.880   5.674  16.428  0.00  0.00    +0.000 A 
ATOM      7  O   UNL     1       2.855   6.081  17.595  0.00  0.00    +0.000 OA
ATOM      8  C   UNL     1       1.962   4.984  17.775  0.00  0.00    +0.000 C 
ATOM      9  C   UNL     1       1.960   4.315  19.129  0.00  0.00    +0.000 A 
ATOM     10  C   UNL     1       0.889   3.440  19.401  0.00  0.00    +0.000 A 
ATOM     11  C   UNL     1       0.788   2.775  20.625  0.00  0.00    +0.000 A 
ATOM     12  C   UNL     1       1.755   2.979  21.600  0.00  0.00    +0.000 A 
ATOM     13  C   UNL     1       2.827   3.833  21.345  0.00  0.00    +0.000 A 
ATOM     14  C   UNL     1       2.949   4.484  20.108  0.00  0.00    +0.000 A 
ATOM     15  O   UNL     1       4.064   5.286  20.001  0.00  0.00    +0.000 OA
ENDROOT
BRANCH   1  16
ATOM     16  C   UNL     1       7.041   5.373  15.152  0.00  0.00    +0.000 C 
BRANCH  16  18
ATOM     17  O   UNL     1       6.978   4.502  12.917  0.00  0.00    +0.000 OA
ATOM     18  C   UNL     1       6.730   4.325  14.107  0.00  0.00    +0.000 C 
BRANCH  18  19
ATOM     19  O   UNL     1       6.150   3.184  14.530  0.00  0.00    +0.000 OA
ATOM     20  H   UNL     1       5.176   3.172  14.469  0.00  0.00    +0.000 HD
ENDBRANCH  18  19
ENDBRANCH  16  18
ENDBRANCH   1  16
TORSDOF 3
ENDMDL
MODEL 3
REMARK VINA RESULT:      -7.0      0.877      1.120
REMARK  Name = 
REMARK  3 active torsions:
REMARK  status: ('A' for Active; 'I' for Inactive)
REMARK    1  A    between atoms: C_2  and  O_3
REMARK    2  A    between atoms: C_2  and  C_4
REMARK    3  A    between atoms: C_4  and  C_5
REMARK                            x       y       z     vdW  Elec       q    Type
REMARK                         _______ _______ _______ _____ _____    ______ ____
ROOT
ATOM      1  C   UNL     1       2.240   4.856  18.511  0.00  0.00    +0.000 A 
ATOM      2  C   UNL     1       1.834   4.793  19.854  0.00  0.00    +0.000 A 
ATOM      3  C   UNL     1       1.692   5.964  20.607  0.00  0.00    +0.000 A 
ATOM      4  C   UNL     1       1.935   7.205  20.021  0.00  0.00    +0.000 A 
ATOM      5  C   UNL     1       2.360   7.267  18.699  0.00  0.00    +0.000 A 
ATOM      6  C   UNL     1       2.507   6.108  17.940  0.00  0.00    +0.000 A 
ATOM      7  O   UNL     1       2.729   8.460  18.149  0.00  0.00    +0.000 OA
ATOM      8  C   UNL     1       1.576   9.261  17.894  0.00  0.00    +0.000 C 
ATOM      9  C   UNL     1       0.823   9.782  19.095  0.00  0.00    +0.000 A 
ATOM     10  C   UNL     1      -0.124  10.798  18.856  0.00  0.00    +0.000 A 
ATOM     11  C   UNL     1      -0.871  11.354  19.896  0.00  0.00    +0.000 A 
ATOM     12  C   UNL     1      -0.679  10.906  21.196  0.00  0.00    +0.000 A 
ATOM     13  C   UNL     1       0.247   9.895  21.451  0.00  0.00    +0.000 A 
ATOM     14  C   UNL     1       0.981   9.313  20.407  0.00  0.00    +0.000 A 
ATOM     15  O   UNL     1       1.847   8.321  20.812  0.00  0.00    +0.000 OA
ENDROOT
BRANCH   1  16
ATOM     16  C   UNL     1       2.406   3.595  17.692  0.00  0.00    +0.000 C 
BRANCH  16  18
ATOM     17  O   UNL     1       0.597   2.172  18.373  0.00  0.00    +0.000 OA
ATOM     18  C   UNL     1       1.810   2.322  18.251  0.00  0.00    +0.000 C 
BRANCH  18  19
ATOM     19  O   UNL     1       2.668   1.353  18.631  0.00  0.00    +0.000 OA
ATOM     20  H   UNL     1       3.344   1.633  19.275  0.00  0.00    +0.000 HD
ENDBRANCH  18  19
ENDBRANCH  16  18
ENDBRANCH   1  16
TORSDOF 3
ENDMDL
MODEL 4
REMARK VINA RESULT:      -7.0      1.956      6.704
REMARK  Name = 
REMARK  3 active torsions:
REMARK  status: ('A' for Active; 'I' for Inactive)
REMARK    1  A    between atoms: C_2  and  O_3
REMARK    2  A    between atoms: C_2  and  C_4
REMARK    3  A    between atoms: C_4  and  C_5
REMARK                            x       y       z     vdW  Elec       q    Type
REMARK                         _______ _______ _______ _____ _____    ______ ____
ROOT
ATOM      1  C   UNL     1       1.177   9.580  19.144  0.00  0.00    +0.000 A 
ATOM      2  C   UNL     1       1.815   9.353  17.913  0.00  0.00    +0.000 A 
ATOM      3  C   UNL     1       2.519   8.165  17.687  0.00  0.00    +0.000 A 
ATOM      4  C   UNL     1       2.575   7.188  18.680  0.00  0.00    +0.000 A 
ATOM      5  C   UNL     1       1.965   7.421  19.907  0.00  0.00    +0.000 A 
ATOM      6  C   UNL     1       1.263   8.602  20.144  0.00  0.00    +0.000 A 
ATOM      7  O   UNL     1       2.120   6.536  20.933  0.00  0.00    +0.000 OA
ATOM      8  C   UNL     1       1.349   5.361  20.689  0.00  0.00    +0.000 C 
ATOM      9  C   UNL     1       1.791   4.474  19.549  0.00  0.00    +0.000 A 
ATOM     10  C   UNL     1       1.223   3.186  19.493  0.00  0.00    +0.000 A 
ATOM     11  C   UNL     1       1.567   2.284  18.484  0.00  0.00    +0.000 A 
ATOM     12  C   UNL     1       2.490   2.655  17.516  0.00  0.00    +0.000 A 
ATOM     13  C   UNL     1       3.056   3.929  17.550  0.00  0.00    +0.000 A 
ATOM     14  C   UNL     1       2.695   4.849  18.545  0.00  0.00    +0.000 A 
ATOM     15  O   UNL     1       3.328   6.067  18.442  0.00  0.00    +0.000 OA
ENDROOT
BRANCH   1  16
ATOM     16  C   UNL     1       0.423  10.866  19.400  0.00  0.00    +0.000 C 
BRANCH  16  18
ATOM     17  O   UNL     1      -1.711  10.376  18.415  0.00  0.00    +0.000 OA
ATOM     18  C   UNL     1      -0.769  11.159  18.515  0.00  0.00    +0.000 C 
BRANCH  18  19
ATOM     19  O   UNL     1      -0.753  12.314  17.818  0.00  0.00    +0.000 OA
ATOM     20  H   UNL     1       0.081  12.816  17.876  0.00  0.00    +0.000 HD
ENDBRANCH  18  19
ENDBRANCH  16  18
ENDBRANCH   1  16
TORSDOF 3
ENDMDL
MODEL 5
REMARK VINA RESULT:      -6.9      3.654      5.804
REMARK  Name = 
REMARK  3 active torsions:
REMARK  status: ('A' for Active; 'I' for Inactive)
REMARK    1  A    between atoms: C_2  and  O_3
REMARK    2  A    between atoms: C_2  and  C_4
REMARK    3  A    between atoms: C_4  and  C_5
REMARK                            x       y       z     vdW  Elec       q    Type
REMARK                         _______ _______ _______ _____ _____    ______ ____
ROOT
ATOM      1  C   UNL     1       6.155   4.971  16.072  0.00  0.00    +0.000 A 
ATOM      2  C   UNL     1       5.987   6.064  16.940  0.00  0.00    +0.000 A 
ATOM      3  C   UNL     1       4.827   6.184  17.713  0.00  0.00    +0.000 A 
ATOM      4  C   UNL     1       3.836   5.207  17.640  0.00  0.00    +0.000 A 
ATOM      5  C   UNL     1       3.989   4.138  16.765  0.00  0.00    +0.000 A 
ATOM      6  C   UNL     1       5.139   4.009  15.988  0.00  0.00    +0.000 A 
ATOM      7  O   UNL     1       2.974   3.245  16.583  0.00  0.00    +0.000 OA
ATOM      8  C   UNL     1       2.861   2.392  17.721  0.00  0.00    +0.000 C 
ATOM      9  C   UNL     1       2.386   3.025  19.008  0.00  0.00    +0.000 A 
ATOM     10  C   UNL     1       1.996   2.145  20.038  0.00  0.00    +0.000 A 
ATOM     11  C   UNL     1       1.536   2.625  21.266  0.00  0.00    +0.000 A 
ATOM     12  C   UNL     1       1.453   3.994  21.482  0.00  0.00    +0.000 A 
ATOM     13  C   UNL     1       1.844   4.879  20.478  0.00  0.00    +0.000 A 
ATOM     14  C   UNL     1       2.333   4.404  19.252  0.00  0.00    +0.000 A 
ATOM     15  O   UNL     1       2.688   5.396  18.365  0.00  0.00    +0.000 OA
ENDROOT
BRANCH   1  16
ATOM     16  C   UNL     1       7.401   4.839  15.225  0.00  0.00    +0.000 C 
BRANCH  16  18
ATOM     17  O   UNL     1       6.481   4.000  13.173  0.00  0.00    +0.000 OA
ATOM     18  C   UNL     1       7.220   4.812  13.723  0.00  0.00    +0.000 C 
BRANCH  18  19
ATOM     19  O   UNL     1       7.918   5.712  13.001  0.00  0.00    +0.000 OA
ATOM     20  H   UNL     1       8.348   5.351  12.202  0.00  0.00    +0.000 HD
ENDBRANCH  18  19
ENDBRANCH  16  18
ENDBRANCH   1  16
TORSDOF 3
ENDMDL
MODEL 6
REMARK VINA RESULT:      -6.9      3.686      6.209
REMARK  Name = 
REMARK  3 active torsions:
REMARK  status: ('A' for Active; 'I' for Inactive)
REMARK    1  A    between atoms: C_2  and  O_3
REMARK    2  A    between atoms: C_2  and  C_4
REMARK    3  A    between atoms: C_4  and  C_5
REMARK                            x       y       z     vdW  Elec       q    Type
REMARK                         _______ _______ _______ _____ _____    ______ ____
ROOT
ATOM      1  C   UNL     1       6.135   6.602  17.212  0.00  0.00    +0.000 A 
ATOM      2  C   UNL     1       4.918   7.304  17.243  0.00  0.00    +0.000 A 
ATOM      3  C   UNL     1       3.721   6.635  17.521  0.00  0.00    +0.000 A 
ATOM      4  C   UNL     1       3.731   5.267  17.787  0.00  0.00    +0.000 A 
ATOM      5  C   UNL     1       4.931   4.567  17.733  0.00  0.00    +0.000 A 
ATOM      6  C   UNL     1       6.129   5.221  17.455  0.00  0.00    +0.000 A 
ATOM      7  O   UNL     1       4.942   3.208  17.860  0.00  0.00    +0.000 OA
ATOM      8  C   UNL     1       4.703   2.840  19.217  0.00  0.00    +0.000 C 
ATOM      9  C   UNL     1       3.324   3.113  19.770  0.00  0.00    +0.000 A 
ATOM     10  C   UNL     1       2.999   2.493  20.993  0.00  0.00    +0.000 A 
ATOM     11  C   UNL     1       1.749   2.674  21.588  0.00  0.00    +0.000 A 
ATOM     12  C   UNL     1       0.801   3.475  20.967  0.00  0.00    +0.000 A 
ATOM     13  C   UNL     1       1.108   4.105  19.761  0.00  0.00    +0.000 A 
ATOM     14  C   UNL     1       2.371   3.949  19.171  0.00  0.00    +0.000 A 
ATOM     15  O   UNL     1       2.530   4.639  17.990  0.00  0.00    +0.000 OA
ENDROOT
BRANCH   1  16
ATOM     16  C   UNL     1       7.433   7.315  16.903  0.00  0.00    +0.000 C 
BRANCH  16  18
ATOM     17  O   UNL     1       8.115   9.339  17.998  0.00  0.00    +0.000 OA
ATOM     18  C   UNL     1       8.070   8.112  18.021  0.00  0.00    +0.000 C 
BRANCH  18  19
ATOM     19  O   UNL     1       8.606   7.419  19.046  0.00  0.00    +0.000 OA
ATOM     20  H   UNL     1       9.121   7.955  19.678  0.00  0.00    +0.000 HD
ENDBRANCH  18  19
ENDBRANCH  16  18
ENDBRANCH   1  16
TORSDOF 3
ENDMDL
MODEL 7
REMARK VINA RESULT:      -6.9      1.725      6.806
REMARK  Name = 
REMARK  3 active torsions:
REMARK  status: ('A' for Active; 'I' for Inactive)
REMARK    1  A    between atoms: C_2  and  O_3
REMARK    2  A    between atoms: C_2  and  C_4
REMARK    3  A    between atoms: C_4  and  C_5
REMARK                            x       y       z     vdW  Elec       q    Type
REMARK                         _______ _______ _______ _____ _____    ______ ____
ROOT
ATOM      1  C   UNL     1       1.015   9.626  19.456  0.00  0.00    +0.000 A 
ATOM      2  C   UNL     1       1.583   9.485  18.178  0.00  0.00    +0.000 A 
ATOM      3  C   UNL     1       2.311   8.337  17.849  0.00  0.00    +0.000 A 
ATOM      4  C   UNL     1       2.463   7.314  18.784  0.00  0.00    +0.000 A 
ATOM      5  C   UNL     1       1.922   7.463  20.056  0.00  0.00    +0.000 A 
ATOM      6  C   UNL     1       1.197   8.603  20.396  0.00  0.00    +0.000 A 
ATOM      7  O   UNL     1       2.172   6.534  21.024  0.00  0.00    +0.000 OA
ATOM      8  C   UNL     1       1.427   5.345  20.766  0.00  0.00    +0.000 C 
ATOM      9  C   UNL     1       1.828   4.533  19.556  0.00  0.00    +0.000 A 
ATOM     10  C   UNL     1       1.301   3.229  19.468  0.00  0.00    +0.000 A 
ATOM     11  C   UNL     1       1.612   2.392  18.394  0.00  0.00    +0.000 A 
ATOM     12  C   UNL     1       2.460   2.845  17.393  0.00  0.00    +0.000 A 
ATOM     13  C   UNL     1       2.983   4.136  17.459  0.00  0.00    +0.000 A 
ATOM     14  C   UNL     1       2.654   4.991  18.520  0.00  0.00    +0.000 A 
ATOM     15  O   UNL     1       3.237   6.236  18.443  0.00  0.00    +0.000 OA
ENDROOT
BRANCH   1  16
ATOM     16  C   UNL     1       0.235  10.869  19.823  0.00  0.00    +0.000 C 
BRANCH  16  18
ATOM     17  O   UNL     1       1.660  12.390  21.013  0.00  0.00    +0.000 OA
ATOM     18  C   UNL     1       0.689  11.638  21.044  0.00  0.00    +0.000 C 
BRANCH  18  19
ATOM     19  O   UNL     1      -0.005  11.453  22.186  0.00  0.00    +0.000 OA
ATOM     20  H   UNL     1      -0.791  10.882  22.099  0.00  0.00    +0.000 HD
ENDBRANCH  18  19
ENDBRANCH  16  18
ENDBRANCH   1  16
TORSDOF 3
ENDMDL
MODEL 8
REMARK VINA RESULT:      -6.8      1.881      6.792
REMARK  Name = 
REMARK  3 active torsions:
REMARK  status: ('A' for Active; 'I' for Inactive)
REMARK    1  A    between atoms: C_2  and  O_3
REMARK    2  A    between atoms: C_2  and  C_4
REMARK    3  A    between atoms: C_4  and  C_5
REMARK                            x       y       z     vdW  Elec       q    Type
REMARK                         _______ _______ _______ _____ _____    ______ ____
ROOT
ATOM      1  C   UNL     1       1.207   9.575  19.132  0.00  0.00    +0.000 A 
ATOM      2  C   UNL     1       1.841   9.344  17.900  0.00  0.00    +0.000 A 
ATOM      3  C   UNL     1       2.536   8.152  17.674  0.00  0.00    +0.000 A 
ATOM      4  C   UNL     1       2.589   7.175  18.667  0.00  0.00    +0.000 A 
ATOM      5  C   UNL     1       1.983   7.412  19.895  0.00  0.00    +0.000 A 
ATOM      6  C   UNL     1       1.289   8.597  20.133  0.00  0.00    +0.000 A 
ATOM      7  O   UNL     1       2.135   6.526  20.921  0.00  0.00    +0.000 OA
ATOM      8  C   UNL     1       1.356   5.356  20.680  0.00  0.00    +0.000 C 
ATOM      9  C   UNL     1       1.791   4.466  19.539  0.00  0.00    +0.000 A 
ATOM     10  C   UNL     1       1.214   3.181  19.485  0.00  0.00    +0.000 A 
ATOM     11  C   UNL     1       1.551   2.277  18.476  0.00  0.00    +0.000 A 
ATOM     12  C   UNL     1       2.474   2.642  17.505  0.00  0.00    +0.000 A 
ATOM     13  C   UNL     1       3.048   3.912  17.538  0.00  0.00    +0.000 A 
ATOM     14  C   UNL     1       2.694   4.835  18.533  0.00  0.00    +0.000 A 
ATOM     15  O   UNL     1       3.335   6.050  18.428  0.00  0.00    +0.000 OA
ENDROOT
BRANCH   1  16
ATOM     16  C   UNL     1       0.460  10.866  19.389  0.00  0.00    +0.000 C 
BRANCH  16  18
ATOM     17  O   UNL     1       1.895  12.655  20.097  0.00  0.00    +0.000 OA
ATOM     18  C   UNL     1       1.223  12.158  19.197  0.00  0.00    +0.000 C 
BRANCH  18  19
ATOM     19  O   UNL     1       1.126  12.761  17.994  0.00  0.00    +0.000 OA
ATOM     20  H   UNL     1       1.972  12.877  17.524  0.00  0.00    +0.000 HD
ENDBRANCH  18  19
ENDBRANCH  16  18
ENDBRANCH   1  16
TORSDOF 3
ENDMDL
MODEL 9
REMARK VINA RESULT:      -6.7      4.732      6.447
REMARK  Name = 
REMARK  3 active torsions:
REMARK  status: ('A' for Active; 'I' for Inactive)
REMARK    1  A    between atoms: C_2  and  O_3
REMARK    2  A    between atoms: C_2  and  C_4
REMARK    3  A    between atoms: C_4  and  C_5
REMARK                            x       y       z     vdW  Elec       q    Type
REMARK                         _______ _______ _______ _____ _____    ______ ____
ROOT
ATOM      1  C   UNL     1       6.617   6.043  16.918  0.00  0.00    +0.000 A 
ATOM      2  C   UNL     1       5.658   5.809  15.918  0.00  0.00    +0.000 A 
ATOM      3  C   UNL     1       4.671   4.833  16.096  0.00  0.00    +0.000 A 
ATOM      4  C   UNL     1       4.623   4.098  17.279  0.00  0.00    +0.000 A 
ATOM      5  C   UNL     1       5.585   4.311  18.260  0.00  0.00    +0.000 A 
ATOM      6  C   UNL     1       6.574   5.279  18.093  0.00  0.00    +0.000 A 
ATOM      7  O   UNL     1       5.632   3.512  19.365  0.00  0.00    +0.000 OA
ATOM      8  C   UNL     1       4.557   3.829  20.247  0.00  0.00    +0.000 C 
ATOM      9  C   UNL     1       3.162   3.493  19.776  0.00  0.00    +0.000 A 
ATOM     10  C   UNL     1       2.141   3.530  20.748  0.00  0.00    +0.000 A 
ATOM     11  C   UNL     1       0.817   3.230  20.421  0.00  0.00    +0.000 A 
ATOM     12  C   UNL     1       0.493   2.882  19.117  0.00  0.00    +0.000 A 
ATOM     13  C   UNL     1       1.488   2.849  18.140  0.00  0.00    +0.000 A 
ATOM     14  C   UNL     1       2.815   3.175  18.456  0.00  0.00    +0.000 A 
ATOM     15  O   UNL     1       3.681   3.108  17.387  0.00  0.00    +0.000 OA
ENDROOT
BRANCH   1  16
ATOM     16  C   UNL     1       7.694   7.089  16.730  0.00  0.00    +0.000 C 
BRANCH  16  18
ATOM     17  O   UNL     1       7.567   9.219  17.829  0.00  0.00    +0.000 OA
ATOM     18  C   UNL     1       7.936   8.048  17.874  0.00  0.00    +0.000 C 
BRANCH  18  19
ATOM     19  O   UNL     1       8.595   7.572  18.951  0.00  0.00    +0.000 OA
ATOM     20  H   UNL     1       9.484   7.949  19.087  0.00  0.00    +0.000 HD
ENDBRANCH  18  19
ENDBRANCH  16  18
ENDBRANCH   1  16
TORSDOF 3
ENDMDL
