MODEL 1
REMARK VINA RESULT:      -7.6      0.000      0.000
REMARK  Name = 
REMARK  7 active torsions:
REMARK  status: ('A' for Active; 'I' for Inactive)
REMARK    1  A    between atoms: N_1  and  C_2
REMARK    2  A    between atoms: C_7  and  C_8
REMARK    3  A    between atoms: C_10  and  C_11
REMARK    4  A    between atoms: C_11  and  C_12
REMARK    5  A    between atoms: C_15  and  O_16
REMARK    6  A    between atoms: O_16  and  C_17
REMARK    7  A    between atoms: C_17  and  C_18
REMARK                            x       y       z     vdW  Elec       q    Type
REMARK                         _______ _______ _______ _____ _____    ______ ____
ROOT
ATOM      1  C   UNL     1       5.079   5.087  17.431  0.00  0.00    +0.000 A 
ATOM      2  C   UNL     1       3.743   5.065  17.756  0.00  0.00    +0.000 A 
ATOM      3  C   UNL     1       3.702   5.352  19.141  0.00  0.00    +0.000 A 
ATOM      4  N   UNL     1       4.940   5.474  19.641  0.00  0.00    +0.000 NA
ATOM      5  O   UNL     1       5.799   5.311  18.567  0.00  0.00    +0.000 OA
ENDROOT
BRANCH   1  11
ATOM      6  C   UNL     1       6.993   5.610  15.882  0.00  0.00    +0.000 A 
ATOM      7  N   UNL     1       7.621   5.503  14.692  0.00  0.00    +0.000 NA
ATOM      8  C   UNL     1       7.078   4.684  13.764  0.00  0.00    +0.000 A 
ATOM      9  C   UNL     1       5.938   3.934  13.978  0.00  0.00    +0.000 A 
ATOM     10  C   UNL     1       5.304   4.048  15.208  0.00  0.00    +0.000 A 
ATOM     11  C   UNL     1       5.815   4.912  16.188  0.00  0.00    +0.000 A 
BRANCH   6  12
ATOM     12  N   UNL     1       7.556   6.550  16.744  0.00  0.00    +0.000 N 
ATOM     13  H   UNL     1       7.648   7.422  16.232  0.00  0.00    +0.000 HD
ATOM     14  H   UNL     1       8.430   6.229  17.145  0.00  0.00    +0.000 HD
ENDBRANCH   6  12
ENDBRANCH   1  11
BRANCH   3  15
ATOM     15  C   UNL     1       2.514   5.455  20.036  0.00  0.00    +0.000 C 
BRANCH  15  16
ATOM     16  C   UNL     1       2.023   6.877  19.975  0.00  0.00    +0.000 A 
ATOM     17  C   UNL     1       1.353   7.477  21.046  0.00  0.00    +0.000 A 
ATOM     18  C   UNL     1       0.885   8.786  20.926  0.00  0.00    +0.000 A 
ATOM     19  C   UNL     1       1.094   9.452  19.729  0.00  0.00    +0.000 A 
ATOM     20  N   UNL     1       1.753   8.914  18.683  0.00  0.00    +0.000 NA
ATOM     21  C   UNL     1       2.201   7.648  18.830  0.00  0.00    +0.000 A 
BRANCH  19  22
ATOM     22  O   UNL     1       0.601  10.740  19.637  0.00  0.00    +0.000 OA
BRANCH  22  23
ATOM     23  C   UNL     1      -0.827  10.765  19.574  0.00  0.00    +0.000 C 
BRANCH  23  24
ATOM     24  C   UNL     1      -1.247  11.028  18.157  0.00  0.00    +0.000 C 
ATOM     25  C   UNL     1      -1.745   9.912  17.276  0.00  0.00    +0.000 C 
ATOM     26  C   UNL     1      -2.708  10.949  17.784  0.00  0.00    +0.000 C 
ENDBRANCH  23  24
ENDBRANCH  22  23
ENDBRANCH  19  22
ENDBRANCH  15  16
ENDBRANCH   3  15
TORSDOF 7
ENDMDL
MODEL 2
REMARK VINA RESULT:      -7.5      0.687      1.091
REMARK  Name = 
REMARK  7 active torsions:
REMARK  status: ('A' for Active; 'I' for Inactive)
REMARK    1  A    between atoms: N_1  and  C_2
REMARK    2  A    between atoms: C_7  and  C_8
REMARK    3  A    between atoms: C_10  and  C_11
REMARK    4  A    between atoms: C_11  and  C_12
REMARK    5  A    between atoms: C_15  and  O_16
REMARK    6  A    between atoms: O_16  and  C_17
REMARK    7  A    between atoms: C_17  and  C_18
REMARK                            x       y       z     vdW  Elec       q    Type
REMARK                         _______ _______ _______ _____ _____    ______ ____
ROOT
ATOM      1  C   UNL     1       5.094   5.229  17.425  0.00  0.00    +0.000 A 
ATOM      2  C   UNL     1       3.772   5.480  17.705  0.00  0.00    +0.000 A 
ATOM      3  C   UNL     1       3.726   5.655  19.108  0.00  0.00    +0.000 A 
ATOM      4  N   UNL     1       4.933   5.455  19.655  0.00  0.00    +0.000 NA
ATOM      5  O   UNL     1       5.788   5.192  18.598  0.00  0.00    +0.000 OA
ENDROOT
BRANCH   1  11
ATOM      6  C   UNL     1       7.007   5.687  15.853  0.00  0.00    +0.000 A 
ATOM      7  N   UNL     1       7.638   5.523  14.671  0.00  0.00    +0.000 NA
ATOM      8  C   UNL     1       7.105   4.651  13.788  0.00  0.00    +0.000 A 
ATOM      9  C   UNL     1       5.972   3.902  14.040  0.00  0.00    +0.000 A 
ATOM     10  C   UNL     1       5.335   4.074  15.260  0.00  0.00    +0.000 A 
ATOM     11  C   UNL     1       5.835   4.995  16.194  0.00  0.00    +0.000 A 
BRANCH   6  12
ATOM     12  N   UNL     1       7.558   6.677  16.664  0.00  0.00    +0.000 N 
ATOM     13  H   UNL     1       6.912   6.844  17.430  0.00  0.00    +0.000 HD
ATOM     14  H   UNL     1       7.786   7.518  16.145  0.00  0.00    +0.000 HD
ENDBRANCH   6  12
ENDBRANCH   1  11
BRANCH   3  15
ATOM     15  C   UNL     1       2.547   5.949  19.972  0.00  0.00    +0.000 C 
BRANCH  15  16
ATOM     16  C   UNL     1       2.054   7.326  19.613  0.00  0.00    +0.000 A 
ATOM     17  C   UNL     1       2.207   7.857  18.328  0.00  0.00    +0.000 A 
ATOM     18  C   UNL     1       1.766   9.152  18.057  0.00  0.00    +0.000 A 
ATOM     19  C   UNL     1       1.191   9.881  19.085  0.00  0.00    +0.000 A 
ATOM     20  N   UNL     1       1.007   9.395  20.329  0.00  0.00    +0.000 NA
ATOM     21  C   UNL     1       1.437   8.136  20.563  0.00  0.00    +0.000 A 
BRANCH  19  22
ATOM     22  O   UNL     1       0.781  11.167  18.786  0.00  0.00    +0.000 OA
BRANCH  22  23
ATOM     23  C   UNL     1      -0.563  11.413  19.204  0.00  0.00    +0.000 C 
BRANCH  23  24
ATOM     24  C   UNL     1      -1.455  11.412  17.997  0.00  0.00    +0.000 C 
ATOM     25  C   UNL     1      -2.095  10.139  17.506  0.00  0.00    +0.000 C 
ATOM     26  C   UNL     1      -2.940  11.194  18.166  0.00  0.00    +0.000 C 
ENDBRANCH  23  24
ENDBRANCH  22  23
ENDBRANCH  19  22
ENDBRANCH  15  16
ENDBRANCH   3  15
TORSDOF 7
ENDMDL
MODEL 3
REMARK VINA RESULT:      -7.4      4.587      6.805
REMARK  Name = 
REMARK  7 active torsions:
REMARK  status: ('A' for Active; 'I' for Inactive)
REMARK    1  A    between atoms: N_1  and  C_2
REMARK    2  A    between atoms: C_7  and  C_8
REMARK    3  A    between atoms: C_10  and  C_11
REMARK    4  A    between atoms: C_11  and  C_12
REMARK    5  A    between atoms: C_15  and  O_16
REMARK    6  A    between atoms: O_16  and  C_17
REMARK    7  A    between atoms: C_17  and  C_18
REMARK                            x       y       z     vdW  Elec       q    Type
REMARK                         _______ _______ _______ _____ _____    ______ ____
ROOT
ATOM      1  C   UNL     1       8.633   9.409  18.453  0.00  0.00    +0.000 A 
ATOM      2  C   UNL     1       7.858   8.932  17.422  0.00  0.00    +0.000 A 
ATOM      3  C   UNL     1       7.705   7.552  17.694  0.00  0.00    +0.000 A 
ATOM      4  N   UNL     1       8.401   7.199  18.784  0.00  0.00    +0.000 NA
ATOM      5  O   UNL     1       8.978   8.365  19.258  0.00  0.00    +0.000 OA
ENDROOT
BRANCH   1  11
ATOM      6  C   UNL     1       9.342  11.148  20.130  0.00  0.00    +0.000 A 
ATOM      7  N   UNL     1       9.724  12.402  20.451  0.00  0.00    +0.000 NA
ATOM      8  C   UNL     1       9.909  13.282  19.443  0.00  0.00    +0.000 A 
ATOM      9  C   UNL     1       9.757  12.961  18.108  0.00  0.00    +0.000 A 
ATOM     10  C   UNL     1       9.369  11.667  17.789  0.00  0.00    +0.000 A 
ATOM     11  C   UNL     1       9.133  10.730  18.807  0.00  0.00    +0.000 A 
BRANCH   6  12
ATOM     12  N   UNL     1       9.072  10.332  21.228  0.00  0.00    +0.000 N 
ATOM     13  H   UNL     1       9.373   9.391  20.995  0.00  0.00    +0.000 HD
ATOM     14  H   UNL     1       8.100  10.380  21.513  0.00  0.00    +0.000 HD
ENDBRANCH   6  12
ENDBRANCH   1  11
BRANCH   3  15
ATOM     15  C   UNL     1       6.961   6.525  16.910  0.00  0.00    +0.000 C 
BRANCH  15  16
ATOM     16  C   UNL     1       5.656   6.273  17.616  0.00  0.00    +0.000 A 
ATOM     17  C   UNL     1       5.491   5.214  18.515  0.00  0.00    +0.000 A 
ATOM     18  C   UNL     1       4.249   5.002  19.115  0.00  0.00    +0.000 A 
ATOM     19  C   UNL     1       3.206   5.853  18.789  0.00  0.00    +0.000 A 
ATOM     20  N   UNL     1       3.333   6.897  17.944  0.00  0.00    +0.000 NA
ATOM     21  C   UNL     1       4.547   7.083  17.383  0.00  0.00    +0.000 A 
BRANCH  19  22
ATOM     22  O   UNL     1       1.985   5.603  19.388  0.00  0.00    +0.000 OA
BRANCH  22  23
ATOM     23  C   UNL     1       2.133   5.051  20.698  0.00  0.00    +0.000 C 
BRANCH  23  24
ATOM     24  C   UNL     1       1.229   3.860  20.829  0.00  0.00    +0.000 C 
ATOM     25  C   UNL     1       1.546   2.565  20.126  0.00  0.00    +0.000 C 
ATOM     26  C   UNL     1       1.689   2.658  21.620  0.00  0.00    +0.000 C 
ENDBRANCH  23  24
ENDBRANCH  22  23
ENDBRANCH  19  22
ENDBRANCH  15  16
ENDBRANCH   3  15
TORSDOF 7
ENDMDL
MODEL 4
REMARK VINA RESULT:      -7.4      1.352      1.850
REMARK  Name = 
REMARK  7 active torsions:
REMARK  status: ('A' for Active; 'I' for Inactive)
REMARK    1  A    between atoms: N_1  and  C_2
REMARK    2  A    between atoms: C_7  and  C_8
REMARK    3  A    between atoms: C_10  and  C_11
REMARK    4  A    between atoms: C_11  and  C_12
REMARK    5  A    between atoms: C_15  and  O_16
REMARK    6  A    between atoms: O_16  and  C_17
REMARK    7  A    between atoms: C_17  and  C_18
REMARK                            x       y       z     vdW  Elec       q    Type
REMARK                         _______ _______ _______ _____ _____    ______ ____
ROOT
ATOM      1  C   UNL     1       5.341   4.268  16.303  0.00  0.00    +0.000 A 
ATOM      2  C   UNL     1       4.003   4.117  16.586  0.00  0.00    +0.000 A 
ATOM      3  C   UNL     1       3.929   4.118  17.999  0.00  0.00    +0.000 A 
ATOM      4  N   UNL     1       5.152   4.196  18.542  0.00  0.00    +0.000 NA
ATOM      5  O   UNL     1       6.033   4.293  17.478  0.00  0.00    +0.000 OA
ENDROOT
BRANCH   1  11
ATOM      6  C   UNL     1       7.183   5.260  14.904  0.00  0.00    +0.000 A 
ATOM      7  N   UNL     1       7.827   5.419  13.728  0.00  0.00    +0.000 NA
ATOM      8  C   UNL     1       7.399   4.693  12.672  0.00  0.00    +0.000 A 
ATOM      9  C   UNL     1       6.363   3.782  12.738  0.00  0.00    +0.000 A 
ATOM     10  C   UNL     1       5.712   3.623  13.954  0.00  0.00    +0.000 A 
ATOM     11  C   UNL     1       6.102   4.382  15.068  0.00  0.00    +0.000 A 
BRANCH   6  12
ATOM     12  N   UNL     1       7.615   6.118  15.914  0.00  0.00    +0.000 N 
ATOM     13  H   UNL     1       6.796   6.423  16.431  0.00  0.00    +0.000 HD
ATOM     14  H   UNL     1       8.169   6.888  15.555  0.00  0.00    +0.000 HD
ENDBRANCH   6  12
ENDBRANCH   1  11
BRANCH   3  15
ATOM     15  C   UNL     1       2.726   3.982  18.868  0.00  0.00    +0.000 C 
BRANCH  15  16
ATOM     16  C   UNL     1       2.337   5.364  19.322  0.00  0.00    +0.000 A 
ATOM     17  C   UNL     1       2.557   6.495  18.529  0.00  0.00    +0.000 A 
ATOM     18  C   UNL     1       2.212   7.758  19.011  0.00  0.00    +0.000 A 
ATOM     19  C   UNL     1       1.664   7.851  20.280  0.00  0.00    +0.000 A 
ATOM     20  N   UNL     1       1.417   6.782  21.064  0.00  0.00    +0.000 NA
ATOM     21  C   UNL     1       1.755   5.571  20.570  0.00  0.00    +0.000 A 
BRANCH  19  22
ATOM     22  O   UNL     1       1.351   9.118  20.734  0.00  0.00    +0.000 OA
BRANCH  22  23
ATOM     23  C   UNL     1      -0.052   9.383  20.661  0.00  0.00    +0.000 C 
BRANCH  23  24
ATOM     24  C   UNL     1      -0.283  10.522  19.711  0.00  0.00    +0.000 C 
ATOM     25  C   UNL     1      -0.301  10.298  18.221  0.00  0.00    +0.000 C 
ATOM     26  C   UNL     1      -1.583  10.603  18.946  0.00  0.00    +0.000 C 
ENDBRANCH  23  24
ENDBRANCH  22  23
ENDBRANCH  19  22
ENDBRANCH  15  16
ENDBRANCH   3  15
TORSDOF 7
ENDMDL
MODEL 5
REMARK VINA RESULT:      -7.3      1.164      1.590
REMARK  Name = 
REMARK  7 active torsions:
REMARK  status: ('A' for Active; 'I' for Inactive)
REMARK    1  A    between atoms: N_1  and  C_2
REMARK    2  A    between atoms: C_7  and  C_8
REMARK    3  A    between atoms: C_10  and  C_11
REMARK    4  A    between atoms: C_11  and  C_12
REMARK    5  A    between atoms: C_15  and  O_16
REMARK    6  A    between atoms: O_16  and  C_17
REMARK    7  A    between atoms: C_17  and  C_18
REMARK                            x       y       z     vdW  Elec       q    Type
REMARK                         _______ _______ _______ _____ _____    ______ ____
ROOT
ATOM      1  C   UNL     1       5.339   4.244  16.267  0.00  0.00    +0.000 A 
ATOM      2  C   UNL     1       3.997   4.120  16.541  0.00  0.00    +0.000 A 
ATOM      3  C   UNL     1       3.915   4.106  17.953  0.00  0.00    +0.000 A 
ATOM      4  N   UNL     1       5.137   4.150  18.504  0.00  0.00    +0.000 NA
ATOM      5  O   UNL     1       6.025   4.240  17.445  0.00  0.00    +0.000 OA
ENDROOT
BRANCH   1  11
ATOM      6  C   UNL     1       7.191   5.234  14.879  0.00  0.00    +0.000 A 
ATOM      7  N   UNL     1       7.843   5.390  13.707  0.00  0.00    +0.000 NA
ATOM      8  C   UNL     1       7.424   4.661  12.650  0.00  0.00    +0.000 A 
ATOM      9  C   UNL     1       6.388   3.749  12.711  0.00  0.00    +0.000 A 
ATOM     10  C   UNL     1       5.728   3.593  13.922  0.00  0.00    +0.000 A 
ATOM     11  C   UNL     1       6.109   4.355  15.037  0.00  0.00    +0.000 A 
BRANCH   6  12
ATOM     12  N   UNL     1       7.615   6.095  15.890  0.00  0.00    +0.000 N 
ATOM     13  H   UNL     1       8.075   6.885  15.449  0.00  0.00    +0.000 HD
ATOM     14  H   UNL     1       8.197   5.626  16.576  0.00  0.00    +0.000 HD
ENDBRANCH   6  12
ENDBRANCH   1  11
BRANCH   3  15
ATOM     15  C   UNL     1       2.704   3.988  18.815  0.00  0.00    +0.000 C 
BRANCH  15  16
ATOM     16  C   UNL     1       2.346   5.372  19.285  0.00  0.00    +0.000 A 
ATOM     17  C   UNL     1       1.784   5.605  20.545  0.00  0.00    +0.000 A 
ATOM     18  C   UNL     1       1.434   6.903  20.919  0.00  0.00    +0.000 A 
ATOM     19  C   UNL     1       1.652   7.930  20.014  0.00  0.00    +0.000 A 
ATOM     20  N   UNL     1       2.211   7.747  18.800  0.00  0.00    +0.000 NA
ATOM     21  C   UNL     1       2.545   6.481  18.467  0.00  0.00    +0.000 A 
BRANCH  19  22
ATOM     22  O   UNL     1       1.278   9.200  20.410  0.00  0.00    +0.000 OA
BRANCH  22  23
ATOM     23  C   UNL     1       0.965  10.039  19.295  0.00  0.00    +0.000 C 
BRANCH  23  24
ATOM     24  C   UNL     1      -0.510  10.320  19.296  0.00  0.00    +0.000 C 
ATOM     25  C   UNL     1      -1.064  11.557  18.638  0.00  0.00    +0.000 C 
ATOM     26  C   UNL     1      -1.290  10.210  18.008  0.00  0.00    +0.000 C 
ENDBRANCH  23  24
ENDBRANCH  22  23
ENDBRANCH  19  22
ENDBRANCH  15  16
ENDBRANCH   3  15
TORSDOF 7
ENDMDL
MODEL 6
REMARK VINA RESULT:      -7.3      1.887      2.526
REMARK  Name = 
REMARK  7 active torsions:
REMARK  status: ('A' for Active; 'I' for Inactive)
REMARK    1  A    between atoms: N_1  and  C_2
REMARK    2  A    between atoms: C_7  and  C_8
REMARK    3  A    between atoms: C_10  and  C_11
REMARK    4  A    between atoms: C_11  and  C_12
REMARK    5  A    between atoms: C_15  and  O_16
REMARK    6  A    between atoms: O_16  and  C_17
REMARK    7  A    between atoms: C_17  and  C_18
REMARK                            x       y       z     vdW  Elec       q    Type
REMARK                         _______ _______ _______ _____ _____    ______ ____
ROOT
ATOM      1  C   UNL     1       5.364   4.216  16.303  0.00  0.00    +0.000 A 
ATOM      2  C   UNL     1       4.033   4.182  16.646  0.00  0.00    +0.000 A 
ATOM      3  C   UNL     1       4.025   4.128  18.060  0.00  0.00    +0.000 A 
ATOM      4  N   UNL     1       5.273   4.065  18.543  0.00  0.00    +0.000 NA
ATOM      5  O   UNL     1       6.109   4.123  17.441  0.00  0.00    +0.000 OA
ENDROOT
BRANCH   1  11
ATOM      6  C   UNL     1       7.157   5.176  14.818  0.00  0.00    +0.000 A 
ATOM      7  N   UNL     1       7.753   5.316  13.615  0.00  0.00    +0.000 NA
ATOM      8  C   UNL     1       7.276   4.584  12.586  0.00  0.00    +0.000 A 
ATOM      9  C   UNL     1       6.234   3.685  12.704  0.00  0.00    +0.000 A 
ATOM     10  C   UNL     1       5.632   3.544  13.946  0.00  0.00    +0.000 A 
ATOM     11  C   UNL     1       6.075   4.310  15.036  0.00  0.00    +0.000 A 
BRANCH   6  12
ATOM     12  N   UNL     1       7.639   6.039  15.801  0.00  0.00    +0.000 N 
ATOM     13  H   UNL     1       8.501   5.644  16.163  0.00  0.00    +0.000 HD
ATOM     14  H   UNL     1       6.950   6.223  16.523  0.00  0.00    +0.000 HD
ENDBRANCH   6  12
ENDBRANCH   1  11
BRANCH   3  15
ATOM     15  C   UNL     1       2.855   4.071  18.982  0.00  0.00    +0.000 C 
BRANCH  15  16
ATOM     16  C   UNL     1       2.426   5.487  19.258  0.00  0.00    +0.000 A 
ATOM     17  C   UNL     1       2.618   6.515  18.329  0.00  0.00    +0.000 A 
ATOM     18  C   UNL     1       2.235   7.818  18.647  0.00  0.00    +0.000 A 
ATOM     19  C   UNL     1       1.679   8.055  19.894  0.00  0.00    +0.000 A 
ATOM     20  N   UNL     1       1.459   7.087  20.807  0.00  0.00    +0.000 NA
ATOM     21  C   UNL     1       1.833   5.834  20.469  0.00  0.00    +0.000 A 
BRANCH  19  22
ATOM     22  O   UNL     1       1.329   9.360  20.184  0.00  0.00    +0.000 OA
BRANCH  22  23
ATOM     23  C   UNL     1       0.043   9.446  20.802  0.00  0.00    +0.000 C 
BRANCH  23  24
ATOM     24  C   UNL     1       0.165  10.240  22.070  0.00  0.00    +0.000 C 
ATOM     25  C   UNL     1      -0.936  11.170  22.511  0.00  0.00    +0.000 C 
ATOM     26  C   UNL     1      -0.699   9.886  23.258  0.00  0.00    +0.000 C 
ENDBRANCH  23  24
ENDBRANCH  22  23
ENDBRANCH  19  22
ENDBRANCH  15  16
ENDBRANCH   3  15
TORSDOF 7
ENDMDL
MODEL 7
REMARK VINA RESULT:      -7.2      1.142      1.748
REMARK  Name = 
REMARK  7 active torsions:
REMARK  status: ('A' for Active; 'I' for Inactive)
REMARK    1  A    between atoms: N_1  and  C_2
REMARK    2  A    between atoms: C_7  and  C_8
REMARK    3  A    between atoms: C_10  and  C_11
REMARK    4  A    between atoms: C_11  and  C_12
REMARK    5  A    between atoms: C_15  and  O_16
REMARK    6  A    between atoms: O_16  and  C_17
REMARK    7  A    between atoms: C_17  and  C_18
REMARK                            x       y       z     vdW  Elec       q    Type
REMARK                         _______ _______ _______ _____ _____    ______ ____
ROOT
ATOM      1  C   UNL     1       5.042   4.991  17.269  0.00  0.00    +0.000 A 
ATOM      2  C   UNL     1       3.698   4.936  17.558  0.00  0.00    +0.000 A 
ATOM      3  C   UNL     1       3.615   5.207  18.944  0.00  0.00    +0.000 A 
ATOM      4  N   UNL     1       4.836   5.350  19.477  0.00  0.00    +0.000 NA
ATOM      5  O   UNL     1       5.727   5.218  18.425  0.00  0.00    +0.000 OA
ENDROOT
BRANCH   1  11
ATOM      6  C   UNL     1       6.970   5.590  15.766  0.00  0.00    +0.000 A 
ATOM      7  N   UNL     1       7.630   5.509  14.591  0.00  0.00    +0.000 NA
ATOM      8  C   UNL     1       7.143   4.670  13.651  0.00  0.00    +0.000 A 
ATOM      9  C   UNL     1       6.028   3.875  13.838  0.00  0.00    +0.000 A 
ATOM     10  C   UNL     1       5.361   3.963  15.052  0.00  0.00    +0.000 A 
ATOM     11  C   UNL     1       5.814   4.846  16.043  0.00  0.00    +0.000 A 
BRANCH   6  12
ATOM     12  N   UNL     1       7.474   6.551  16.640  0.00  0.00    +0.000 N 
ATOM     13  H   UNL     1       8.171   6.100  17.226  0.00  0.00    +0.000 HD
ATOM     14  H   UNL     1       6.743   7.009  17.172  0.00  0.00    +0.000 HD
ENDBRANCH   6  12
ENDBRANCH   1  11
BRANCH   3  15
ATOM     15  C   UNL     1       2.402   5.274  19.808  0.00  0.00    +0.000 C 
BRANCH  15  16
ATOM     16  C   UNL     1       1.996   6.720  19.908  0.00  0.00    +0.000 A 
ATOM     17  C   UNL     1       1.478   7.266  21.087  0.00  0.00    +0.000 A 
ATOM     18  C   UNL     1       1.082   8.603  21.117  0.00  0.00    +0.000 A 
ATOM     19  C   UNL     1       1.210   9.353  19.959  0.00  0.00    +0.000 A 
ATOM     20  N   UNL     1       1.724   8.868  18.811  0.00  0.00    +0.000 NA
ATOM     21  C   UNL     1       2.105   7.573  18.812  0.00  0.00    +0.000 A 
BRANCH  19  22
ATOM     22  O   UNL     1       0.791  10.669  20.018  0.00  0.00    +0.000 OA
BRANCH  22  23
ATOM     23  C   UNL     1      -0.571  10.781  20.438  0.00  0.00    +0.000 C 
BRANCH  23  24
ATOM     24  C   UNL     1      -0.644  11.721  21.606  0.00  0.00    +0.000 C 
ATOM     25  C   UNL     1      -1.971  12.114  22.203  0.00  0.00    +0.000 C 
ATOM     26  C   UNL     1      -1.053  11.196  22.961  0.00  0.00    +0.000 C 
ENDBRANCH  23  24
ENDBRANCH  22  23
ENDBRANCH  19  22
ENDBRANCH  15  16
ENDBRANCH   3  15
TORSDOF 7
ENDMDL
MODEL 8
REMARK VINA RESULT:      -7.2      4.279      8.168
REMARK  Name = 
REMARK  7 active torsions:
REMARK  status: ('A' for Active; 'I' for Inactive)
REMARK    1  A    between atoms: N_1  and  C_2
REMARK    2  A    between atoms: C_7  and  C_8
REMARK    3  A    between atoms: C_10  and  C_11
REMARK    4  A    between atoms: C_11  and  C_12
REMARK    5  A    between atoms: C_15  and  O_16
REMARK    6  A    between atoms: O_16  and  C_17
REMARK    7  A    between atoms: C_17  and  C_18
REMARK                            x       y       z     vdW  Elec       q    Type
REMARK                         _______ _______ _______ _____ _____    ______ ____
ROOT
ATOM      1  C   UNL     1       4.419   4.224  18.720  0.00  0.00    +0.000 A 
ATOM      2  C   UNL     1       4.801   4.948  17.614  0.00  0.00    +0.000 A 
ATOM      3  C   UNL     1       6.215   4.962  17.661  0.00  0.00    +0.000 A 
ATOM      4  N   UNL     1       6.663   4.344  18.764  0.00  0.00    +0.000 NA
ATOM      5  O   UNL     1       5.536   3.881  19.422  0.00  0.00    +0.000 OA
ENDROOT
BRANCH   1  11
ATOM      6  C   UNL     1       2.490   2.615  18.868  0.00  0.00    +0.000 A 
ATOM      7  N   UNL     1       1.257   2.275  19.302  0.00  0.00    +0.000 NA
ATOM      8  C   UNL     1       0.626   3.127  20.139  0.00  0.00    +0.000 A 
ATOM      9  C   UNL     1       1.183   4.306  20.595  0.00  0.00    +0.000 A 
ATOM     10  C   UNL     1       2.453   4.642  20.147  0.00  0.00    +0.000 A 
ATOM     11  C   UNL     1       3.131   3.802  19.250  0.00  0.00    +0.000 A 
BRANCH   6  12
ATOM     12  N   UNL     1       3.029   1.737  17.929  0.00  0.00    +0.000 N 
ATOM     13  H   UNL     1       2.720   0.800  18.169  0.00  0.00    +0.000 HD
ATOM     14  H   UNL     1       4.038   1.819  17.860  0.00  0.00    +0.000 HD
ENDBRANCH   6  12
ENDBRANCH   1  11
BRANCH   3  15
ATOM     15  C   UNL     1       7.172   5.604  16.716  0.00  0.00    +0.000 C 
BRANCH  15  16
ATOM     16  C   UNL     1       6.937   5.003  15.356  0.00  0.00    +0.000 A 
ATOM     17  C   UNL     1       6.166   3.850  15.177  0.00  0.00    +0.000 A 
ATOM     18  C   UNL     1       6.009   3.312  13.899  0.00  0.00    +0.000 A 
ATOM     19  C   UNL     1       6.639   3.942  12.838  0.00  0.00    +0.000 A 
ATOM     20  N   UNL     1       7.371   5.067  12.969  0.00  0.00    +0.000 NA
ATOM     21  C   UNL     1       7.501   5.569  14.215  0.00  0.00    +0.000 A 
BRANCH  19  22
ATOM     22  O   UNL     1       6.477   3.373  11.589  0.00  0.00    +0.000 OA
BRANCH  22  23
ATOM     23  C   UNL     1       5.328   2.525  11.530  0.00  0.00    +0.000 C 
BRANCH  23  24
ATOM     24  C   UNL     1       4.103   3.376  11.363  0.00  0.00    +0.000 C 
ATOM     25  C   UNL     1       3.655   3.832   9.998  0.00  0.00    +0.000 C 
ATOM     26  C   UNL     1       2.864   2.786  10.734  0.00  0.00    +0.000 C 
ENDBRANCH  23  24
ENDBRANCH  22  23
ENDBRANCH  19  22
ENDBRANCH  15  16
ENDBRANCH   3  15
TORSDOF 7
ENDMDL
MODEL 9
REMARK VINA RESULT:      -7.1      1.481      2.040
REMARK  Name = 
REMARK  7 active torsions:
REMARK  status: ('A' for Active; 'I' for Inactive)
REMARK    1  A    between atoms: N_1  and  C_2
REMARK    2  A    between atoms: C_7  and  C_8
REMARK    3  A    between atoms: C_10  and  C_11
REMARK    4  A    between atoms: C_11  and  C_12
REMARK    5  A    between atoms: C_15  and  O_16
REMARK    6  A    between atoms: O_16  and  C_17
REMARK    7  A    between atoms: C_17  and  C_18
REMARK                            x       y       z     vdW  Elec       q    Type
REMARK                         _______ _______ _______ _____ _____    ______ ____
ROOT
ATOM      1  C   UNL     1       5.059   5.063  17.443  0.00  0.00    +0.000 A 
ATOM      2  C   UNL     1       3.718   5.047  17.745  0.00  0.00    +0.000 A 
ATOM      3  C   UNL     1       3.656   5.312  19.134  0.00  0.00    +0.000 A 
ATOM      4  N   UNL     1       4.886   5.414  19.656  0.00  0.00    +0.000 NA
ATOM      5  O   UNL     1       5.762   5.261  18.594  0.00  0.00    +0.000 OA
ENDROOT
BRANCH   1  11
ATOM      6  C   UNL     1       6.971   5.636  15.910  0.00  0.00    +0.000 A 
ATOM      7  N   UNL     1       7.615   5.540  14.727  0.00  0.00    +0.000 NA
ATOM      8  C   UNL     1       7.111   4.695  13.802  0.00  0.00    +0.000 A 
ATOM      9  C   UNL     1       5.995   3.909  14.010  0.00  0.00    +0.000 A 
ATOM     10  C   UNL     1       5.344   4.012  15.232  0.00  0.00    +0.000 A 
ATOM     11  C   UNL     1       5.815   4.902  16.209  0.00  0.00    +0.000 A 
BRANCH   6  12
ATOM     12  N   UNL     1       7.493   6.603  16.769  0.00  0.00    +0.000 N 
ATOM     13  H   UNL     1       8.498   6.629  16.630  0.00  0.00    +0.000 HD
ATOM     14  H   UNL     1       7.227   6.443  17.734  0.00  0.00    +0.000 HD
ENDBRANCH   6  12
ENDBRANCH   1  11
BRANCH   3  15
ATOM     15  C   UNL     1       2.455   5.411  20.010  0.00  0.00    +0.000 C 
BRANCH  15  16
ATOM     16  C   UNL     1       1.976   6.837  19.963  0.00  0.00    +0.000 A 
ATOM     17  C   UNL     1       2.146   7.640  18.830  0.00  0.00    +0.000 A 
ATOM     18  C   UNL     1       1.718   8.968  18.850  0.00  0.00    +0.000 A 
ATOM     19  C   UNL     1       1.137   9.454  20.010  0.00  0.00    +0.000 A 
ATOM     20  N   UNL     1       0.936   8.705  21.113  0.00  0.00    +0.000 NA
ATOM     21  C   UNL     1       1.355   7.422  21.064  0.00  0.00    +0.000 A 
BRANCH  19  22
ATOM     22  O   UNL     1       0.740  10.778  20.002  0.00  0.00    +0.000 OA
BRANCH  22  23
ATOM     23  C   UNL     1       0.668  11.309  18.677  0.00  0.00    +0.000 C 
BRANCH  23  24
ATOM     24  C   UNL     1       1.172  12.723  18.690  0.00  0.00    +0.000 C 
ATOM     25  C   UNL     1       2.264  13.148  19.637  0.00  0.00    +0.000 C 
ATOM     26  C   UNL     1       2.555  13.027  18.166  0.00  0.00    +0.000 C 
ENDBRANCH  23  24
ENDBRANCH  22  23
ENDBRANCH  19  22
ENDBRANCH  15  16
ENDBRANCH   3  15
TORSDOF 7
ENDMDL
