MODEL 1
REMARK VINA RESULT:      -7.8      0.000      0.000
REMARK  Name = 
REMARK  5 active torsions:
REMARK  status: ('A' for Active; 'I' for Inactive)
REMARK    1  A    between atoms: C_1  and  N_2
REMARK    2  A    between atoms: C_5  and  C_6
REMARK    3  A    between atoms: C_12  and  N_13
REMARK    4  A    between atoms: C_14  and  C_16
REMARK    5  A    between atoms: C_16  and  N_17
REMARK                            x       y       z     vdW  Elec       q    Type
REMARK                         _______ _______ _______ _____ _____    ______ ____
ROOT
ATOM      1  N   UNL     1       3.492   5.957  19.156  0.00  0.00    +0.000 N 
ATOM      2  C   UNL     1       2.509   6.509  18.262  0.00  0.00    +0.000 C 
ATOM      3  O   UNL     1       1.734   5.754  17.694  0.00  0.00    +0.000 OA
ATOM      4  H   UNL     1       4.012   6.605  19.760  0.00  0.00    +0.000 HD
ENDROOT
BRANCH   1  10
ATOM      5  C   UNL     1       2.146   4.205  21.430  0.00  0.00    +0.000 C 
ATOM      6  N   UNL     1       3.058   3.815  20.381  0.00  0.00    +0.000 N 
ATOM      7  N   UNL     1       3.315   2.499  20.238  0.00  0.00    +0.000 NA
ATOM      8  C   UNL     1       4.101   2.444  19.166  0.00  0.00    +0.000 A 
ATOM      9  C   UNL     1       4.328   3.713  18.580  0.00  0.00    +0.000 A 
ATOM     10  C   UNL     1       3.612   4.590  19.380  0.00  0.00    +0.000 A 
BRANCH   9  11
ATOM     11  C   UNL     1       5.254   4.023  17.499  0.00  0.00    +0.000 A 
ATOM     12  C   UNL     1       6.549   4.467  17.805  0.00  0.00    +0.000 A 
ATOM     13  C   UNL     1       7.396   4.944  16.804  0.00  0.00    +0.000 A 
ATOM     14  C   UNL     1       6.969   4.964  15.480  0.00  0.00    +0.000 A 
ATOM     15  C   UNL     1       5.696   4.501  15.155  0.00  0.00    +0.000 A 
ATOM     16  C   UNL     1       4.839   4.043  16.155  0.00  0.00    +0.000 A 
ENDBRANCH   9  11
ENDBRANCH   1  10
BRANCH   2  17
ATOM     17  C   UNL     1       2.347   7.999  18.237  0.00  0.00    +0.000 C 
BRANCH  17  18
ATOM     18  N   UNL     1       1.750   8.531  19.438  0.00  0.00    +0.000 N 
ATOM     19  N   UNL     1       1.699   7.764  20.560  0.00  0.00    +0.000 NA
ATOM     20  C   UNL     1       0.817   8.424  21.330  0.00  0.00    +0.000 A 
ATOM     21  C   UNL     1       0.335   9.609  20.728  0.00  0.00    +0.000 A 
ATOM     22  C   UNL     1      -0.592  10.620  21.020  0.00  0.00    +0.000 A 
ATOM     23  C   UNL     1      -0.735  11.645  20.081  0.00  0.00    +0.000 A 
ATOM     24  C   UNL     1       0.042  11.620  18.928  0.00  0.00    +0.000 A 
ATOM     25  N   UNL     1       0.926  10.649  18.590  0.00  0.00    +0.000 NA
ATOM     26  C   UNL     1       1.014   9.681  19.522  0.00  0.00    +0.000 A 
ENDBRANCH  17  18
ENDBRANCH   2  17
TORSDOF 4
ENDMDL
MODEL 2
REMARK VINA RESULT:      -7.5      1.198      1.524
REMARK  Name = 
REMARK  5 active torsions:
REMARK  status: ('A' for Active; 'I' for Inactive)
REMARK    1  A    between atoms: C_1  and  N_2
REMARK    2  A    between atoms: C_5  and  C_6
REMARK    3  A    between atoms: C_12  and  N_13
REMARK    4  A    between atoms: C_14  and  C_16
REMARK    5  A    between atoms: C_16  and  N_17
REMARK                            x       y       z     vdW  Elec       q    Type
REMARK                         _______ _______ _______ _____ _____    ______ ____
ROOT
ATOM      1  N   UNL     1       2.248   5.263  18.080  0.00  0.00    +0.000 N 
ATOM      2  C   UNL     1       2.777   6.285  18.944  0.00  0.00    +0.000 C 
ATOM      3  O   UNL     1       3.608   5.979  19.786  0.00  0.00    +0.000 OA
ATOM      4  H   UNL     1       1.695   5.557  17.267  0.00  0.00    +0.000 HD
ENDROOT
BRANCH   1  10
ATOM      5  C   UNL     1       0.731   2.889  19.535  0.00  0.00    +0.000 C 
ATOM      6  N   UNL     1       1.995   2.888  18.838  0.00  0.00    +0.000 N 
ATOM      7  N   UNL     1       2.604   1.698  18.656  0.00  0.00    +0.000 NA
ATOM      8  C   UNL     1       3.677   1.999  17.929  0.00  0.00    +0.000 A 
ATOM      9  C   UNL     1       3.755   3.374  17.599  0.00  0.00    +0.000 A 
ATOM     10  C   UNL     1       2.628   3.928  18.185  0.00  0.00    +0.000 A 
BRANCH   9  11
ATOM     11  C   UNL     1       4.869   4.056  16.952  0.00  0.00    +0.000 A 
ATOM     12  C   UNL     1       4.872   4.201  15.557  0.00  0.00    +0.000 A 
ATOM     13  C   UNL     1       6.001   4.682  14.892  0.00  0.00    +0.000 A 
ATOM     14  C   UNL     1       7.134   5.044  15.613  0.00  0.00    +0.000 A 
ATOM     15  C   UNL     1       7.137   4.931  17.001  0.00  0.00    +0.000 A 
ATOM     16  C   UNL     1       6.020   4.432  17.668  0.00  0.00    +0.000 A 
ENDBRANCH   9  11
ENDBRANCH   1  10
BRANCH   2  17
ATOM     17  C   UNL     1       2.441   7.710  18.625  0.00  0.00    +0.000 C 
BRANCH  17  18
ATOM     18  N   UNL     1       1.720   8.381  19.680  0.00  0.00    +0.000 N 
ATOM     19  N   UNL     1       1.425   7.707  20.824  0.00  0.00    +0.000 NA
ATOM     20  C   UNL     1       0.502   8.496  21.402  0.00  0.00    +0.000 A 
ATOM     21  C   UNL     1       0.232   9.667  20.658  0.00  0.00    +0.000 A 
ATOM     22  C   UNL     1      -0.629  10.771  20.736  0.00  0.00    +0.000 A 
ATOM     23  C   UNL     1      -0.529  11.731  19.724  0.00  0.00    +0.000 A 
ATOM     24  C   UNL     1       0.410  11.554  18.714  0.00  0.00    +0.000 A 
ATOM     25  N   UNL     1       1.240  10.490  18.581  0.00  0.00    +0.000 NA
ATOM     26  C   UNL     1       1.092   9.591  19.574  0.00  0.00    +0.000 A 
ENDBRANCH  17  18
ENDBRANCH   2  17
TORSDOF 4
ENDMDL
MODEL 3
REMARK VINA RESULT:      -7.5      2.533      7.174
REMARK  Name = 
REMARK  5 active torsions:
REMARK  status: ('A' for Active; 'I' for Inactive)
REMARK    1  A    between atoms: C_1  and  N_2
REMARK    2  A    between atoms: C_5  and  C_6
REMARK    3  A    between atoms: C_12  and  N_13
REMARK    4  A    between atoms: C_14  and  C_16
REMARK    5  A    between atoms: C_16  and  N_17
REMARK                            x       y       z     vdW  Elec       q    Type
REMARK                         _______ _______ _______ _____ _____    ______ ____
ROOT
ATOM      1  N   UNL     1       4.571   4.982  18.239  0.00  0.00    +0.000 N 
ATOM      2  C   UNL     1       5.989   5.121  18.443  0.00  0.00    +0.000 C 
ATOM      3  O   UNL     1       6.447   4.945  19.562  0.00  0.00    +0.000 OA
ATOM      4  H   UNL     1       4.223   4.953  17.274  0.00  0.00    +0.000 HD
ENDROOT
BRANCH   1  10
ATOM      5  C   UNL     1       4.220   2.239  19.789  0.00  0.00    +0.000 C 
ATOM      6  N   UNL     1       3.507   3.484  19.943  0.00  0.00    +0.000 N 
ATOM      7  N   UNL     1       2.629   3.577  20.963  0.00  0.00    +0.000 NA
ATOM      8  C   UNL     1       2.203   4.836  20.901  0.00  0.00    +0.000 A 
ATOM      9  C   UNL     1       2.826   5.582  19.871  0.00  0.00    +0.000 A 
ATOM     10  C   UNL     1       3.694   4.680  19.276  0.00  0.00    +0.000 A 
BRANCH   9  11
ATOM     11  C   UNL     1       2.481   6.929  19.437  0.00  0.00    +0.000 A 
ATOM     12  C   UNL     1       1.788   7.779  20.312  0.00  0.00    +0.000 A 
ATOM     13  C   UNL     1       1.284   9.003  19.869  0.00  0.00    +0.000 A 
ATOM     14  C   UNL     1       1.483   9.404  18.551  0.00  0.00    +0.000 A 
ATOM     15  C   UNL     1       2.192   8.583  17.677  0.00  0.00    +0.000 A 
ATOM     16  C   UNL     1       2.679   7.351  18.110  0.00  0.00    +0.000 A 
ENDBRANCH   9  11
ENDBRANCH   1  10
BRANCH   2  17
ATOM     17  C   UNL     1       6.857   5.264  17.230  0.00  0.00    +0.000 C 
BRANCH  17  18
ATOM     18  N   UNL     1       6.250   4.749  16.026  0.00  0.00    +0.000 N 
ATOM     19  N   UNL     1       5.192   3.900  16.117  0.00  0.00    +0.000 NA
ATOM     20  C   UNL     1       5.116   3.387  14.878  0.00  0.00    +0.000 A 
ATOM     21  C   UNL     1       6.087   3.918  13.999  0.00  0.00    +0.000 A 
ATOM     22  C   UNL     1       6.502   3.730  12.672  0.00  0.00    +0.000 A 
ATOM     23  C   UNL     1       7.554   4.527  12.214  0.00  0.00    +0.000 A 
ATOM     24  C   UNL     1       8.122   5.460  13.075  0.00  0.00    +0.000 A 
ATOM     25  N   UNL     1       7.776   5.654  14.371  0.00  0.00    +0.000 NA
ATOM     26  C   UNL     1       6.768   4.852  14.764  0.00  0.00    +0.000 A 
ENDBRANCH  17  18
ENDBRANCH   2  17
TORSDOF 4
ENDMDL
MODEL 4
REMARK VINA RESULT:      -7.5      1.612      1.779
REMARK  Name = 
REMARK  5 active torsions:
REMARK  status: ('A' for Active; 'I' for Inactive)
REMARK    1  A    between atoms: C_1  and  N_2
REMARK    2  A    between atoms: C_5  and  C_6
REMARK    3  A    between atoms: C_12  and  N_13
REMARK    4  A    between atoms: C_14  and  C_16
REMARK    5  A    between atoms: C_16  and  N_17
REMARK                            x       y       z     vdW  Elec       q    Type
REMARK                         _______ _______ _______ _____ _____    ______ ____
ROOT
ATOM      1  N   UNL     1       3.052   6.679  19.835  0.00  0.00    +0.000 N 
ATOM      2  C   UNL     1       2.292   7.362  18.821  0.00  0.00    +0.000 C 
ATOM      3  O   UNL     1       1.885   6.729  17.858  0.00  0.00    +0.000 OA
ATOM      4  H   UNL     1       3.231   7.172  20.717  0.00  0.00    +0.000 HD
ENDROOT
BRANCH   1  10
ATOM      5  C   UNL     1       1.378   4.195  20.873  0.00  0.00    +0.000 C 
ATOM      6  N   UNL     1       2.664   4.234  20.219  0.00  0.00    +0.000 N 
ATOM      7  N   UNL     1       3.224   3.055  19.876  0.00  0.00    +0.000 NA
ATOM      8  C   UNL     1       4.334   3.407  19.232  0.00  0.00    +0.000 A 
ATOM      9  C   UNL     1       4.486   4.810  19.116  0.00  0.00    +0.000 A 
ATOM     10  C   UNL     1       3.366   5.327  19.747  0.00  0.00    +0.000 A 
BRANCH   9  11
ATOM     11  C   UNL     1       5.652   5.523  18.610  0.00  0.00    +0.000 A 
ATOM     12  C   UNL     1       6.856   5.473  19.326  0.00  0.00    +0.000 A 
ATOM     13  C   UNL     1       7.934   6.286  18.971  0.00  0.00    +0.000 A 
ATOM     14  C   UNL     1       7.829   7.146  17.882  0.00  0.00    +0.000 A 
ATOM     15  C   UNL     1       6.649   7.188  17.144  0.00  0.00    +0.000 A 
ATOM     16  C   UNL     1       5.563   6.393  17.508  0.00  0.00    +0.000 A 
ENDBRANCH   9  11
ENDBRANCH   1  10
BRANCH   2  17
ATOM     17  C   UNL     1       1.856   8.767  19.104  0.00  0.00    +0.000 C 
BRANCH  17  18
ATOM     18  N   UNL     1       1.178   8.914  20.370  0.00  0.00    +0.000 N 
ATOM     19  N   UNL     1       0.728   7.809  21.023  0.00  0.00    +0.000 NA
ATOM     20  C   UNL     1      -0.105   8.327  21.941  0.00  0.00    +0.000 A 
ATOM     21  C   UNL     1      -0.166   9.738  21.900  0.00  0.00    +0.000 A 
ATOM     22  C   UNL     1      -0.865  10.768  22.546  0.00  0.00    +0.000 A 
ATOM     23  C   UNL     1      -0.575  12.078  22.157  0.00  0.00    +0.000 A 
ATOM     24  C   UNL     1       0.385  12.297  21.175  0.00  0.00    +0.000 A 
ATOM     25  N   UNL     1       1.062  11.333  20.502  0.00  0.00    +0.000 NA
ATOM     26  C   UNL     1       0.735  10.091  20.906  0.00  0.00    +0.000 A 
ENDBRANCH  17  18
ENDBRANCH   2  17
TORSDOF 4
ENDMDL
MODEL 5
REMARK VINA RESULT:      -7.5      2.459      6.041
REMARK  Name = 
REMARK  5 active torsions:
REMARK  status: ('A' for Active; 'I' for Inactive)
REMARK    1  A    between atoms: C_1  and  N_2
REMARK    2  A    between atoms: C_5  and  C_6
REMARK    3  A    between atoms: C_12  and  N_13
REMARK    4  A    between atoms: C_14  and  C_16
REMARK    5  A    between atoms: C_16  and  N_17
REMARK                            x       y       z     vdW  Elec       q    Type
REMARK                         _______ _______ _______ _____ _____    ______ ____
ROOT
ATOM      1  N   UNL     1       4.475   5.036  18.870  0.00  0.00    +0.000 N 
ATOM      2  C   UNL     1       4.568   4.634  17.491  0.00  0.00    +0.000 C 
ATOM      3  O   UNL     1       3.638   4.022  16.988  0.00  0.00    +0.000 OA
ATOM      4  H   UNL     1       5.173   5.699  19.227  0.00  0.00    +0.000 HD
ENDROOT
BRANCH   1  10
ATOM      5  C   UNL     1       3.740   2.274  20.242  0.00  0.00    +0.000 C 
ATOM      6  N   UNL     1       3.022   3.526  20.244  0.00  0.00    +0.000 N 
ATOM      7  N   UNL     1       1.927   3.615  21.028  0.00  0.00    +0.000 NA
ATOM      8  C   UNL     1       1.540   4.880  20.889  0.00  0.00    +0.000 A 
ATOM      9  C   UNL     1       2.397   5.634  20.050  0.00  0.00    +0.000 A 
ATOM     10  C   UNL     1       3.374   4.730  19.663  0.00  0.00    +0.000 A 
BRANCH   9  11
ATOM     11  C   UNL     1       2.178   6.992  19.572  0.00  0.00    +0.000 A 
ATOM     12  C   UNL     1       1.596   7.940  20.427  0.00  0.00    +0.000 A 
ATOM     13  C   UNL     1       1.207   9.191  19.947  0.00  0.00    +0.000 A 
ATOM     14  C   UNL     1       1.411   9.520  18.611  0.00  0.00    +0.000 A 
ATOM     15  C   UNL     1       2.012   8.601  17.755  0.00  0.00    +0.000 A 
ATOM     16  C   UNL     1       2.384   7.342  18.225  0.00  0.00    +0.000 A 
ENDBRANCH   9  11
ENDBRANCH   1  10
BRANCH   2  17
ATOM     17  C   UNL     1       5.709   5.173  16.683  0.00  0.00    +0.000 C 
BRANCH  17  18
ATOM     18  N   UNL     1       6.854   5.543  17.481  0.00  0.00    +0.000 N 
ATOM     19  N   UNL     1       7.390   4.639  18.345  0.00  0.00    +0.000 NA
ATOM     20  C   UNL     1       8.178   5.403  19.120  0.00  0.00    +0.000 A 
ATOM     21  C   UNL     1       8.172   6.765  18.743  0.00  0.00    +0.000 A 
ATOM     22  C   UNL     1       8.729   7.971  19.193  0.00  0.00    +0.000 A 
ATOM     23  C   UNL     1       8.434   9.124  18.461  0.00  0.00    +0.000 A 
ATOM     24  C   UNL     1       7.626   9.021  17.333  0.00  0.00    +0.000 A 
ATOM     25  N   UNL     1       7.042   7.886  16.879  0.00  0.00    +0.000 NA
ATOM     26  C   UNL     1       7.348   6.809  17.629  0.00  0.00    +0.000 A 
ENDBRANCH  17  18
ENDBRANCH   2  17
TORSDOF 4
ENDMDL
MODEL 6
REMARK VINA RESULT:      -7.5      0.700      1.628
REMARK  Name = 
REMARK  5 active torsions:
REMARK  status: ('A' for Active; 'I' for Inactive)
REMARK    1  A    between atoms: C_1  and  N_2
REMARK    2  A    between atoms: C_5  and  C_6
REMARK    3  A    between atoms: C_12  and  N_13
REMARK    4  A    between atoms: C_14  and  C_16
REMARK    5  A    between atoms: C_16  and  N_17
REMARK                            x       y       z     vdW  Elec       q    Type
REMARK                         _______ _______ _______ _____ _____    ______ ____
ROOT
ATOM      1  N   UNL     1       3.663   6.127  19.028  0.00  0.00    +0.000 N 
ATOM      2  C   UNL     1       2.657   6.821  18.268  0.00  0.00    +0.000 C 
ATOM      3  O   UNL     1       1.726   6.184  17.797  0.00  0.00    +0.000 OA
ATOM      4  H   UNL     1       4.333   6.689  19.566  0.00  0.00    +0.000 HD
ENDROOT
BRANCH   1  10
ATOM      5  C   UNL     1       2.129   4.488  21.266  0.00  0.00    +0.000 C 
ATOM      6  N   UNL     1       2.995   4.021  20.210  0.00  0.00    +0.000 N 
ATOM      7  N   UNL     1       3.107   2.688  20.041  0.00  0.00    +0.000 NA
ATOM      8  C   UNL     1       3.884   2.568  18.968  0.00  0.00    +0.000 A 
ATOM      9  C   UNL     1       4.250   3.817  18.407  0.00  0.00    +0.000 A 
ATOM     10  C   UNL     1       3.633   4.750  19.225  0.00  0.00    +0.000 A 
BRANCH   9  11
ATOM     11  C   UNL     1       5.207   4.045  17.332  0.00  0.00    +0.000 A 
ATOM     12  C   UNL     1       6.522   4.418  17.647  0.00  0.00    +0.000 A 
ATOM     13  C   UNL     1       7.409   4.819  16.646  0.00  0.00    +0.000 A 
ATOM     14  C   UNL     1       7.001   4.833  15.317  0.00  0.00    +0.000 A 
ATOM     15  C   UNL     1       5.707   4.440  14.985  0.00  0.00    +0.000 A 
ATOM     16  C   UNL     1       4.811   4.058  15.982  0.00  0.00    +0.000 A 
ENDBRANCH   9  11
ENDBRANCH   1  10
BRANCH   2  17
ATOM     17  C   UNL     1       2.686   8.319  18.275  0.00  0.00    +0.000 C 
BRANCH  17  18
ATOM     18  N   UNL     1       1.444   8.916  18.703  0.00  0.00    +0.000 N 
ATOM     19  N   UNL     1       0.663   9.562  17.796  0.00  0.00    +0.000 NA
ATOM     20  C   UNL     1      -0.191  10.246  18.577  0.00  0.00    +0.000 A 
ATOM     21  C   UNL     1       0.017  10.020  19.956  0.00  0.00    +0.000 A 
ATOM     22  C   UNL     1      -0.505  10.477  21.175  0.00  0.00    +0.000 A 
ATOM     23  C   UNL     1       0.037   9.938  22.344  0.00  0.00    +0.000 A 
ATOM     24  C   UNL     1       1.043   8.982  22.246  0.00  0.00    +0.000 A 
ATOM     25  N   UNL     1       1.600   8.534  21.094  0.00  0.00    +0.000 NA
ATOM     26  C   UNL     1       1.049   9.095  20.000  0.00  0.00    +0.000 A 
ENDBRANCH  17  18
ENDBRANCH   2  17
TORSDOF 4
ENDMDL
MODEL 7
REMARK VINA RESULT:      -7.3      1.373      1.972
REMARK  Name = 
REMARK  5 active torsions:
REMARK  status: ('A' for Active; 'I' for Inactive)
REMARK    1  A    between atoms: C_1  and  N_2
REMARK    2  A    between atoms: C_5  and  C_6
REMARK    3  A    between atoms: C_12  and  N_13
REMARK    4  A    between atoms: C_14  and  C_16
REMARK    5  A    between atoms: C_16  and  N_17
REMARK                            x       y       z     vdW  Elec       q    Type
REMARK                         _______ _______ _______ _____ _____    ______ ____
ROOT
ATOM      1  N   UNL     1       2.535   5.552  17.805  0.00  0.00    +0.000 N 
ATOM      2  C   UNL     1       2.973   6.546  18.750  0.00  0.00    +0.000 C 
ATOM      3  O   UNL     1       3.538   6.184  19.771  0.00  0.00    +0.000 OA
ATOM      4  H   UNL     1       2.229   5.870  16.878  0.00  0.00    +0.000 HD
ENDROOT
BRANCH   1  10
ATOM      5  C   UNL     1       0.682   3.567  19.440  0.00  0.00    +0.000 C 
ATOM      6  N   UNL     1       1.927   3.315  18.755  0.00  0.00    +0.000 N 
ATOM      7  N   UNL     1       2.347   2.036  18.676  0.00  0.00    +0.000 NA
ATOM      8  C   UNL     1       3.449   2.108  17.935  0.00  0.00    +0.000 A 
ATOM      9  C   UNL     1       3.734   3.423  17.493  0.00  0.00    +0.000 A 
ATOM     10  C   UNL     1       2.707   4.189  18.023  0.00  0.00    +0.000 A 
BRANCH   9  11
ATOM     11  C   UNL     1       4.935   3.871  16.800  0.00  0.00    +0.000 A 
ATOM     12  C   UNL     1       6.030   4.331  17.546  0.00  0.00    +0.000 A 
ATOM     13  C   UNL     1       7.121   4.934  16.916  0.00  0.00    +0.000 A 
ATOM     14  C   UNL     1       7.140   5.067  15.531  0.00  0.00    +0.000 A 
ATOM     15  C   UNL     1       6.072   4.591  14.774  0.00  0.00    +0.000 A 
ATOM     16  C   UNL     1       4.972   4.007  15.401  0.00  0.00    +0.000 A 
ENDBRANCH   9  11
ENDBRANCH   1  10
BRANCH   2  17
ATOM     17  C   UNL     1       2.904   7.983  18.332  0.00  0.00    +0.000 C 
BRANCH  17  18
ATOM     18  N   UNL     1       1.644   8.613  18.647  0.00  0.00    +0.000 N 
ATOM     19  N   UNL     1       0.905   9.169  17.650  0.00  0.00    +0.000 NA
ATOM     20  C   UNL     1       0.017   9.920  18.324  0.00  0.00    +0.000 A 
ATOM     21  C   UNL     1       0.164   9.824  19.727  0.00  0.00    +0.000 A 
ATOM     22  C   UNL     1      -0.412  10.392  20.873  0.00  0.00    +0.000 A 
ATOM     23  C   UNL     1       0.078   9.966  22.110  0.00  0.00    +0.000 A 
ATOM     24  C   UNL     1       1.087   9.009  22.147  0.00  0.00    +0.000 A 
ATOM     25  N   UNL     1       1.694   8.457  21.067  0.00  0.00    +0.000 NA
ATOM     26  C   UNL     1       1.193   8.912  19.902  0.00  0.00    +0.000 A 
ENDBRANCH  17  18
ENDBRANCH   2  17
TORSDOF 4
ENDMDL
MODEL 8
REMARK VINA RESULT:      -7.2      1.789      2.585
REMARK  Name = 
REMARK  5 active torsions:
REMARK  status: ('A' for Active; 'I' for Inactive)
REMARK    1  A    between atoms: C_1  and  N_2
REMARK    2  A    between atoms: C_5  and  C_6
REMARK    3  A    between atoms: C_12  and  N_13
REMARK    4  A    between atoms: C_14  and  C_16
REMARK    5  A    between atoms: C_16  and  N_17
REMARK                            x       y       z     vdW  Elec       q    Type
REMARK                         _______ _______ _______ _____ _____    ______ ____
ROOT
ATOM      1  N   UNL     1       2.985   5.589  20.022  0.00  0.00    +0.000 N 
ATOM      2  C   UNL     1       2.311   6.827  19.728  0.00  0.00    +0.000 C 
ATOM      3  O   UNL     1       1.959   7.051  18.579  0.00  0.00    +0.000 OA
ATOM      4  H   UNL     1       3.112   5.333  21.008  0.00  0.00    +0.000 HD
ENDROOT
BRANCH   1  10
ATOM      5  C   UNL     1       1.290   3.053  19.158  0.00  0.00    +0.000 C 
ATOM      6  N   UNL     1       2.566   3.521  18.672  0.00  0.00    +0.000 N 
ATOM      7  N   UNL     1       3.102   2.879  17.613  0.00  0.00    +0.000 NA
ATOM      8  C   UNL     1       4.206   3.572  17.348  0.00  0.00    +0.000 A 
ATOM      9  C   UNL     1       4.378   4.689  18.202  0.00  0.00    +0.000 A 
ATOM     10  C   UNL     1       3.276   4.647  19.042  0.00  0.00    +0.000 A 
BRANCH   9  11
ATOM     11  C   UNL     1       5.546   5.556  18.280  0.00  0.00    +0.000 A 
ATOM     12  C   UNL     1       5.712   6.577  17.333  0.00  0.00    +0.000 A 
ATOM     13  C   UNL     1       6.901   7.305  17.269  0.00  0.00    +0.000 A 
ATOM     14  C   UNL     1       7.933   7.037  18.163  0.00  0.00    +0.000 A 
ATOM     15  C   UNL     1       7.774   6.045  19.127  0.00  0.00    +0.000 A 
ATOM     16  C   UNL     1       6.596   5.301  19.182  0.00  0.00    +0.000 A 
ENDBRANCH   9  11
ENDBRANCH   1  10
BRANCH   2  17
ATOM     17  C   UNL     1       1.885   7.681  20.883  0.00  0.00    +0.000 C 
BRANCH  17  18
ATOM     18  N   UNL     1       1.097   8.825  20.491  0.00  0.00    +0.000 N 
ATOM     19  N   UNL     1       1.303   9.397  19.274  0.00  0.00    +0.000 NA
ATOM     20  C   UNL     1       0.669  10.576  19.390  0.00  0.00    +0.000 A 
ATOM     21  C   UNL     1       0.042  10.746  20.645  0.00  0.00    +0.000 A 
ATOM     22  C   UNL     1      -0.680  11.740  21.320  0.00  0.00    +0.000 A 
ATOM     23  C   UNL     1      -1.127  11.440  22.610  0.00  0.00    +0.000 A 
ATOM     24  C   UNL     1      -0.850  10.189  23.149  0.00  0.00    +0.000 A 
ATOM     25  N   UNL     1      -0.130   9.210  22.548  0.00  0.00    +0.000 NA
ATOM     26  C   UNL     1       0.287   9.556  21.315  0.00  0.00    +0.000 A 
ENDBRANCH  17  18
ENDBRANCH   2  17
TORSDOF 4
ENDMDL
MODEL 9
REMARK VINA RESULT:      -7.2      1.806      2.435
REMARK  Name = 
REMARK  5 active torsions:
REMARK  status: ('A' for Active; 'I' for Inactive)
REMARK    1  A    between atoms: C_1  and  N_2
REMARK    2  A    between atoms: C_5  and  C_6
REMARK    3  A    between atoms: C_12  and  N_13
REMARK    4  A    between atoms: C_14  and  C_16
REMARK    5  A    between atoms: C_16  and  N_17
REMARK                            x       y       z     vdW  Elec       q    Type
REMARK                         _______ _______ _______ _____ _____    ______ ____
ROOT
ATOM      1  N   UNL     1       2.111   5.476  19.010  0.00  0.00    +0.000 N 
ATOM      2  C   UNL     1       2.020   5.755  20.419  0.00  0.00    +0.000 C 
ATOM      3  O   UNL     1       2.449   4.933  21.215  0.00  0.00    +0.000 OA
ATOM      4  H   UNL     1       1.917   6.241  18.354  0.00  0.00    +0.000 HD
ENDROOT
BRANCH   1  10
ATOM      5  C   UNL     1       0.714   2.642  18.750  0.00  0.00    +0.000 C 
ATOM      6  N   UNL     1       2.062   3.040  18.424  0.00  0.00    +0.000 N 
ATOM      7  N   UNL     1       2.848   2.133  17.808  0.00  0.00    +0.000 NA
ATOM      8  C   UNL     1       3.973   2.799  17.566  0.00  0.00    +0.000 A 
ATOM      9  C   UNL     1       3.917   4.152  17.984  0.00  0.00    +0.000 A 
ATOM     10  C   UNL     1       2.645   4.289  18.518  0.00  0.00    +0.000 A 
BRANCH   9  11
ATOM     11  C   UNL     1       5.018   5.106  18.006  0.00  0.00    +0.000 A 
ATOM     12  C   UNL     1       5.100   6.088  17.009  0.00  0.00    +0.000 A 
ATOM     13  C   UNL     1       6.231   6.897  16.895  0.00  0.00    +0.000 A 
ATOM     14  C   UNL     1       7.288   6.749  17.788  0.00  0.00    +0.000 A 
ATOM     15  C   UNL     1       7.211   5.796  18.800  0.00  0.00    +0.000 A 
ATOM     16  C   UNL     1       6.092   4.972  18.906  0.00  0.00    +0.000 A 
ENDBRANCH   9  11
ENDBRANCH   1  10
BRANCH   2  17
ATOM     17  C   UNL     1       1.600   7.133  20.831  0.00  0.00    +0.000 C 
BRANCH  17  18
ATOM     18  N   UNL     1       1.546   8.069  19.734  0.00  0.00    +0.000 N 
ATOM     19  N   UNL     1       2.411   7.934  18.693  0.00  0.00    +0.000 NA
ATOM     20  C   UNL     1       2.304   9.116  18.064  0.00  0.00    +0.000 A 
ATOM     21  C   UNL     1       1.366   9.983  18.671  0.00  0.00    +0.000 A 
ATOM     22  C   UNL     1       0.899  11.293  18.497  0.00  0.00    +0.000 A 
ATOM     23  C   UNL     1      -0.088  11.741  19.380  0.00  0.00    +0.000 A 
ATOM     24  C   UNL     1      -0.559  10.878  20.364  0.00  0.00    +0.000 A 
ATOM     25  N   UNL     1      -0.115   9.617  20.589  0.00  0.00    +0.000 NA
ATOM     26  C   UNL     1       0.843   9.242  19.719  0.00  0.00    +0.000 A 
ENDBRANCH  17  18
ENDBRANCH   2  17
TORSDOF 4
ENDMDL
