MODEL 1
REMARK VINA RESULT:      -7.9      0.000      0.000
REMARK  Name = 
REMARK  9 active torsions:
REMARK  status: ('A' for Active; 'I' for Inactive)
REMARK    1  A    between atoms: C_1  and  O_2
REMARK    2  A    between atoms: O_2  and  C_3
REMARK    3  A    between atoms: C_6  and  C_7
REMARK    4  A    between atoms: C_7  and  C_8
REMARK    5  A    between atoms: N_10  and  N_11
REMARK    6  A    between atoms: C_12  and  C_14
REMARK    7  A    between atoms: C_14  and  S_15
REMARK    8  A    between atoms: S_15  and  C_16
REMARK    9  A    between atoms: C_19  and  C_20
REMARK                            x       y       z     vdW  Elec       q    Type
REMARK                         _______ _______ _______ _____ _____    ______ ____
ROOT
ATOM      1  C   UNL     1       8.499   9.299  18.486  0.00  0.00    +0.000 C 
ATOM      2  O   UNL     1       7.861   9.661  17.492  0.00  0.00    +0.000 OA
ATOM      3  N   UNL     1       8.568   7.956  18.804  0.00  0.00    +0.000 N 
ATOM      4  H   UNL     1       8.855   7.588  19.709  0.00  0.00    +0.000 HD
ENDROOT
BRANCH   3   5
ATOM      5  N   UNL     1       7.835   7.098  17.970  0.00  0.00    +0.000 N 
ATOM      6  C   UNL     1       7.566   5.812  18.352  0.00  0.00    +0.000 C 
ATOM      7  O   UNL     1       7.935   5.380  19.462  0.00  0.00    +0.000 OA
ATOM      8  H   UNL     1       7.440   7.515  17.123  0.00  0.00    +0.000 HD
BRANCH   6   9
ATOM      9  C   UNL     1       6.766   4.974  17.346  0.00  0.00    +0.000 C 
BRANCH   9  10
ATOM     10  S   UNL     1       5.306   5.935  16.781  0.00  0.00    +0.000 S 
BRANCH  10  11
ATOM     11  C   UNL     1       3.944   5.400  17.793  0.00  0.00    +0.000 A 
ATOM     12  C   UNL     1       3.459   4.112  17.524  0.00  0.00    +0.000 A 
ATOM     13  C   UNL     1       2.423   3.554  18.275  0.00  0.00    +0.000 A 
ATOM     14  C   UNL     1       1.856   4.268  19.330  0.00  0.00    +0.000 A 
ATOM     15  C   UNL     1       0.760   3.668  20.160  0.00  0.00    +0.000 C 
ATOM     16  C   UNL     1       2.340   5.552  19.609  0.00  0.00    +0.000 A 
ATOM     17  C   UNL     1       3.379   6.117  18.849  0.00  0.00    +0.000 A 
ENDBRANCH  10  11
ENDBRANCH   9  10
ENDBRANCH   6   9
ENDBRANCH   3   5
BRANCH   1  18
ATOM     18  C   UNL     1       9.293  10.256  19.379  0.00  0.00    +0.000 C 
BRANCH  18  22
ATOM     19  C   UNL     1      10.754  13.883  17.442  0.00  0.00    +0.000 A 
ATOM     20  C   UNL     1       9.605  13.910  18.229  0.00  0.00    +0.000 A 
ATOM     21  C   UNL     1       9.158  12.746  18.883  0.00  0.00    +0.000 A 
ATOM     22  C   UNL     1       9.836  11.523  18.732  0.00  0.00    +0.000 A 
ATOM     23  C   UNL     1      11.029  11.542  18.006  0.00  0.00    +0.000 A 
ATOM     24  C   UNL     1      11.469  12.694  17.351  0.00  0.00    +0.000 A 
BRANCH  19  26
ATOM     25  C   UNL     1      10.306  16.173  17.138  0.00  0.00    +0.000 C 
ATOM     26  O   UNL     1      11.112  15.042  16.808  0.00  0.00    +0.000 OA
ENDBRANCH  19  26
ENDBRANCH  18  22
ENDBRANCH   1  18
TORSDOF 7
ENDMDL
MODEL 2
REMARK VINA RESULT:      -7.8      0.285      1.019
REMARK  Name = 
REMARK  9 active torsions:
REMARK  status: ('A' for Active; 'I' for Inactive)
REMARK    1  A    between atoms: C_1  and  O_2
REMARK    2  A    between atoms: O_2  and  C_3
REMARK    3  A    between atoms: C_6  and  C_7
REMARK    4  A    between atoms: C_7  and  C_8
REMARK    5  A    between atoms: N_10  and  N_11
REMARK    6  A    between atoms: C_12  and  C_14
REMARK    7  A    between atoms: C_14  and  S_15
REMARK    8  A    between atoms: S_15  and  C_16
REMARK    9  A    between atoms: C_19  and  C_20
REMARK                            x       y       z     vdW  Elec       q    Type
REMARK                         _______ _______ _______ _____ _____    ______ ____
ROOT
ATOM      1  C   UNL     1       8.515   9.236  18.493  0.00  0.00    +0.000 C 
ATOM      2  O   UNL     1       7.910   9.562  17.466  0.00  0.00    +0.000 OA
ATOM      3  N   UNL     1       8.576   7.904  18.858  0.00  0.00    +0.000 N 
ATOM      4  H   UNL     1       8.833   7.568  19.784  0.00  0.00    +0.000 HD
ENDROOT
BRANCH   3   5
ATOM      5  N   UNL     1       7.872   7.016  18.029  0.00  0.00    +0.000 N 
ATOM      6  C   UNL     1       7.723   5.702  18.380  0.00  0.00    +0.000 C 
ATOM      7  O   UNL     1       8.175   5.267  19.457  0.00  0.00    +0.000 OA
ATOM      8  H   UNL     1       7.406   7.426  17.216  0.00  0.00    +0.000 HD
BRANCH   6   9
ATOM      9  C   UNL     1       6.943   4.834  17.383  0.00  0.00    +0.000 C 
BRANCH   9  10
ATOM     10  S   UNL     1       5.426   5.727  16.857  0.00  0.00    +0.000 S 
BRANCH  10  11
ATOM     11  C   UNL     1       4.098   5.059  17.836  0.00  0.00    +0.000 A 
ATOM     12  C   UNL     1       3.577   5.917  18.815  0.00  0.00    +0.000 A 
ATOM     13  C   UNL     1       2.505   5.533  19.621  0.00  0.00    +0.000 A 
ATOM     14  C   UNL     1       1.913   4.281  19.454  0.00  0.00    +0.000 A 
ATOM     15  C   UNL     1       0.743   3.868  20.298  0.00  0.00    +0.000 C 
ATOM     16  C   UNL     1       2.423   3.422  18.473  0.00  0.00    +0.000 A 
ATOM     17  C   UNL     1       3.508   3.807  17.665  0.00  0.00    +0.000 A 
ENDBRANCH  10  11
ENDBRANCH   9  10
ENDBRANCH   6   9
ENDBRANCH   3   5
BRANCH   1  18
ATOM     18  C   UNL     1       9.276  10.224  19.379  0.00  0.00    +0.000 C 
BRANCH  18  22
ATOM     19  C   UNL     1      10.846  13.755  17.351  0.00  0.00    +0.000 A 
ATOM     20  C   UNL     1       9.591  13.780  17.954  0.00  0.00    +0.000 A 
ATOM     21  C   UNL     1       9.104  12.651  18.640  0.00  0.00    +0.000 A 
ATOM     22  C   UNL     1       9.853  11.462  18.704  0.00  0.00    +0.000 A 
ATOM     23  C   UNL     1      11.140  11.490  18.163  0.00  0.00    +0.000 A 
ATOM     24  C   UNL     1      11.621  12.607  17.476  0.00  0.00    +0.000 A 
BRANCH  19  26
ATOM     25  C   UNL     1      11.167  16.085  17.427  0.00  0.00    +0.000 C 
ATOM     26  O   UNL     1      11.243  14.875  16.672  0.00  0.00    +0.000 OA
ENDBRANCH  19  26
ENDBRANCH  18  22
ENDBRANCH   1  18
TORSDOF 7
ENDMDL
MODEL 3
REMARK VINA RESULT:      -7.7      2.724     10.441
REMARK  Name = 
REMARK  9 active torsions:
REMARK  status: ('A' for Active; 'I' for Inactive)
REMARK    1  A    between atoms: C_1  and  O_2
REMARK    2  A    between atoms: O_2  and  C_3
REMARK    3  A    between atoms: C_6  and  C_7
REMARK    4  A    between atoms: C_7  and  C_8
REMARK    5  A    between atoms: N_10  and  N_11
REMARK    6  A    between atoms: C_12  and  C_14
REMARK    7  A    between atoms: C_14  and  S_15
REMARK    8  A    between atoms: S_15  and  C_16
REMARK    9  A    between atoms: C_19  and  C_20
REMARK                            x       y       z     vdW  Elec       q    Type
REMARK                         _______ _______ _______ _____ _____    ______ ____
ROOT
ATOM      1  C   UNL     1       5.403   6.001  16.668  0.00  0.00    +0.000 C 
ATOM      2  O   UNL     1       4.633   6.916  16.974  0.00  0.00    +0.000 OA
ATOM      3  N   UNL     1       6.754   6.259  16.530  0.00  0.00    +0.000 N 
ATOM      4  H   UNL     1       7.416   5.646  16.058  0.00  0.00    +0.000 HD
ENDROOT
BRANCH   3   5
ATOM      5  N   UNL     1       7.135   7.599  16.702  0.00  0.00    +0.000 N 
ATOM      6  C   UNL     1       7.856   7.985  17.799  0.00  0.00    +0.000 C 
ATOM      7  O   UNL     1       8.223   7.154  18.653  0.00  0.00    +0.000 OA
ATOM      8  H   UNL     1       6.929   8.233  15.926  0.00  0.00    +0.000 HD
BRANCH   6   9
ATOM      9  C   UNL     1       8.200   9.479  17.875  0.00  0.00    +0.000 C 
BRANCH   9  10
ATOM     10  S   UNL     1       9.136   9.809  19.421  0.00  0.00    +0.000 S 
BRANCH  10  11
ATOM     11  C   UNL     1      10.160  11.225  19.083  0.00  0.00    +0.000 A 
ATOM     12  C   UNL     1       9.990  11.806  17.819  0.00  0.00    +0.000 A 
ATOM     13  C   UNL     1      10.698  12.948  17.442  0.00  0.00    +0.000 A 
ATOM     14  C   UNL     1      11.586  13.550  18.334  0.00  0.00    +0.000 A 
ATOM     15  C   UNL     1      12.333  14.793  17.950  0.00  0.00    +0.000 C 
ATOM     16  C   UNL     1      11.756  12.979  19.602  0.00  0.00    +0.000 A 
ATOM     17  C   UNL     1      11.046  11.824  19.977  0.00  0.00    +0.000 A 
ENDBRANCH  10  11
ENDBRANCH   9  10
ENDBRANCH   6   9
ENDBRANCH   3   5
BRANCH   1  18
ATOM     18  C   UNL     1       4.962   4.546  16.487  0.00  0.00    +0.000 C 
BRANCH  18  22
ATOM     19  C   UNL     1       2.297   2.777  19.455  0.00  0.00    +0.000 A 
ATOM     20  C   UNL     1       3.678   2.749  19.633  0.00  0.00    +0.000 A 
ATOM     21  C   UNL     1       4.533   3.354  18.691  0.00  0.00    +0.000 A 
ATOM     22  C   UNL     1       4.020   3.970  17.535  0.00  0.00    +0.000 A 
ATOM     23  C   UNL     1       2.630   4.055  17.423  0.00  0.00    +0.000 A 
ATOM     24  C   UNL     1       1.781   3.449  18.352  0.00  0.00    +0.000 A 
BRANCH  19  26
ATOM     25  C   UNL     1       1.422   2.824  21.640  0.00  0.00    +0.000 C 
ATOM     26  O   UNL     1       1.527   2.139  20.391  0.00  0.00    +0.000 OA
ENDBRANCH  19  26
ENDBRANCH  18  22
ENDBRANCH   1  18
TORSDOF 7
ENDMDL
MODEL 4
REMARK VINA RESULT:      -7.6      2.607     10.401
REMARK  Name = 
REMARK  9 active torsions:
REMARK  status: ('A' for Active; 'I' for Inactive)
REMARK    1  A    between atoms: C_1  and  O_2
REMARK    2  A    between atoms: O_2  and  C_3
REMARK    3  A    between atoms: C_6  and  C_7
REMARK    4  A    between atoms: C_7  and  C_8
REMARK    5  A    between atoms: N_10  and  N_11
REMARK    6  A    between atoms: C_12  and  C_14
REMARK    7  A    between atoms: C_14  and  S_15
REMARK    8  A    between atoms: S_15  and  C_16
REMARK    9  A    between atoms: C_19  and  C_20
REMARK                            x       y       z     vdW  Elec       q    Type
REMARK                         _______ _______ _______ _____ _____    ______ ____
ROOT
ATOM      1  C   UNL     1       5.510   5.968  16.051  0.00  0.00    +0.000 C 
ATOM      2  O   UNL     1       5.010   6.890  15.399  0.00  0.00    +0.000 OA
ATOM      3  N   UNL     1       6.577   6.223  16.891  0.00  0.00    +0.000 N 
ATOM      4  H   UNL     1       7.196   5.511  17.275  0.00  0.00    +0.000 HD
ENDROOT
BRANCH   3   5
ATOM      5  N   UNL     1       7.050   7.545  16.886  0.00  0.00    +0.000 N 
ATOM      6  C   UNL     1       7.916   7.982  17.851  0.00  0.00    +0.000 C 
ATOM      7  O   UNL     1       8.333   7.211  18.738  0.00  0.00    +0.000 OA
ATOM      8  H   UNL     1       6.790   8.117  16.078  0.00  0.00    +0.000 HD
BRANCH   6   9
ATOM      9  C   UNL     1       8.348   9.450  17.739  0.00  0.00    +0.000 C 
BRANCH   9  10
ATOM     10  S   UNL     1       9.175   9.960  19.299  0.00  0.00    +0.000 S 
BRANCH  10  11
ATOM     11  C   UNL     1       9.829  11.588  18.998  0.00  0.00    +0.000 A 
ATOM     12  C   UNL     1      10.296  12.271  20.130  0.00  0.00    +0.000 A 
ATOM     13  C   UNL     1      10.874  13.537  20.028  0.00  0.00    +0.000 A 
ATOM     14  C   UNL     1      11.014  14.147  18.781  0.00  0.00    +0.000 A 
ATOM     15  C   UNL     1      11.657  15.497  18.656  0.00  0.00    +0.000 C 
ATOM     16  C   UNL     1      10.556  13.467  17.645  0.00  0.00    +0.000 A 
ATOM     17  C   UNL     1       9.969  12.194  17.750  0.00  0.00    +0.000 A 
ENDBRANCH  10  11
ENDBRANCH   9  10
ENDBRANCH   6   9
ENDBRANCH   3   5
BRANCH   1  18
ATOM     18  C   UNL     1       4.974   4.535  16.041  0.00  0.00    +0.000 C 
BRANCH  18  22
ATOM     19  C   UNL     1       1.884   3.453  18.926  0.00  0.00    +0.000 A 
ATOM     20  C   UNL     1       2.782   2.499  18.455  0.00  0.00    +0.000 A 
ATOM     21  C   UNL     1       3.801   2.860  17.552  0.00  0.00    +0.000 A 
ATOM     22  C   UNL     1       3.918   4.179  17.079  0.00  0.00    +0.000 A 
ATOM     23  C   UNL     1       3.057   5.131  17.630  0.00  0.00    +0.000 A 
ATOM     24  C   UNL     1       2.041   4.773  18.519  0.00  0.00    +0.000 A 
BRANCH  19  26
ATOM     25  C   UNL     1       1.341   2.723  21.097  0.00  0.00    +0.000 C 
ATOM     26  O   UNL     1       0.897   3.027  19.774  0.00  0.00    +0.000 OA
ENDBRANCH  19  26
ENDBRANCH  18  22
ENDBRANCH   1  18
TORSDOF 7
ENDMDL
MODEL 5
REMARK VINA RESULT:      -7.6      0.895      1.282
REMARK  Name = 
REMARK  9 active torsions:
REMARK  status: ('A' for Active; 'I' for Inactive)
REMARK    1  A    between atoms: C_1  and  O_2
REMARK    2  A    between atoms: O_2  and  C_3
REMARK    3  A    between atoms: C_6  and  C_7
REMARK    4  A    between atoms: C_7  and  C_8
REMARK    5  A    between atoms: N_10  and  N_11
REMARK    6  A    between atoms: C_12  and  C_14
REMARK    7  A    between atoms: C_14  and  S_15
REMARK    8  A    between atoms: S_15  and  C_16
REMARK    9  A    between atoms: C_19  and  C_20
REMARK                            x       y       z     vdW  Elec       q    Type
REMARK                         _______ _______ _______ _____ _____    ______ ____
ROOT
ATOM      1  C   UNL     1       8.673   9.397  18.747  0.00  0.00    +0.000 C 
ATOM      2  O   UNL     1       7.990   9.796  17.799  0.00  0.00    +0.000 OA
ATOM      3  N   UNL     1       8.751   8.043  19.013  0.00  0.00    +0.000 N 
ATOM      4  H   UNL     1       9.079   7.642  19.889  0.00  0.00    +0.000 HD
ENDROOT
BRANCH   3   5
ATOM      5  N   UNL     1       7.974   7.217  18.185  0.00  0.00    +0.000 N 
ATOM      6  C   UNL     1       7.543   5.994  18.622  0.00  0.00    +0.000 C 
ATOM      7  O   UNL     1       7.799   5.597  19.776  0.00  0.00    +0.000 OA
ATOM      8  H   UNL     1       7.675   7.620  17.293  0.00  0.00    +0.000 HD
BRANCH   6   9
ATOM      9  C   UNL     1       6.712   5.185  17.618  0.00  0.00    +0.000 C 
BRANCH   9  10
ATOM     10  S   UNL     1       5.053   5.956  17.442  0.00  0.00    +0.000 S 
BRANCH  10  11
ATOM     11  C   UNL     1       4.013   5.165  18.651  0.00  0.00    +0.000 A 
ATOM     12  C   UNL     1       4.195   3.782  18.793  0.00  0.00    +0.000 A 
ATOM     13  C   UNL     1       3.475   3.047  19.736  0.00  0.00    +0.000 A 
ATOM     14  C   UNL     1       2.563   3.685  20.576  0.00  0.00    +0.000 A 
ATOM     15  C   UNL     1       1.803   2.910  21.611  0.00  0.00    +0.000 C 
ATOM     16  C   UNL     1       2.381   5.068  20.445  0.00  0.00    +0.000 A 
ATOM     17  C   UNL     1       3.102   5.806  19.490  0.00  0.00    +0.000 A 
ENDBRANCH  10  11
ENDBRANCH   9  10
ENDBRANCH   6   9
ENDBRANCH   3   5
BRANCH   1  18
ATOM     18  C   UNL     1       9.513  10.318  19.634  0.00  0.00    +0.000 C 
BRANCH  18  22
ATOM     19  C   UNL     1      11.144  13.958  17.864  0.00  0.00    +0.000 A 
ATOM     20  C   UNL     1      11.379  12.716  17.279  0.00  0.00    +0.000 A 
ATOM     21  C   UNL     1      10.820  11.548  17.833  0.00  0.00    +0.000 A 
ATOM     22  C   UNL     1      10.042  11.599  19.003  0.00  0.00    +0.000 A 
ATOM     23  C   UNL     1       9.755  12.864  19.521  0.00  0.00    +0.000 A 
ATOM     24  C   UNL     1      10.315  14.023  18.978  0.00  0.00    +0.000 A 
BRANCH  19  26
ATOM     25  C   UNL     1      10.847  15.974  16.686  0.00  0.00    +0.000 C 
ATOM     26  O   UNL     1      11.747  15.048  17.294  0.00  0.00    +0.000 OA
ENDBRANCH  19  26
ENDBRANCH  18  22
ENDBRANCH   1  18
TORSDOF 7
ENDMDL
MODEL 6
REMARK VINA RESULT:      -7.5      1.132      1.752
REMARK  Name = 
REMARK  9 active torsions:
REMARK  status: ('A' for Active; 'I' for Inactive)
REMARK    1  A    between atoms: C_1  and  O_2
REMARK    2  A    between atoms: O_2  and  C_3
REMARK    3  A    between atoms: C_6  and  C_7
REMARK    4  A    between atoms: C_7  and  C_8
REMARK    5  A    between atoms: N_10  and  N_11
REMARK    6  A    between atoms: C_12  and  C_14
REMARK    7  A    between atoms: C_14  and  S_15
REMARK    8  A    between atoms: S_15  and  C_16
REMARK    9  A    between atoms: C_19  and  C_20
REMARK                            x       y       z     vdW  Elec       q    Type
REMARK                         _______ _______ _______ _____ _____    ______ ____
ROOT
ATOM      1  C   UNL     1       8.243   9.268  18.131  0.00  0.00    +0.000 C 
ATOM      2  O   UNL     1       7.575  10.000  17.395  0.00  0.00    +0.000 OA
ATOM      3  N   UNL     1       8.070   7.898  18.076  0.00  0.00    +0.000 N 
ATOM      4  H   UNL     1       8.386   7.244  18.789  0.00  0.00    +0.000 HD
ENDROOT
BRANCH   3   5
ATOM      5  N   UNL     1       7.075   7.448  17.194  0.00  0.00    +0.000 N 
ATOM      6  C   UNL     1       6.969   6.122  16.876  0.00  0.00    +0.000 C 
ATOM      7  O   UNL     1       7.730   5.275  17.386  0.00  0.00    +0.000 OA
ATOM      8  H   UNL     1       6.389   8.145  16.890  0.00  0.00    +0.000 HD
BRANCH   6   9
ATOM      9  C   UNL     1       5.847   5.763  15.893  0.00  0.00    +0.000 C 
BRANCH   9  10
ATOM     10  S   UNL     1       5.486   3.965  16.014  0.00  0.00    +0.000 S 
BRANCH  10  11
ATOM     11  C   UNL     1       4.193   3.803  17.226  0.00  0.00    +0.000 A 
ATOM     12  C   UNL     1       3.507   4.985  17.540  0.00  0.00    +0.000 A 
ATOM     13  C   UNL     1       2.442   4.990  18.441  0.00  0.00    +0.000 A 
ATOM     14  C   UNL     1       2.024   3.802  19.040  0.00  0.00    +0.000 A 
ATOM     15  C   UNL     1       0.863   3.791  19.991  0.00  0.00    +0.000 C 
ATOM     16  C   UNL     1       2.699   2.616  18.726  0.00  0.00    +0.000 A 
ATOM     17  C   UNL     1       3.777   2.613  17.823  0.00  0.00    +0.000 A 
ENDBRANCH  10  11
ENDBRANCH   9  10
ENDBRANCH   6   9
ENDBRANCH   3   5
BRANCH   1  18
ATOM     18  C   UNL     1       9.325   9.783  19.084  0.00  0.00    +0.000 C 
BRANCH  18  22
ATOM     19  C   UNL     1      11.034  13.732  18.351  0.00  0.00    +0.000 A 
ATOM     20  C   UNL     1      11.289  12.673  17.482  0.00  0.00    +0.000 A 
ATOM     21  C   UNL     1      10.706  11.411  17.702  0.00  0.00    +0.000 A 
ATOM     22  C   UNL     1       9.881  11.176  18.816  0.00  0.00    +0.000 A 
ATOM     23  C   UNL     1       9.576  12.273  19.624  0.00  0.00    +0.000 A 
ATOM     24  C   UNL     1      10.160  13.524  19.413  0.00  0.00    +0.000 A 
BRANCH  19  26
ATOM     25  C   UNL     1      11.177  15.615  16.947  0.00  0.00    +0.000 C 
ATOM     26  O   UNL     1      11.661  14.922  18.098  0.00  0.00    +0.000 OA
ENDBRANCH  19  26
ENDBRANCH  18  22
ENDBRANCH   1  18
TORSDOF 7
ENDMDL
MODEL 7
REMARK VINA RESULT:      -7.4      1.304      1.978
REMARK  Name = 
REMARK  9 active torsions:
REMARK  status: ('A' for Active; 'I' for Inactive)
REMARK    1  A    between atoms: C_1  and  O_2
REMARK    2  A    between atoms: O_2  and  C_3
REMARK    3  A    between atoms: C_6  and  C_7
REMARK    4  A    between atoms: C_7  and  C_8
REMARK    5  A    between atoms: N_10  and  N_11
REMARK    6  A    between atoms: C_12  and  C_14
REMARK    7  A    between atoms: C_14  and  S_15
REMARK    8  A    between atoms: S_15  and  C_16
REMARK    9  A    between atoms: C_19  and  C_20
REMARK                            x       y       z     vdW  Elec       q    Type
REMARK                         _______ _______ _______ _____ _____    ______ ____
ROOT
ATOM      1  C   UNL     1       8.616   9.200  18.671  0.00  0.00    +0.000 C 
ATOM      2  O   UNL     1       7.938   9.578  17.710  0.00  0.00    +0.000 OA
ATOM      3  N   UNL     1       8.665   7.856  18.989  0.00  0.00    +0.000 N 
ATOM      4  H   UNL     1       8.987   7.482  19.879  0.00  0.00    +0.000 HD
ENDROOT
BRANCH   3   5
ATOM      5  N   UNL     1       7.867   7.017  18.195  0.00  0.00    +0.000 N 
ATOM      6  C   UNL     1       7.638   5.718  18.560  0.00  0.00    +0.000 C 
ATOM      7  O   UNL     1       8.101   5.258  19.623  0.00  0.00    +0.000 OA
ATOM      8  H   UNL     1       7.400   7.456  17.397  0.00  0.00    +0.000 HD
BRANCH   6   9
ATOM      9  C   UNL     1       6.760   4.904  17.601  0.00  0.00    +0.000 C 
BRANCH   9  10
ATOM     10  S   UNL     1       5.223   4.394  18.470  0.00  0.00    +0.000 S 
BRANCH  10  11
ATOM     11  C   UNL     1       4.127   5.794  18.392  0.00  0.00    +0.000 A 
ATOM     12  C   UNL     1       3.192   5.890  19.433  0.00  0.00    +0.000 A 
ATOM     13  C   UNL     1       2.304   6.962  19.516  0.00  0.00    +0.000 A 
ATOM     14  C   UNL     1       2.341   7.980  18.563  0.00  0.00    +0.000 A 
ATOM     15  C   UNL     1       1.408   9.151  18.656  0.00  0.00    +0.000 C 
ATOM     16  C   UNL     1       3.276   7.895  17.524  0.00  0.00    +0.000 A 
ATOM     17  C   UNL     1       4.167   6.810  17.438  0.00  0.00    +0.000 A 
ENDBRANCH  10  11
ENDBRANCH   9  10
ENDBRANCH   6   9
ENDBRANCH   3   5
BRANCH   1  18
ATOM     18  C   UNL     1       9.479  10.136  19.521  0.00  0.00    +0.000 C 
BRANCH  18  22
ATOM     19  C   UNL     1      10.124  14.138  17.905  0.00  0.00    +0.000 A 
ATOM     20  C   UNL     1       9.452  13.958  19.112  0.00  0.00    +0.000 A 
ATOM     21  C   UNL     1       9.279  12.668  19.648  0.00  0.00    +0.000 A 
ATOM     22  C   UNL     1       9.747  11.529  18.967  0.00  0.00    +0.000 A 
ATOM     23  C   UNL     1      10.487  11.744  17.803  0.00  0.00    +0.000 A 
ATOM     24  C   UNL     1      10.653  13.023  17.265  0.00  0.00    +0.000 A 
BRANCH  19  26
ATOM     25  C   UNL     1       9.060  16.218  17.616  0.00  0.00    +0.000 C 
ATOM     26  O   UNL     1      10.226  15.416  17.424  0.00  0.00    +0.000 OA
ENDBRANCH  19  26
ENDBRANCH  18  22
ENDBRANCH   1  18
TORSDOF 7
ENDMDL
MODEL 8
REMARK VINA RESULT:      -7.4      1.235      1.389
REMARK  Name = 
REMARK  9 active torsions:
REMARK  status: ('A' for Active; 'I' for Inactive)
REMARK    1  A    between atoms: C_1  and  O_2
REMARK    2  A    between atoms: O_2  and  C_3
REMARK    3  A    between atoms: C_6  and  C_7
REMARK    4  A    between atoms: C_7  and  C_8
REMARK    5  A    between atoms: N_10  and  N_11
REMARK    6  A    between atoms: C_12  and  C_14
REMARK    7  A    between atoms: C_14  and  S_15
REMARK    8  A    between atoms: S_15  and  C_16
REMARK    9  A    between atoms: C_19  and  C_20
REMARK                            x       y       z     vdW  Elec       q    Type
REMARK                         _______ _______ _______ _____ _____    ______ ____
ROOT
ATOM      1  C   UNL     1       8.253   9.266  18.191  0.00  0.00    +0.000 C 
ATOM      2  O   UNL     1       7.506  10.025  17.566  0.00  0.00    +0.000 OA
ATOM      3  N   UNL     1       8.157   7.900  18.001  0.00  0.00    +0.000 N 
ATOM      4  H   UNL     1       8.546   7.198  18.627  0.00  0.00    +0.000 HD
ENDROOT
BRANCH   3   5
ATOM      5  N   UNL     1       7.144   7.481  17.124  0.00  0.00    +0.000 N 
ATOM      6  C   UNL     1       6.300   6.460  17.467  0.00  0.00    +0.000 C 
ATOM      7  O   UNL     1       6.385   5.900  18.578  0.00  0.00    +0.000 OA
ATOM      8  H   UNL     1       7.018   8.039  16.275  0.00  0.00    +0.000 HD
BRANCH   6   9
ATOM      9  C   UNL     1       5.244   6.090  16.417  0.00  0.00    +0.000 C 
BRANCH   9  10
ATOM     10  S   UNL     1       5.022   4.266  16.395  0.00  0.00    +0.000 S 
BRANCH  10  11
ATOM     11  C   UNL     1       3.782   3.908  17.621  0.00  0.00    +0.000 A 
ATOM     12  C   UNL     1       4.232   3.210  18.751  0.00  0.00    +0.000 A 
ATOM     13  C   UNL     1       3.372   2.904  19.807  0.00  0.00    +0.000 A 
ATOM     14  C   UNL     1       2.038   3.308  19.765  0.00  0.00    +0.000 A 
ATOM     15  C   UNL     1       1.111   3.008  20.906  0.00  0.00    +0.000 C 
ATOM     16  C   UNL     1       1.583   4.012  18.643  0.00  0.00    +0.000 A 
ATOM     17  C   UNL     1       2.448   4.313  17.577  0.00  0.00    +0.000 A 
ENDBRANCH  10  11
ENDBRANCH   9  10
ENDBRANCH   6   9
ENDBRANCH   3   5
BRANCH   1  18
ATOM     18  C   UNL     1       9.352   9.748  19.141  0.00  0.00    +0.000 C 
BRANCH  18  22
ATOM     19  C   UNL     1      10.859  13.784  18.443  0.00  0.00    +0.000 A 
ATOM     20  C   UNL     1      10.318  13.430  19.677  0.00  0.00    +0.000 A 
ATOM     21  C   UNL     1       9.867  12.117  19.910  0.00  0.00    +0.000 A 
ATOM     22  C   UNL     1       9.919  11.141  18.898  0.00  0.00    +0.000 A 
ATOM     23  C   UNL     1      10.540  11.499  17.700  0.00  0.00    +0.000 A 
ATOM     24  C   UNL     1      10.981  12.803  17.465  0.00  0.00    +0.000 A 
BRANCH  19  26
ATOM     25  C   UNL     1      10.411  15.845  17.398  0.00  0.00    +0.000 C 
ATOM     26  O   UNL     1      11.245  15.087  18.274  0.00  0.00    +0.000 OA
ENDBRANCH  19  26
ENDBRANCH  18  22
ENDBRANCH   1  18
TORSDOF 7
ENDMDL
MODEL 9
REMARK VINA RESULT:      -7.4      5.882      7.505
REMARK  Name = 
REMARK  9 active torsions:
REMARK  status: ('A' for Active; 'I' for Inactive)
REMARK    1  A    between atoms: C_1  and  O_2
REMARK    2  A    between atoms: O_2  and  C_3
REMARK    3  A    between atoms: C_6  and  C_7
REMARK    4  A    between atoms: C_7  and  C_8
REMARK    5  A    between atoms: N_10  and  N_11
REMARK    6  A    between atoms: C_12  and  C_14
REMARK    7  A    between atoms: C_14  and  S_15
REMARK    8  A    between atoms: S_15  and  C_16
REMARK    9  A    between atoms: C_19  and  C_20
REMARK                            x       y       z     vdW  Elec       q    Type
REMARK                         _______ _______ _______ _____ _____    ______ ____
ROOT
ATOM      1  C   UNL     1       6.080   4.997  18.570  0.00  0.00    +0.000 C 
ATOM      2  O   UNL     1       5.463   5.885  19.167  0.00  0.00    +0.000 OA
ATOM      3  N   UNL     1       5.874   3.673  18.909  0.00  0.00    +0.000 N 
ATOM      4  H   UNL     1       6.493   2.906  18.654  0.00  0.00    +0.000 HD
ENDROOT
BRANCH   3   5
ATOM      5  N   UNL     1       4.991   3.451  19.978  0.00  0.00    +0.000 N 
ATOM      6  C   UNL     1       3.947   2.576  19.853  0.00  0.00    +0.000 C 
ATOM      7  O   UNL     1       3.774   1.927  18.802  0.00  0.00    +0.000 OA
ATOM      8  H   UNL     1       5.231   3.901  20.866  0.00  0.00    +0.000 HD
BRANCH   6   9
ATOM      9  C   UNL     1       3.050   2.433  21.089  0.00  0.00    +0.000 C 
BRANCH   9  10
ATOM     10  S   UNL     1       1.442   3.266  20.772  0.00  0.00    +0.000 S 
BRANCH  10  11
ATOM     11  C   UNL     1       1.838   4.812  19.983  0.00  0.00    +0.000 A 
ATOM     12  C   UNL     1       1.976   4.762  18.589  0.00  0.00    +0.000 A 
ATOM     13  C   UNL     1       2.241   5.911  17.843  0.00  0.00    +0.000 A 
ATOM     14  C   UNL     1       2.358   7.148  18.477  0.00  0.00    +0.000 A 
ATOM     15  C   UNL     1       2.617   8.394  17.682  0.00  0.00    +0.000 C 
ATOM     16  C   UNL     1       2.214   7.207  19.869  0.00  0.00    +0.000 A 
ATOM     17  C   UNL     1       1.953   6.047  20.620  0.00  0.00    +0.000 A 
ENDBRANCH  10  11
ENDBRANCH   9  10
ENDBRANCH   6   9
ENDBRANCH   3   5
BRANCH   1  18
ATOM     18  C   UNL     1       7.037   5.265  17.406  0.00  0.00    +0.000 C 
BRANCH  18  22
ATOM     19  C   UNL     1       5.690   3.969  13.463  0.00  0.00    +0.000 A 
ATOM     20  C   UNL     1       4.790   4.084  14.520  0.00  0.00    +0.000 A 
ATOM     21  C   UNL     1       5.222   4.538  15.781  0.00  0.00    +0.000 A 
ATOM     22  C   UNL     1       6.572   4.854  16.015  0.00  0.00    +0.000 A 
ATOM     23  C   UNL     1       7.436   4.809  14.919  0.00  0.00    +0.000 A 
ATOM     24  C   UNL     1       7.011   4.352  13.670  0.00  0.00    +0.000 A 
BRANCH  19  26
ATOM     25  C   UNL     1       6.022   2.482  11.669  0.00  0.00    +0.000 C 
ATOM     26  O   UNL     1       5.210   3.489  12.274  0.00  0.00    +0.000 OA
ENDBRANCH  19  26
ENDBRANCH  18  22
ENDBRANCH   1  18
TORSDOF 7
ENDMDL
