MODEL 1
REMARK VINA RESULT:      -7.5      0.000      0.000
REMARK  Name = 
REMARK  11 active torsions:
REMARK  status: ('A' for Active; 'I' for Inactive)
REMARK    1  A    between atoms: C_1  and  O_2
REMARK    2  A    between atoms: O_2  and  C_3
REMARK    3  A    between atoms: C_5  and  C_6
REMARK    4  A    between atoms: C_15  and  N_16
REMARK    5  A    between atoms: C_19  and  O_20
REMARK    6  A    between atoms: O_20  and  C_21
REMARK    7  A    between atoms: C_25  and  C_26
REMARK    8  A    between atoms: C_28  and  O_29
REMARK    9  A    between atoms: O_29  and  C_30
REMARK   10  A    between atoms: C_31  and  O_32
REMARK   11  A    between atoms: O_32  and  C_33
REMARK                            x       y       z     vdW  Elec       q    Type
REMARK                         _______ _______ _______ _____ _____    ______ ____
ROOT
ATOM      1  C   UNL     1       1.707   8.977  18.738  0.00  0.00    +0.000 C 
ATOM      2  O   UNL     1       1.831   9.425  17.584  0.00  0.00    +0.000 OA
ATOM      3  N   UNL     1       1.084   9.867  19.703  0.00  0.00    +0.000 N 
ATOM      4  C   UNL     1       0.927  11.293  19.256  0.00  0.00    +0.000 C 
ATOM      5  C   UNL     1       0.981  12.434  20.364  0.00  0.00    +0.000 C 
ATOM      6  C   UNL     1       0.068  12.098  21.504  0.00  0.00    +0.000 A 
ATOM      7  C   UNL     1      -0.408  10.796  21.504  0.00  0.00    +0.000 A 
ATOM      8  N   UNL     1      -1.790  11.046  21.518  0.00  0.00    +0.000 N 
ATOM      9  C   UNL     1      -2.055  12.338  22.030  0.00  0.00    +0.000 A 
ATOM     10  C   UNL     1      -3.226  13.143  22.193  0.00  0.00    +0.000 A 
ATOM     11  C   UNL     1      -3.216  14.287  23.053  0.00  0.00    +0.000 A 
ATOM     12  C   UNL     1      -1.994  14.706  23.546  0.00  0.00    +0.000 A 
ATOM     13  C   UNL     1      -0.783  14.078  23.108  0.00  0.00    +0.000 A 
ATOM     14  C   UNL     1      -0.812  12.890  22.323  0.00  0.00    +0.000 A 
ATOM     15  C   UNL     1       0.442   9.560  21.020  0.00  0.00    +0.000 C 
ATOM     16  C   UNL     1       1.599   9.306  22.017  0.00  0.00    +0.000 C 
ATOM     17  H   UNL     1      -2.508  10.415  21.184  0.00  0.00    +0.000 HD
ENDROOT
BRANCH   1  20
ATOM     18  C   UNL     1       4.082   5.969  17.898  0.00  0.00    +0.000 A 
ATOM     19  C   UNL     1       3.352   7.198  17.910  0.00  0.00    +0.000 A 
ATOM     20  C   UNL     1       2.349   7.556  18.883  0.00  0.00    +0.000 A 
ATOM     21  C   UNL     1       2.097   6.573  19.825  0.00  0.00    +0.000 A 
ATOM     22  C   UNL     1       2.832   5.317  19.842  0.00  0.00    +0.000 A 
ATOM     23  C   UNL     1       3.829   4.996  18.874  0.00  0.00    +0.000 A 
BRANCH  18  25
ATOM     24  C   UNL     1       5.152   6.487  15.804  0.00  0.00    +0.000 C 
ATOM     25  O   UNL     1       4.975   5.620  16.917  0.00  0.00    +0.000 OA
ENDBRANCH  18  25
BRANCH  22  26
ATOM     26  O   UNL     1       2.433   4.460  20.853  0.00  0.00    +0.000 OA
ATOM     27  C   UNL     1       1.186   3.777  20.680  0.00  0.00    +0.000 C 
ENDBRANCH  22  26
BRANCH  23  28
ATOM     28  O   UNL     1       4.362   3.740  18.911  0.00  0.00    +0.000 OA
ATOM     29  C   UNL     1       3.773   2.654  18.201  0.00  0.00    +0.000 C 
ENDBRANCH  23  28
ENDBRANCH   1  20
BRANCH  10  30
ATOM     30  N   UNL     1      -4.396  12.955  21.352  0.00  0.00    +0.000 N 
ATOM     31  O   UNL     1      -4.432  13.603  20.296  0.00  0.00    +0.000 OA
ATOM     32  O   UNL     1      -5.310  12.224  21.763  0.00  0.00    +0.000 OA
ENDBRANCH  10  30
BRANCH  11  33
ATOM     33  O   UNL     1      -4.422  14.905  23.286  0.00  0.00    +0.000 OA
ATOM     34  C   UNL     1      -4.567  15.950  24.239  0.00  0.00    +0.000 C 
ENDBRANCH  11  33
TORSDOF 6
ENDMDL
MODEL 2
REMARK VINA RESULT:      -7.2      3.637      4.964
REMARK  Name = 
REMARK  11 active torsions:
REMARK  status: ('A' for Active; 'I' for Inactive)
REMARK    1  A    between atoms: C_1  and  O_2
REMARK    2  A    between atoms: O_2  and  C_3
REMARK    3  A    between atoms: C_5  and  C_6
REMARK    4  A    between atoms: C_15  and  N_16
REMARK    5  A    between atoms: C_19  and  O_20
REMARK    6  A    between atoms: O_20  and  C_21
REMARK    7  A    between atoms: C_25  and  C_26
REMARK    8  A    between atoms: C_28  and  O_29
REMARK    9  A    between atoms: O_29  and  C_30
REMARK   10  A    between atoms: C_31  and  O_32
REMARK   11  A    between atoms: O_32  and  C_33
REMARK                            x       y       z     vdW  Elec       q    Type
REMARK                         _______ _______ _______ _____ _____    ______ ____
ROOT
ATOM      1  C   UNL     1       1.687   8.016  20.572  0.00  0.00    +0.000 C 
ATOM      2  O   UNL     1       1.646   7.878  21.807  0.00  0.00    +0.000 OA
ATOM      3  N   UNL     1       1.373   9.344  20.069  0.00  0.00    +0.000 N 
ATOM      4  C   UNL     1       0.779  10.289  21.074  0.00  0.00    +0.000 C 
ATOM      5  C   UNL     1      -0.236  11.397  20.549  0.00  0.00    +0.000 C 
ATOM      6  C   UNL     1       0.344  12.119  19.371  0.00  0.00    +0.000 A 
ATOM      7  C   UNL     1       1.470  11.527  18.821  0.00  0.00    +0.000 A 
ATOM      8  N   UNL     1       2.373  12.600  18.910  0.00  0.00    +0.000 N 
ATOM      9  C   UNL     1       1.676  13.829  18.988  0.00  0.00    +0.000 A 
ATOM     10  C   UNL     1       2.051  15.196  19.176  0.00  0.00    +0.000 A 
ATOM     11  C   UNL     1       1.136  16.255  18.877  0.00  0.00    +0.000 A 
ATOM     12  C   UNL     1      -0.176  15.910  18.609  0.00  0.00    +0.000 A 
ATOM     13  C   UNL     1      -0.610  14.552  18.746  0.00  0.00    +0.000 A 
ATOM     14  C   UNL     1       0.325  13.498  18.959  0.00  0.00    +0.000 A 
ATOM     15  C   UNL     1       1.681   9.967  18.743  0.00  0.00    +0.000 C 
ATOM     16  C   UNL     1       0.675   9.359  17.735  0.00  0.00    +0.000 C 
ATOM     17  H   UNL     1       3.381  12.522  18.945  0.00  0.00    +0.000 HD
ENDROOT
BRANCH   1  20
ATOM     18  C   UNL     1       1.490   4.165  19.846  0.00  0.00    +0.000 A 
ATOM     19  C   UNL     1       1.371   5.481  20.391  0.00  0.00    +0.000 A 
ATOM     20  C   UNL     1       1.992   6.663  19.844  0.00  0.00    +0.000 A 
ATOM     21  C   UNL     1       2.780   6.426  18.730  0.00  0.00    +0.000 A 
ATOM     22  C   UNL     1       2.911   5.098  18.150  0.00  0.00    +0.000 A 
ATOM     23  C   UNL     1       2.274   3.949  18.706  0.00  0.00    +0.000 A 
BRANCH  18  25
ATOM     24  C   UNL     1       1.463   2.608  21.683  0.00  0.00    +0.000 C 
ATOM     25  O   UNL     1       0.953   3.046  20.429  0.00  0.00    +0.000 OA
ENDBRANCH  18  25
BRANCH  22  26
ATOM     26  O   UNL     1       3.747   5.060  17.048  0.00  0.00    +0.000 OA
ATOM     27  C   UNL     1       5.127   5.377  17.260  0.00  0.00    +0.000 C 
ENDBRANCH  22  26
BRANCH  23  28
ATOM     28  O   UNL     1       2.570   2.736  18.154  0.00  0.00    +0.000 OA
ATOM     29  C   UNL     1       3.644   1.934  18.639  0.00  0.00    +0.000 C 
ENDBRANCH  23  28
ENDBRANCH   1  20
BRANCH  10  30
ATOM     30  N   UNL     1       3.283  15.556  19.856  0.00  0.00    +0.000 N 
ATOM     31  O   UNL     1       4.338  15.356  19.238  0.00  0.00    +0.000 OA
ATOM     32  O   UNL     1       3.217  15.970  21.023  0.00  0.00    +0.000 OA
ENDBRANCH  10  30
BRANCH  11  33
ATOM     33  O   UNL     1       1.628  17.538  18.922  0.00  0.00    +0.000 OA
ATOM     34  C   UNL     1       1.049  18.544  19.743  0.00  0.00    +0.000 C 
ENDBRANCH  11  33
TORSDOF 6
ENDMDL
MODEL 3
REMARK VINA RESULT:      -7.1      0.299      2.236
REMARK  Name = 
REMARK  11 active torsions:
REMARK  status: ('A' for Active; 'I' for Inactive)
REMARK    1  A    between atoms: C_1  and  O_2
REMARK    2  A    between atoms: O_2  and  C_3
REMARK    3  A    between atoms: C_5  and  C_6
REMARK    4  A    between atoms: C_15  and  N_16
REMARK    5  A    between atoms: C_19  and  O_20
REMARK    6  A    between atoms: O_20  and  C_21
REMARK    7  A    between atoms: C_25  and  C_26
REMARK    8  A    between atoms: C_28  and  O_29
REMARK    9  A    between atoms: O_29  and  C_30
REMARK   10  A    between atoms: C_31  and  O_32
REMARK   11  A    between atoms: O_32  and  C_33
REMARK                            x       y       z     vdW  Elec       q    Type
REMARK                         _______ _______ _______ _____ _____    ______ ____
ROOT
ATOM      1  C   UNL     1       1.802   9.120  18.523  0.00  0.00    +0.000 C 
ATOM      2  O   UNL     1       1.918   9.637  17.398  0.00  0.00    +0.000 OA
ATOM      3  N   UNL     1       1.151   9.935  19.536  0.00  0.00    +0.000 N 
ATOM      4  C   UNL     1       0.957  11.379  19.172  0.00  0.00    +0.000 C 
ATOM      5  C   UNL     1       0.974  12.454  20.345  0.00  0.00    +0.000 C 
ATOM      6  C   UNL     1       0.067  12.027  21.458  0.00  0.00    +0.000 A 
ATOM      7  C   UNL     1      -0.373  10.715  21.380  0.00  0.00    +0.000 A 
ATOM      8  N   UNL     1      -1.762  10.925  21.400  0.00  0.00    +0.000 N 
ATOM      9  C   UNL     1      -2.064  12.178  21.986  0.00  0.00    +0.000 A 
ATOM     10  C   UNL     1      -3.258  12.939  22.188  0.00  0.00    +0.000 A 
ATOM     11  C   UNL     1      -3.283  14.030  23.114  0.00  0.00    +0.000 A 
ATOM     12  C   UNL     1      -2.074  14.453  23.637  0.00  0.00    +0.000 A 
ATOM     13  C   UNL     1      -0.845  13.886  23.171  0.00  0.00    +0.000 A 
ATOM     14  C   UNL     1      -0.838  12.745  22.317  0.00  0.00    +0.000 A 
ATOM     15  C   UNL     1       0.513   9.533  20.829  0.00  0.00    +0.000 C 
ATOM     16  C   UNL     1       1.673   9.253  21.816  0.00  0.00    +0.000 C 
ATOM     17  H   UNL     1      -2.460  10.296  21.026  0.00  0.00    +0.000 HD
ENDROOT
BRANCH   1  20
ATOM     18  C   UNL     1       2.538   5.507  19.868  0.00  0.00    +0.000 A 
ATOM     19  C   UNL     1       2.068   6.842  19.664  0.00  0.00    +0.000 A 
ATOM     20  C   UNL     1       2.483   7.710  18.589  0.00  0.00    +0.000 A 
ATOM     21  C   UNL     1       3.439   7.159  17.752  0.00  0.00    +0.000 A 
ATOM     22  C   UNL     1       3.927   5.801  17.932  0.00  0.00    +0.000 A 
ATOM     23  C   UNL     1       3.488   4.960  18.998  0.00  0.00    +0.000 A 
BRANCH  18  25
ATOM     24  C   UNL     1       1.145   3.773  20.792  0.00  0.00    +0.000 C 
ATOM     25  O   UNL     1       2.186   4.730  20.942  0.00  0.00    +0.000 OA
ENDBRANCH  18  25
BRANCH  22  26
ATOM     26  O   UNL     1       4.885   5.434  17.003  0.00  0.00    +0.000 OA
ATOM     27  C   UNL     1       5.177   6.368  15.958  0.00  0.00    +0.000 C 
ENDBRANCH  22  26
BRANCH  23  28
ATOM     28  O   UNL     1       4.108   3.753  19.143  0.00  0.00    +0.000 OA
ATOM     29  C   UNL     1       3.647   2.587  18.465  0.00  0.00    +0.000 C 
ENDBRANCH  23  28
ENDBRANCH   1  20
BRANCH  10  30
ATOM     30  N   UNL     1      -4.418  12.769  21.332  0.00  0.00    +0.000 N 
ATOM     31  O   UNL     1      -4.396  13.357  20.242  0.00  0.00    +0.000 OA
ATOM     32  O   UNL     1      -5.380  12.113  21.761  0.00  0.00    +0.000 OA
ENDBRANCH  10  30
BRANCH  11  33
ATOM     33  O   UNL     1      -4.506  14.601  23.376  0.00  0.00    +0.000 OA
ATOM     34  C   UNL     1      -4.739  15.996  23.234  0.00  0.00    +0.000 C 
ENDBRANCH  11  33
TORSDOF 6
ENDMDL
MODEL 4
REMARK VINA RESULT:      -7.0      3.555      4.546
REMARK  Name = 
REMARK  11 active torsions:
REMARK  status: ('A' for Active; 'I' for Inactive)
REMARK    1  A    between atoms: C_1  and  O_2
REMARK    2  A    between atoms: O_2  and  C_3
REMARK    3  A    between atoms: C_5  and  C_6
REMARK    4  A    between atoms: C_15  and  N_16
REMARK    5  A    between atoms: C_19  and  O_20
REMARK    6  A    between atoms: O_20  and  C_21
REMARK    7  A    between atoms: C_25  and  C_26
REMARK    8  A    between atoms: C_28  and  O_29
REMARK    9  A    between atoms: O_29  and  C_30
REMARK   10  A    between atoms: C_31  and  O_32
REMARK   11  A    between atoms: O_32  and  C_33
REMARK                            x       y       z     vdW  Elec       q    Type
REMARK                         _______ _______ _______ _____ _____    ______ ____
ROOT
ATOM      1  C   UNL     1       1.633   8.196  20.750  0.00  0.00    +0.000 C 
ATOM      2  O   UNL     1       1.729   8.130  21.988  0.00  0.00    +0.000 OA
ATOM      3  N   UNL     1       1.284   9.499  20.207  0.00  0.00    +0.000 N 
ATOM      4  C   UNL     1       0.819  10.512  21.214  0.00  0.00    +0.000 C 
ATOM      5  C   UNL     1      -0.232  11.609  20.740  0.00  0.00    +0.000 C 
ATOM      6  C   UNL     1       0.222  12.250  19.465  0.00  0.00    +0.000 A 
ATOM      7  C   UNL     1       1.271  11.605  18.829  0.00  0.00    +0.000 A 
ATOM      8  N   UNL     1       2.193  12.662  18.754  0.00  0.00    +0.000 N 
ATOM      9  C   UNL     1       1.527  13.908  18.836  0.00  0.00    +0.000 A 
ATOM     10  C   UNL     1       1.940  15.275  18.900  0.00  0.00    +0.000 A 
ATOM     11  C   UNL     1       1.012  16.334  18.642  0.00  0.00    +0.000 A 
ATOM     12  C   UNL     1      -0.327  16.001  18.543  0.00  0.00    +0.000 A 
ATOM     13  C   UNL     1      -0.762  14.663  18.807  0.00  0.00    +0.000 A 
ATOM     14  C   UNL     1       0.176  13.604  18.976  0.00  0.00    +0.000 A 
ATOM     15  C   UNL     1       1.450  10.038  18.820  0.00  0.00    +0.000 C 
ATOM     16  C   UNL     1       0.329   9.395  17.968  0.00  0.00    +0.000 C 
ATOM     17  H   UNL     1       3.198  12.565  18.681  0.00  0.00    +0.000 HD
ENDROOT
BRANCH   1  20
ATOM     18  C   UNL     1       3.060   5.571  18.206  0.00  0.00    +0.000 A 
ATOM     19  C   UNL     1       2.715   6.754  18.930  0.00  0.00    +0.000 A 
ATOM     20  C   UNL     1       1.835   6.798  20.073  0.00  0.00    +0.000 A 
ATOM     21  C   UNL     1       1.290   5.572  20.416  0.00  0.00    +0.000 A 
ATOM     22  C   UNL     1       1.632   4.352  19.701  0.00  0.00    +0.000 A 
ATOM     23  C   UNL     1       2.516   4.337  18.582  0.00  0.00    +0.000 A 
BRANCH  18  25
ATOM     24  C   UNL     1       4.833   6.571  16.918  0.00  0.00    +0.000 C 
ATOM     25  O   UNL     1       3.837   5.568  17.075  0.00  0.00    +0.000 OA
ENDBRANCH  18  25
BRANCH  22  26
ATOM     26  O   UNL     1       0.980   3.231  20.185  0.00  0.00    +0.000 OA
ATOM     27  C   UNL     1       1.458   2.673  21.414  0.00  0.00    +0.000 C 
ENDBRANCH  22  26
BRANCH  23  28
ATOM     28  O   UNL     1       2.664   3.157  17.912  0.00  0.00    +0.000 OA
ATOM     29  C   UNL     1       3.670   2.213  18.268  0.00  0.00    +0.000 C 
ENDBRANCH  23  28
ENDBRANCH   1  20
BRANCH  10  30
ATOM     30  N   UNL     1       3.245  15.648  19.416  0.00  0.00    +0.000 N 
ATOM     31  O   UNL     1       4.219  15.414  18.687  0.00  0.00    +0.000 OA
ATOM     32  O   UNL     1       3.319  16.106  20.567  0.00  0.00    +0.000 OA
ENDBRANCH  10  30
BRANCH  11  33
ATOM     33  O   UNL     1       1.523  17.607  18.557  0.00  0.00    +0.000 OA
ATOM     34  C   UNL     1       1.084  18.537  17.576  0.00  0.00    +0.000 C 
ENDBRANCH  11  33
TORSDOF 6
ENDMDL
MODEL 5
REMARK VINA RESULT:      -6.7      1.030      2.196
REMARK  Name = 
REMARK  11 active torsions:
REMARK  status: ('A' for Active; 'I' for Inactive)
REMARK    1  A    between atoms: C_1  and  O_2
REMARK    2  A    between atoms: O_2  and  C_3
REMARK    3  A    between atoms: C_5  and  C_6
REMARK    4  A    between atoms: C_15  and  N_16
REMARK    5  A    between atoms: C_19  and  O_20
REMARK    6  A    between atoms: O_20  and  C_21
REMARK    7  A    between atoms: C_25  and  C_26
REMARK    8  A    between atoms: C_28  and  O_29
REMARK    9  A    between atoms: O_29  and  C_30
REMARK   10  A    between atoms: C_31  and  O_32
REMARK   11  A    between atoms: O_32  and  C_33
REMARK                            x       y       z     vdW  Elec       q    Type
REMARK                         _______ _______ _______ _____ _____    ______ ____
ROOT
ATOM      1  C   UNL     1       2.005   8.712  18.171  0.00  0.00    +0.000 C 
ATOM      2  O   UNL     1       2.154   9.226  17.048  0.00  0.00    +0.000 OA
ATOM      3  N   UNL     1       1.377   9.552  19.178  0.00  0.00    +0.000 N 
ATOM      4  C   UNL     1       1.244  11.004  18.813  0.00  0.00    +0.000 C 
ATOM      5  C   UNL     1       1.292  12.077  19.987  0.00  0.00    +0.000 C 
ATOM      6  C   UNL     1       0.357  11.686  21.090  0.00  0.00    +0.000 A 
ATOM      7  C   UNL     1      -0.134  10.392  21.006  0.00  0.00    +0.000 A 
ATOM      8  N   UNL     1      -1.514  10.658  21.012  0.00  0.00    +0.000 N 
ATOM      9  C   UNL     1      -1.772  11.921  21.595  0.00  0.00    +0.000 A 
ATOM     10  C   UNL     1      -2.937  12.730  21.786  0.00  0.00    +0.000 A 
ATOM     11  C   UNL     1      -2.928  13.821  22.713  0.00  0.00    +0.000 A 
ATOM     12  C   UNL     1      -1.709  14.194  23.249  0.00  0.00    +0.000 A 
ATOM     13  C   UNL     1      -0.498  13.579  22.795  0.00  0.00    +0.000 A 
ATOM     14  C   UNL     1      -0.528  12.439  21.940  0.00  0.00    +0.000 A 
ATOM     15  C   UNL     1       0.709   9.176  20.464  0.00  0.00    +0.000 C 
ATOM     16  C   UNL     1       1.846   8.850  21.462  0.00  0.00    +0.000 C 
ATOM     17  H   UNL     1      -2.233  10.057  20.630  0.00  0.00    +0.000 HD
ENDROOT
BRANCH   1  20
ATOM     18  C   UNL     1       2.086   4.812  18.589  0.00  0.00    +0.000 A 
ATOM     19  C   UNL     1       1.720   6.192  18.526  0.00  0.00    +0.000 A 
ATOM     20  C   UNL     1       2.628   7.277  18.242  0.00  0.00    +0.000 A 
ATOM     21  C   UNL     1       3.944   6.883  18.067  0.00  0.00    +0.000 A 
ATOM     22  C   UNL     1       4.342   5.485  18.118  0.00  0.00    +0.000 A 
ATOM     23  C   UNL     1       3.418   4.432  18.387  0.00  0.00    +0.000 A 
BRANCH  18  25
ATOM     24  C   UNL     1       0.841   3.662  20.301  0.00  0.00    +0.000 C 
ATOM     25  O   UNL     1       1.219   3.807  18.937  0.00  0.00    +0.000 OA
ENDBRANCH  18  25
BRANCH  22  26
ATOM     26  O   UNL     1       5.699   5.292  17.928  0.00  0.00    +0.000 OA
ATOM     27  C   UNL     1       6.556   5.509  19.054  0.00  0.00    +0.000 C 
ENDBRANCH  22  26
BRANCH  23  28
ATOM     28  O   UNL     1       3.925   3.173  18.536  0.00  0.00    +0.000 OA
ATOM     29  C   UNL     1       4.332   2.674  19.808  0.00  0.00    +0.000 C 
ENDBRANCH  23  28
ENDBRANCH   1  20
BRANCH  10  30
ATOM     30  N   UNL     1      -4.094  12.606  20.918  0.00  0.00    +0.000 N 
ATOM     31  O   UNL     1      -3.988  13.084  19.779  0.00  0.00    +0.000 OA
ATOM     32  O   UNL     1      -5.129  12.102  21.378  0.00  0.00    +0.000 OA
ENDBRANCH  10  30
BRANCH  11  33
ATOM     33  O   UNL     1      -4.129  14.439  22.962  0.00  0.00    +0.000 OA
ATOM     34  C   UNL     1      -4.447  14.997  24.231  0.00  0.00    +0.000 C 
ENDBRANCH  11  33
TORSDOF 6
ENDMDL
MODEL 6
REMARK VINA RESULT:      -6.7      1.456      1.671
REMARK  Name = 
REMARK  11 active torsions:
REMARK  status: ('A' for Active; 'I' for Inactive)
REMARK    1  A    between atoms: C_1  and  O_2
REMARK    2  A    between atoms: O_2  and  C_3
REMARK    3  A    between atoms: C_5  and  C_6
REMARK    4  A    between atoms: C_15  and  N_16
REMARK    5  A    between atoms: C_19  and  O_20
REMARK    6  A    between atoms: O_20  and  C_21
REMARK    7  A    between atoms: C_25  and  C_26
REMARK    8  A    between atoms: C_28  and  O_29
REMARK    9  A    between atoms: O_29  and  C_30
REMARK   10  A    between atoms: C_31  and  O_32
REMARK   11  A    between atoms: O_32  and  C_33
REMARK                            x       y       z     vdW  Elec       q    Type
REMARK                         _______ _______ _______ _____ _____    ______ ____
ROOT
ATOM      1  C   UNL     1       2.304   8.053  18.310  0.00  0.00    +0.000 C 
ATOM      2  O   UNL     1       2.624   8.314  17.137  0.00  0.00    +0.000 OA
ATOM      3  N   UNL     1       1.546   9.080  19.007  0.00  0.00    +0.000 N 
ATOM      4  C   UNL     1       1.489  10.415  18.320  0.00  0.00    +0.000 C 
ATOM      5  C   UNL     1       1.378  11.717  19.228  0.00  0.00    +0.000 C 
ATOM      6  C   UNL     1       0.286  11.557  20.240  0.00  0.00    +0.000 A 
ATOM      7  C   UNL     1      -0.205  10.267  20.368  0.00  0.00    +0.000 A 
ATOM      8  N   UNL     1      -1.567  10.502  20.115  0.00  0.00    +0.000 N 
ATOM      9  C   UNL     1      -1.891  11.857  20.365  0.00  0.00    +0.000 A 
ATOM     10  C   UNL     1      -3.060  12.665  20.204  0.00  0.00    +0.000 A 
ATOM     11  C   UNL     1      -3.172  13.931  20.862  0.00  0.00    +0.000 A 
ATOM     12  C   UNL     1      -2.040  14.435  21.477  0.00  0.00    +0.000 A 
ATOM     13  C   UNL     1      -0.784  13.758  21.350  0.00  0.00    +0.000 A 
ATOM     14  C   UNL     1      -0.703  12.460  20.768  0.00  0.00    +0.000 A 
ATOM     15  C   UNL     1       0.692   8.978  20.233  0.00  0.00    +0.000 C 
ATOM     16  C   UNL     1       1.666   8.898  21.433  0.00  0.00    +0.000 C 
ATOM     17  H   UNL     1      -2.230   9.819  19.771  0.00  0.00    +0.000 HD
ENDROOT
BRANCH   1  20
ATOM     18  C   UNL     1       4.809   5.035  18.449  0.00  0.00    +0.000 A 
ATOM     19  C   UNL     1       4.099   6.235  18.131  0.00  0.00    +0.000 A 
ATOM     20  C   UNL     1       2.890   6.679  18.782  0.00  0.00    +0.000 A 
ATOM     21  C   UNL     1       2.418   5.812  19.752  0.00  0.00    +0.000 A 
ATOM     22  C   UNL     1       3.125   4.589  20.101  0.00  0.00    +0.000 A 
ATOM     23  C   UNL     1       4.326   4.182  19.449  0.00  0.00    +0.000 A 
BRANCH  18  25
ATOM     24  C   UNL     1       6.015   4.872  16.371  0.00  0.00    +0.000 C 
ATOM     25  O   UNL     1       5.912   4.596  17.762  0.00  0.00    +0.000 OA
ENDBRANCH  18  25
BRANCH  22  26
ATOM     26  O   UNL     1       2.492   3.851  21.086  0.00  0.00    +0.000 OA
ATOM     27  C   UNL     1       1.169   3.380  20.805  0.00  0.00    +0.000 C 
ENDBRANCH  22  26
BRANCH  23  28
ATOM     28  O   UNL     1       4.832   2.956  19.770  0.00  0.00    +0.000 OA
ATOM     29  C   UNL     1       4.242   1.751  19.290  0.00  0.00    +0.000 C 
ENDBRANCH  23  28
ENDBRANCH   1  20
BRANCH  10  30
ATOM     30  N   UNL     1      -4.078  12.335  19.223  0.00  0.00    +0.000 N 
ATOM     31  O   UNL     1      -5.256  12.396  19.602  0.00  0.00    +0.000 OA
ATOM     32  O   UNL     1      -3.717  11.949  18.100  0.00  0.00    +0.000 OA
ENDBRANCH  10  30
BRANCH  11  33
ATOM     33  O   UNL     1      -4.389  14.566  20.793  0.00  0.00    +0.000 OA
ATOM     34  C   UNL     1      -4.932  15.288  21.891  0.00  0.00    +0.000 C 
ENDBRANCH  11  33
TORSDOF 6
ENDMDL
MODEL 7
REMARK VINA RESULT:      -6.7      1.863      2.947
REMARK  Name = 
REMARK  11 active torsions:
REMARK  status: ('A' for Active; 'I' for Inactive)
REMARK    1  A    between atoms: C_1  and  O_2
REMARK    2  A    between atoms: O_2  and  C_3
REMARK    3  A    between atoms: C_5  and  C_6
REMARK    4  A    between atoms: C_15  and  N_16
REMARK    5  A    between atoms: C_19  and  O_20
REMARK    6  A    between atoms: O_20  and  C_21
REMARK    7  A    between atoms: C_25  and  C_26
REMARK    8  A    between atoms: C_28  and  O_29
REMARK    9  A    between atoms: O_29  and  C_30
REMARK   10  A    between atoms: C_31  and  O_32
REMARK   11  A    between atoms: O_32  and  C_33
REMARK                            x       y       z     vdW  Elec       q    Type
REMARK                         _______ _______ _______ _____ _____    ______ ____
ROOT
ATOM      1  C   UNL     1       2.700   7.790  17.846  0.00  0.00    +0.000 C 
ATOM      2  O   UNL     1       3.091   8.152  16.722  0.00  0.00    +0.000 OA
ATOM      3  N   UNL     1       1.902   8.755  18.584  0.00  0.00    +0.000 N 
ATOM      4  C   UNL     1       1.889  10.146  18.017  0.00  0.00    +0.000 C 
ATOM      5  C   UNL     1       1.724  11.363  19.030  0.00  0.00    +0.000 C 
ATOM      6  C   UNL     1       0.571  11.121  19.954  0.00  0.00    +0.000 A 
ATOM      7  C   UNL     1       0.071   9.828  19.936  0.00  0.00    +0.000 A 
ATOM      8  N   UNL     1      -1.272  10.094  19.621  0.00  0.00    +0.000 N 
ATOM      9  C   UNL     1      -1.609  11.423  19.972  0.00  0.00    +0.000 A 
ATOM     10  C   UNL     1      -2.764  12.251  19.812  0.00  0.00    +0.000 A 
ATOM     11  C   UNL     1      -2.915  13.454  20.573  0.00  0.00    +0.000 A 
ATOM     12  C   UNL     1      -1.823  13.893  21.299  0.00  0.00    +0.000 A 
ATOM     13  C   UNL     1      -0.562  13.221  21.189  0.00  0.00    +0.000 A 
ATOM     14  C   UNL     1      -0.448  11.980  20.499  0.00  0.00    +0.000 A 
ATOM     15  C   UNL     1       0.974   8.550  19.741  0.00  0.00    +0.000 C 
ATOM     16  C   UNL     1       1.871   8.356  20.987  0.00  0.00    +0.000 C 
ATOM     17  H   UNL     1      -1.913   9.449  19.178  0.00  0.00    +0.000 HD
ENDROOT
BRANCH   1  20
ATOM     18  C   UNL     1       2.589   3.961  18.698  0.00  0.00    +0.000 A 
ATOM     19  C   UNL     1       2.281   5.323  18.393  0.00  0.00    +0.000 A 
ATOM     20  C   UNL     1       3.254   6.375  18.227  0.00  0.00    +0.000 A 
ATOM     21  C   UNL     1       4.564   5.973  18.430  0.00  0.00    +0.000 A 
ATOM     22  C   UNL     1       4.905   4.591  18.731  0.00  0.00    +0.000 A 
ATOM     23  C   UNL     1       3.921   3.569  18.877  0.00  0.00    +0.000 A 
BRANCH  18  25
ATOM     24  C   UNL     1       0.767   3.138  20.040  0.00  0.00    +0.000 C 
ATOM     25  O   UNL     1       1.641   2.997  18.927  0.00  0.00    +0.000 OA
ENDBRANCH  18  25
BRANCH  22  26
ATOM     26  O   UNL     1       6.263   4.387  18.908  0.00  0.00    +0.000 OA
ATOM     27  C   UNL     1       7.128   4.758  17.830  0.00  0.00    +0.000 C 
ENDBRANCH  22  26
BRANCH  23  28
ATOM     28  O   UNL     1       4.347   2.338  19.285  0.00  0.00    +0.000 OA
ATOM     29  C   UNL     1       4.471   2.007  20.666  0.00  0.00    +0.000 C 
ENDBRANCH  23  28
ENDBRANCH   1  20
BRANCH  10  30
ATOM     30  N   UNL     1      -3.721  12.016  18.745  0.00  0.00    +0.000 N 
ATOM     31  O   UNL     1      -3.257  11.868  17.605  0.00  0.00    +0.000 OA
ATOM     32  O   UNL     1      -4.931  12.047  19.016  0.00  0.00    +0.000 OA
ENDBRANCH  10  30
BRANCH  11  33
ATOM     33  O   UNL     1      -4.125  14.101  20.487  0.00  0.00    +0.000 OA
ATOM     34  C   UNL     1      -4.422  15.259  21.256  0.00  0.00    +0.000 C 
ENDBRANCH  11  33
TORSDOF 6
ENDMDL
MODEL 8
REMARK VINA RESULT:      -6.6      3.290      4.495
REMARK  Name = 
REMARK  11 active torsions:
REMARK  status: ('A' for Active; 'I' for Inactive)
REMARK    1  A    between atoms: C_1  and  O_2
REMARK    2  A    between atoms: O_2  and  C_3
REMARK    3  A    between atoms: C_5  and  C_6
REMARK    4  A    between atoms: C_15  and  N_16
REMARK    5  A    between atoms: C_19  and  O_20
REMARK    6  A    between atoms: O_20  and  C_21
REMARK    7  A    between atoms: C_25  and  C_26
REMARK    8  A    between atoms: C_28  and  O_29
REMARK    9  A    between atoms: O_29  and  C_30
REMARK   10  A    between atoms: C_31  and  O_32
REMARK   11  A    between atoms: O_32  and  C_33
REMARK                            x       y       z     vdW  Elec       q    Type
REMARK                         _______ _______ _______ _____ _____    ______ ____
ROOT
ATOM      1  C   UNL     1       1.181   8.160  20.587  0.00  0.00    +0.000 C 
ATOM      2  O   UNL     1       0.531   7.828  21.594  0.00  0.00    +0.000 OA
ATOM      3  N   UNL     1       1.031   9.541  20.158  0.00  0.00    +0.000 N 
ATOM      4  C   UNL     1      -0.089  10.300  20.812  0.00  0.00    +0.000 C 
ATOM      5  C   UNL     1      -0.803  11.448  19.973  0.00  0.00    +0.000 C 
ATOM      6  C   UNL     1       0.217  12.362  19.366  0.00  0.00    +0.000 A 
ATOM      7  C   UNL     1       1.521  11.895  19.416  0.00  0.00    +0.000 A 
ATOM      8  N   UNL     1       2.133  12.965  20.089  0.00  0.00    +0.000 N 
ATOM      9  C   UNL     1       1.369  14.147  19.940  0.00  0.00    +0.000 A 
ATOM     10  C   UNL     1       1.450  15.478  20.459  0.00  0.00    +0.000 A 
ATOM     11  C   UNL     1       0.710  16.545  19.857  0.00  0.00    +0.000 A 
ATOM     12  C   UNL     1      -0.238  16.210  18.907  0.00  0.00    +0.000 A 
ATOM     13  C   UNL     1      -0.535  14.836  18.633  0.00  0.00    +0.000 A 
ATOM     14  C   UNL     1       0.265  13.788  19.173  0.00  0.00    +0.000 A 
ATOM     15  C   UNL     1       1.905  10.373  19.272  0.00  0.00    +0.000 C 
ATOM     16  C   UNL     1       1.624   9.904  17.824  0.00  0.00    +0.000 C 
ATOM     17  H   UNL     1       2.984  12.910  20.634  0.00  0.00    +0.000 HD
ENDROOT
BRANCH   1  20
ATOM     18  C   UNL     1       2.549   4.493  20.308  0.00  0.00    +0.000 A 
ATOM     19  C   UNL     1       1.941   5.718  20.724  0.00  0.00    +0.000 A 
ATOM     20  C   UNL     1       1.955   6.948  19.968  0.00  0.00    +0.000 A 
ATOM     21  C   UNL     1       2.662   6.874  18.780  0.00  0.00    +0.000 A 
ATOM     22  C   UNL     1       3.283   5.637  18.329  0.00  0.00    +0.000 A 
ATOM     23  C   UNL     1       3.240   4.433  19.092  0.00  0.00    +0.000 A 
BRANCH  18  25
ATOM     24  C   UNL     1       1.369   2.704  21.408  0.00  0.00    +0.000 C 
ATOM     25  O   UNL     1       2.588   3.360  21.080  0.00  0.00    +0.000 OA
ENDBRANCH  18  25
BRANCH  22  26
ATOM     26  O   UNL     1       3.950   5.765  17.124  0.00  0.00    +0.000 OA
ATOM     27  C   UNL     1       5.082   6.641  17.090  0.00  0.00    +0.000 C 
ENDBRANCH  22  26
BRANCH  23  28
ATOM     28  O   UNL     1       3.965   3.371  18.633  0.00  0.00    +0.000 OA
ATOM     29  C   UNL     1       3.363   2.325  17.874  0.00  0.00    +0.000 C 
ENDBRANCH  23  28
ENDBRANCH   1  20
BRANCH  10  30
ATOM     30  N   UNL     1       2.116  15.760  21.717  0.00  0.00    +0.000 N 
ATOM     31  O   UNL     1       3.324  16.031  21.659  0.00  0.00    +0.000 OA
ATOM     32  O   UNL     1       1.469  15.648  22.770  0.00  0.00    +0.000 OA
ENDBRANCH  10  30
BRANCH  11  33
ATOM     33  O   UNL     1       0.971  17.818  20.305  0.00  0.00    +0.000 OA
ATOM     34  C   UNL     1      -0.028  18.631  20.905  0.00  0.00    +0.000 C 
ENDBRANCH  11  33
TORSDOF 6
ENDMDL
MODEL 9
REMARK VINA RESULT:      -6.6      1.380      1.525
REMARK  Name = 
REMARK  11 active torsions:
REMARK  status: ('A' for Active; 'I' for Inactive)
REMARK    1  A    between atoms: C_1  and  O_2
REMARK    2  A    between atoms: O_2  and  C_3
REMARK    3  A    between atoms: C_5  and  C_6
REMARK    4  A    between atoms: C_15  and  N_16
REMARK    5  A    between atoms: C_19  and  O_20
REMARK    6  A    between atoms: O_20  and  C_21
REMARK    7  A    between atoms: C_25  and  C_26
REMARK    8  A    between atoms: C_28  and  O_29
REMARK    9  A    between atoms: O_29  and  C_30
REMARK   10  A    between atoms: C_31  and  O_32
REMARK   11  A    between atoms: O_32  and  C_33
REMARK                            x       y       z     vdW  Elec       q    Type
REMARK                         _______ _______ _______ _____ _____    ______ ____
ROOT
ATOM      1  C   UNL     1       2.060   8.307  18.161  0.00  0.00    +0.000 C 
ATOM      2  O   UNL     1       2.305   8.760  17.029  0.00  0.00    +0.000 OA
ATOM      3  N   UNL     1       1.429   9.227  19.093  0.00  0.00    +0.000 N 
ATOM      4  C   UNL     1       1.410  10.667  18.662  0.00  0.00    +0.000 C 
ATOM      5  C   UNL     1       1.458  11.785  19.793  0.00  0.00    +0.000 C 
ATOM      6  C   UNL     1       0.438  11.501  20.852  0.00  0.00    +0.000 A 
ATOM      7  C   UNL     1      -0.129  10.238  20.792  0.00  0.00    +0.000 A 
ATOM      8  N   UNL     1      -1.487  10.587  20.704  0.00  0.00    +0.000 N 
ATOM      9  C   UNL     1      -1.698  11.888  21.219  0.00  0.00    +0.000 A 
ATOM     10  C   UNL     1      -2.818  12.773  21.306  0.00  0.00    +0.000 A 
ATOM     11  C   UNL     1      -2.793  13.902  22.186  0.00  0.00    +0.000 A 
ATOM     12  C   UNL     1      -1.586  14.224  22.779  0.00  0.00    +0.000 A 
ATOM     13  C   UNL     1      -0.392  13.516  22.424  0.00  0.00    +0.000 A 
ATOM     14  C   UNL     1      -0.445  12.344  21.616  0.00  0.00    +0.000 A 
ATOM     15  C   UNL     1       0.666   8.949  20.351  0.00  0.00    +0.000 C 
ATOM     16  C   UNL     1       1.721   8.599  21.428  0.00  0.00    +0.000 C 
ATOM     17  H   UNL     1      -2.219  10.014  20.304  0.00  0.00    +0.000 HD
ENDROOT
BRANCH   1  20
ATOM     18  C   UNL     1       4.599   5.442  19.023  0.00  0.00    +0.000 A 
ATOM     19  C   UNL     1       3.951   6.691  18.770  0.00  0.00    +0.000 A 
ATOM     20  C   UNL     1       2.586   6.841  18.328  0.00  0.00    +0.000 A 
ATOM     21  C   UNL     1       1.924   5.643  18.117  0.00  0.00    +0.000 A 
ATOM     22  C   UNL     1       2.557   4.359  18.374  0.00  0.00    +0.000 A 
ATOM     23  C   UNL     1       3.906   4.242  18.823  0.00  0.00    +0.000 A 
BRANCH  18  25
ATOM     24  C   UNL     1       6.908   5.932  18.541  0.00  0.00    +0.000 C 
ATOM     25  O   UNL     1       5.922   5.324  19.366  0.00  0.00    +0.000 OA
ENDBRANCH  18  25
BRANCH  22  26
ATOM     26  O   UNL     1       1.740   3.278  18.095  0.00  0.00    +0.000 OA
ATOM     27  C   UNL     1       0.832   2.859  19.120  0.00  0.00    +0.000 C 
ENDBRANCH  22  26
BRANCH  23  28
ATOM     28  O   UNL     1       4.434   2.986  18.910  0.00  0.00    +0.000 OA
ATOM     29  C   UNL     1       4.389   2.235  20.120  0.00  0.00    +0.000 C 
ENDBRANCH  23  28
ENDBRANCH   1  20
BRANCH  10  30
ATOM     30  N   UNL     1      -3.928  12.682  20.375  0.00  0.00    +0.000 N 
ATOM     31  O   UNL     1      -5.066  12.791  20.854  0.00  0.00    +0.000 OA
ATOM     32  O   UNL     1      -3.685  12.434  19.184  0.00  0.00    +0.000 OA
ENDBRANCH  10  30
BRANCH  11  33
ATOM     33  O   UNL     1      -3.966  14.603  22.337  0.00  0.00    +0.000 OA
ATOM     34  C   UNL     1      -4.421  15.054  23.606  0.00  0.00    +0.000 C 
ENDBRANCH  11  33
TORSDOF 6
ENDMDL
