MODEL 1
REMARK VINA RESULT:      -6.3      0.000      0.000
REMARK  Name = 
REMARK  5 active torsions:
REMARK  status: ('A' for Active; 'I' for Inactive)
REMARK    1  A    between atoms: C_1  and  C_2
REMARK    2  A    between atoms: C_2  and  N_3
REMARK    3  A    between atoms: C_2  and  C_16
REMARK    4  A    between atoms: N_3  and  C_4
REMARK    5  A    between atoms: C_4  and  C_5
REMARK                            x       y       z     vdW  Elec       q    Type
REMARK                         _______ _______ _______ _____ _____    ______ ____
ROOT
ATOM      1  C   UNL     1       3.238   6.805  17.559  0.00  0.00    +0.000 C 
ENDROOT
BRANCH   1   2
ATOM      2  C   UNL     1       2.463   7.869  18.265  0.00  0.00    +0.000 A 
ATOM      3  C   UNL     1       2.021   9.091  17.806  0.00  0.00    +0.000 A 
ATOM      4  N   UNL     1       1.280   9.836  18.698  0.00  0.00    +0.000 NA
ATOM      5  C   UNL     1       1.141   9.210  19.848  0.00  0.00    +0.000 A 
ATOM      6  N   UNL     1       0.488   9.754  20.919  0.00  0.00    +0.000 N 
ATOM      7  C   UNL     1      -0.252  11.006  20.672  0.00  0.00    +0.000 C 
ATOM      8  C   UNL     1      -0.470  11.744  22.001  0.00  0.00    +0.000 C 
ATOM      9  O   UNL     1      -1.159  10.916  22.952  0.00  0.00    +0.000 OA
ATOM     10  C   UNL     1      -0.395   9.728  23.215  0.00  0.00    +0.000 C 
ATOM     11  C   UNL     1      -0.152   8.907  21.936  0.00  0.00    +0.000 C 
ATOM     12  S   UNL     1       1.931   7.665  19.882  0.00  0.00    +0.000 S 
ENDBRANCH   1   2
BRANCH   1  13
ATOM     13  N   UNL     1       4.304   6.273  18.409  0.00  0.00    +0.000 NA
ATOM     14  H   UNL     1       5.141   6.842  18.279  0.00  0.00    +0.000 HD
BRANCH  13  16
ATOM     15  C   UNL     1       4.690   4.618  16.574  0.00  0.00    +0.000 C 
ATOM     16  C   UNL     1       4.657   4.879  18.086  0.00  0.00    +0.000 C 
BRANCH  16  17
ATOM     17  C   UNL     1       3.655   3.944  18.737  0.00  0.00    +0.000 A 
ATOM     18  C   UNL     1       3.039   2.817  18.215  0.00  0.00    +0.000 A 
ATOM     19  C   UNL     1       2.158   2.191  19.146  0.00  0.00    +0.000 A 
ATOM     20  C   UNL     1       2.151   2.858  20.342  0.00  0.00    +0.000 A 
ATOM     21 CL   UNL     1       1.246   2.443  21.741  0.00  0.00    +0.000 Cl
ATOM     22  S   UNL     1       3.160   4.216  20.364  0.00  0.00    +0.000 S 
ENDBRANCH  16  17
ENDBRANCH  13  16
ENDBRANCH   1  13
TORSDOF 4
ENDMDL
MODEL 2
REMARK VINA RESULT:      -6.2      4.403      7.608
REMARK  Name = 
REMARK  5 active torsions:
REMARK  status: ('A' for Active; 'I' for Inactive)
REMARK    1  A    between atoms: C_1  and  C_2
REMARK    2  A    between atoms: C_2  and  N_3
REMARK    3  A    between atoms: C_2  and  C_16
REMARK    4  A    between atoms: N_3  and  C_4
REMARK    5  A    between atoms: C_4  and  C_5
REMARK                            x       y       z     vdW  Elec       q    Type
REMARK                         _______ _______ _______ _____ _____    ______ ____
ROOT
ATOM      1  C   UNL     1       1.920   9.674  18.189  0.00  0.00    +0.000 C 
ENDROOT
BRANCH   1   2
ATOM      2  C   UNL     1       2.392   8.269  18.385  0.00  0.00    +0.000 A 
ATOM      3  C   UNL     1       3.336   7.551  17.684  0.00  0.00    +0.000 A 
ATOM      4  N   UNL     1       3.585   6.276  18.146  0.00  0.00    +0.000 NA
ATOM      5  C   UNL     1       2.843   5.992  19.198  0.00  0.00    +0.000 A 
ATOM      6  N   UNL     1       2.864   4.774  19.817  0.00  0.00    +0.000 N 
ATOM      7  C   UNL     1       3.919   3.836  19.391  0.00  0.00    +0.000 C 
ATOM      8  C   UNL     1       3.511   2.403  19.761  0.00  0.00    +0.000 C 
ATOM      9  O   UNL     1       3.250   2.279  21.167  0.00  0.00    +0.000 OA
ATOM     10  C   UNL     1       2.184   3.165  21.550  0.00  0.00    +0.000 C 
ATOM     11  C   UNL     1       2.521   4.634  21.241  0.00  0.00    +0.000 C 
ATOM     12  S   UNL     1       1.793   7.294  19.660  0.00  0.00    +0.000 S 
ENDBRANCH   1   2
BRANCH   1  13
ATOM     13  N   UNL     1       0.542   9.706  17.697  0.00  0.00    +0.000 NA
ATOM     14  H   UNL     1       0.546  10.041  16.733  0.00  0.00    +0.000 HD
BRANCH  13  16
ATOM     15  C   UNL     1      -0.478  10.155  19.937  0.00  0.00    +0.000 C 
ATOM     16  C   UNL     1      -0.327  10.606  18.478  0.00  0.00    +0.000 C 
BRANCH  16  17
ATOM     17  C   UNL     1      -1.696  10.669  17.826  0.00  0.00    +0.000 A 
ATOM     18  C   UNL     1      -2.171   9.987  16.716  0.00  0.00    +0.000 A 
ATOM     19  C   UNL     1      -3.528  10.308  16.413  0.00  0.00    +0.000 A 
ATOM     20  C   UNL     1      -4.033  11.209  17.312  0.00  0.00    +0.000 A 
ATOM     21 CL   UNL     1      -5.624  11.857  17.328  0.00  0.00    +0.000 Cl
ATOM     22  S   UNL     1      -2.918  11.684  18.492  0.00  0.00    +0.000 S 
ENDBRANCH  16  17
ENDBRANCH  13  16
ENDBRANCH   1  13
TORSDOF 4
ENDMDL
MODEL 3
REMARK VINA RESULT:      -6.1      4.158      7.947
REMARK  Name = 
REMARK  5 active torsions:
REMARK  status: ('A' for Active; 'I' for Inactive)
REMARK    1  A    between atoms: C_1  and  C_2
REMARK    2  A    between atoms: C_2  and  N_3
REMARK    3  A    between atoms: C_2  and  C_16
REMARK    4  A    between atoms: N_3  and  C_4
REMARK    5  A    between atoms: C_4  and  C_5
REMARK                            x       y       z     vdW  Elec       q    Type
REMARK                         _______ _______ _______ _____ _____    ______ ____
ROOT
ATOM      1  C   UNL     1       1.522   5.850  20.751  0.00  0.00    +0.000 C 
ENDROOT
BRANCH   1   2
ATOM      2  C   UNL     1       2.302   5.423  19.551  0.00  0.00    +0.000 A 
ATOM      3  C   UNL     1       1.862   4.914  18.348  0.00  0.00    +0.000 A 
ATOM      4  N   UNL     1       2.839   4.658  17.411  0.00  0.00    +0.000 NA
ATOM      5  C   UNL     1       4.037   4.959  17.870  0.00  0.00    +0.000 A 
ATOM      6  N   UNL     1       5.183   4.754  17.154  0.00  0.00    +0.000 N 
ATOM      7  C   UNL     1       5.016   4.371  15.739  0.00  0.00    +0.000 C 
ATOM      8  C   UNL     1       6.296   3.688  15.238  0.00  0.00    +0.000 C 
ATOM      9  O   UNL     1       7.443   4.534  15.411  0.00  0.00    +0.000 OA
ATOM     10  C   UNL     1       7.616   4.852  16.802  0.00  0.00    +0.000 C 
ATOM     11  C   UNL     1       6.385   5.570  17.383  0.00  0.00    +0.000 C 
ATOM     12  S   UNL     1       4.009   5.569  19.494  0.00  0.00    +0.000 S 
ENDBRANCH   1   2
BRANCH   1  13
ATOM     13  N   UNL     1       1.773   7.256  21.074  0.00  0.00    +0.000 NA
ATOM     14  H   UNL     1       1.580   7.403  22.065  0.00  0.00    +0.000 HD
BRANCH  13  16
ATOM     15  C   UNL     1       1.695   8.936  19.223  0.00  0.00    +0.000 C 
ATOM     16  C   UNL     1       0.918   8.184  20.310  0.00  0.00    +0.000 C 
BRANCH  16  17
ATOM     17  C   UNL     1       0.289   9.183  21.263  0.00  0.00    +0.000 A 
ATOM     18  C   UNL     1      -0.342   8.960  22.477  0.00  0.00    +0.000 A 
ATOM     19  C   UNL     1      -0.798  10.164  23.091  0.00  0.00    +0.000 A 
ATOM     20  C   UNL     1      -0.482  11.256  22.325  0.00  0.00    +0.000 A 
ATOM     21 CL   UNL     1      -0.829  12.898  22.690  0.00  0.00    +0.000 Cl
ATOM     22  S   UNL     1       0.329  10.865  20.893  0.00  0.00    +0.000 S 
ENDBRANCH  16  17
ENDBRANCH  13  16
ENDBRANCH   1  13
TORSDOF 4
ENDMDL
MODEL 4
REMARK VINA RESULT:      -6.1      1.299      1.859
REMARK  Name = 
REMARK  5 active torsions:
REMARK  status: ('A' for Active; 'I' for Inactive)
REMARK    1  A    between atoms: C_1  and  C_2
REMARK    2  A    between atoms: C_2  and  N_3
REMARK    3  A    between atoms: C_2  and  C_16
REMARK    4  A    between atoms: N_3  and  C_4
REMARK    5  A    between atoms: C_4  and  C_5
REMARK                            x       y       z     vdW  Elec       q    Type
REMARK                         _______ _______ _______ _____ _____    ______ ____
ROOT
ATOM      1  C   UNL     1       3.542   6.446  17.449  0.00  0.00    +0.000 C 
ENDROOT
BRANCH   1   2
ATOM      2  C   UNL     1       2.728   7.309  18.358  0.00  0.00    +0.000 A 
ATOM      3  C   UNL     1       2.367   7.110  19.673  0.00  0.00    +0.000 A 
ATOM      4  N   UNL     1       1.643   8.127  20.258  0.00  0.00    +0.000 NA
ATOM      5  C   UNL     1       1.434   9.116  19.412  0.00  0.00    +0.000 A 
ATOM      6  N   UNL     1       0.701  10.225  19.730  0.00  0.00    +0.000 N 
ATOM      7  C   UNL     1       0.319  10.379  21.146  0.00  0.00    +0.000 C 
ATOM      8  C   UNL     1      -0.886  11.325  21.253  0.00  0.00    +0.000 C 
ATOM      9  O   UNL     1      -0.604  12.599  20.653  0.00  0.00    +0.000 OA
ATOM     10  C   UNL     1      -0.285  12.430  19.262  0.00  0.00    +0.000 C 
ATOM     11  C   UNL     1       0.935  11.514  19.061  0.00  0.00    +0.000 C 
ATOM     12  S   UNL     1       2.121   8.827  17.845  0.00  0.00    +0.000 S 
ENDBRANCH   1   2
BRANCH   1  13
ATOM     13  N   UNL     1       4.626   5.784  18.176  0.00  0.00    +0.000 NA
ATOM     14  H   UNL     1       5.512   6.212  17.903  0.00  0.00    +0.000 HD
BRANCH  13  16
ATOM     15  C   UNL     1       4.669   4.044  16.381  0.00  0.00    +0.000 C 
ATOM     16  C   UNL     1       4.719   4.342  17.885  0.00  0.00    +0.000 C 
BRANCH  16  17
ATOM     17  C   UNL     1       3.584   3.616  18.581  0.00  0.00    +0.000 A 
ATOM     18  C   UNL     1       2.618   2.779  18.045  0.00  0.00    +0.000 A 
ATOM     19  C   UNL     1       1.719   2.274  19.030  0.00  0.00    +0.000 A 
ATOM     20  C   UNL     1       2.045   2.736  20.277  0.00  0.00    +0.000 A 
ATOM     21 CL   UNL     1       1.239   2.370  21.749  0.00  0.00    +0.000 Cl
ATOM     22  S   UNL     1       3.388   3.765  20.286  0.00  0.00    +0.000 S 
ENDBRANCH  16  17
ENDBRANCH  13  16
ENDBRANCH   1  13
TORSDOF 4
ENDMDL
MODEL 5
REMARK VINA RESULT:      -6.1      2.976      3.776
REMARK  Name = 
REMARK  5 active torsions:
REMARK  status: ('A' for Active; 'I' for Inactive)
REMARK    1  A    between atoms: C_1  and  C_2
REMARK    2  A    between atoms: C_2  and  N_3
REMARK    3  A    between atoms: C_2  and  C_16
REMARK    4  A    between atoms: N_3  and  C_4
REMARK    5  A    between atoms: C_4  and  C_5
REMARK                            x       y       z     vdW  Elec       q    Type
REMARK                         _______ _______ _______ _____ _____    ______ ____
ROOT
ATOM      1  C   UNL     1       2.835   5.836  19.172  0.00  0.00    +0.000 C 
ENDROOT
BRANCH   1   2
ATOM      2  C   UNL     1       2.284   7.223  19.094  0.00  0.00    +0.000 A 
ATOM      3  C   UNL     1       2.221   8.088  18.023  0.00  0.00    +0.000 A 
ATOM      4  N   UNL     1       1.602   9.296  18.263  0.00  0.00    +0.000 NA
ATOM      5  C   UNL     1       1.184   9.384  19.509  0.00  0.00    +0.000 A 
ATOM      6  N   UNL     1       0.580  10.500  20.015  0.00  0.00    +0.000 N 
ATOM      7  C   UNL     1       0.214  11.549  19.045  0.00  0.00    +0.000 C 
ATOM      8  C   UNL     1       0.047  12.889  19.776  0.00  0.00    +0.000 C 
ATOM      9  O   UNL     1      -0.928  12.795  20.826  0.00  0.00    +0.000 OA
ATOM     10  C   UNL     1      -0.524  11.804  21.786  0.00  0.00    +0.000 C 
ATOM     11  C   UNL     1      -0.362  10.415  21.143  0.00  0.00    +0.000 C 
ATOM     12  S   UNL     1       1.547   7.970  20.448  0.00  0.00    +0.000 S 
ENDBRANCH   1   2
BRANCH   1  13
ATOM     13  N   UNL     1       3.264   5.362  17.855  0.00  0.00    +0.000 NA
ATOM     14  H   UNL     1       2.507   4.816  17.442  0.00  0.00    +0.000 HD
BRANCH  13  16
ATOM     15  C   UNL     1       4.375   3.461  19.041  0.00  0.00    +0.000 C 
ATOM     16  C   UNL     1       4.458   4.498  17.914  0.00  0.00    +0.000 C 
BRANCH  16  17
ATOM     17  C   UNL     1       5.690   5.360  18.111  0.00  0.00    +0.000 A 
ATOM     18  C   UNL     1       6.784   5.151  18.937  0.00  0.00    +0.000 A 
ATOM     19  C   UNL     1       7.756   6.190  18.837  0.00  0.00    +0.000 A 
ATOM     20  C   UNL     1       7.369   7.140  17.929  0.00  0.00    +0.000 A 
ATOM     21 CL   UNL     1       8.242   8.551  17.489  0.00  0.00    +0.000 Cl
ATOM     22  S   UNL     1       5.871   6.819  17.212  0.00  0.00    +0.000 S 
ENDBRANCH  16  17
ENDBRANCH  13  16
ENDBRANCH   1  13
TORSDOF 4
ENDMDL
MODEL 6
REMARK VINA RESULT:      -6.0      2.663      3.533
REMARK  Name = 
REMARK  5 active torsions:
REMARK  status: ('A' for Active; 'I' for Inactive)
REMARK    1  A    between atoms: C_1  and  C_2
REMARK    2  A    between atoms: C_2  and  N_3
REMARK    3  A    between atoms: C_2  and  C_16
REMARK    4  A    between atoms: N_3  and  C_4
REMARK    5  A    between atoms: C_4  and  C_5
REMARK                            x       y       z     vdW  Elec       q    Type
REMARK                         _______ _______ _______ _____ _____    ______ ____
ROOT
ATOM      1  C   UNL     1       2.652   5.160  19.958  0.00  0.00    +0.000 C 
ENDROOT
BRANCH   1   2
ATOM      2  C   UNL     1       2.296   6.580  19.661  0.00  0.00    +0.000 A 
ATOM      3  C   UNL     1       2.478   7.312  18.508  0.00  0.00    +0.000 A 
ATOM      4  N   UNL     1       1.993   8.602  18.532  0.00  0.00    +0.000 NA
ATOM      5  C   UNL     1       1.436   8.884  19.692  0.00  0.00    +0.000 A 
ATOM      6  N   UNL     1       0.919  10.114  19.990  0.00  0.00    +0.000 N 
ATOM      7  C   UNL     1       0.814  11.073  18.875  0.00  0.00    +0.000 C 
ATOM      8  C   UNL     1       0.729  12.501  19.432  0.00  0.00    +0.000 C 
ATOM      9  O   UNL     1      -0.374  12.644  20.340  0.00  0.00    +0.000 OA
ATOM     10  C   UNL     1      -0.224  11.736  21.444  0.00  0.00    +0.000 C 
ATOM     11  C   UNL     1      -0.160  10.271  20.978  0.00  0.00    +0.000 C 
ATOM     12  S   UNL     1       1.495   7.562  20.814  0.00  0.00    +0.000 S 
ENDBRANCH   1   2
BRANCH   1  13
ATOM     13  N   UNL     1       2.526   4.321  18.765  0.00  0.00    +0.000 NA
ATOM     14  H   UNL     1       1.826   3.600  18.945  0.00  0.00    +0.000 HD
BRANCH  13  16
ATOM     15  C   UNL     1       4.474   3.002  19.614  0.00  0.00    +0.000 C 
ATOM     16  C   UNL     1       3.783   3.641  18.403  0.00  0.00    +0.000 C 
BRANCH  16  17
ATOM     17  C   UNL     1       4.723   4.640  17.755  0.00  0.00    +0.000 A 
ATOM     18  C   UNL     1       4.787   5.056  16.434  0.00  0.00    +0.000 A 
ATOM     19  C   UNL     1       5.809   6.027  16.211  0.00  0.00    +0.000 A 
ATOM     20  C   UNL     1       6.471   6.320  17.374  0.00  0.00    +0.000 A 
ATOM     21 CL   UNL     1       7.759   7.439  17.564  0.00  0.00    +0.000 Cl
ATOM     22  S   UNL     1       5.905   5.452  18.711  0.00  0.00    +0.000 S 
ENDBRANCH  16  17
ENDBRANCH  13  16
ENDBRANCH   1  13
TORSDOF 4
ENDMDL
MODEL 7
REMARK VINA RESULT:      -6.0      2.800      3.863
REMARK  Name = 
REMARK  5 active torsions:
REMARK  status: ('A' for Active; 'I' for Inactive)
REMARK    1  A    between atoms: C_1  and  C_2
REMARK    2  A    between atoms: C_2  and  N_3
REMARK    3  A    between atoms: C_2  and  C_16
REMARK    4  A    between atoms: N_3  and  C_4
REMARK    5  A    between atoms: C_4  and  C_5
REMARK                            x       y       z     vdW  Elec       q    Type
REMARK                         _______ _______ _______ _____ _____    ______ ____
ROOT
ATOM      1  C   UNL     1       1.685   6.958  20.938  0.00  0.00    +0.000 C 
ENDROOT
BRANCH   1   2
ATOM      2  C   UNL     1       1.309   8.398  21.066  0.00  0.00    +0.000 A 
ATOM      3  C   UNL     1       1.236   9.194  22.189  0.00  0.00    +0.000 A 
ATOM      4  N   UNL     1       0.900  10.513  21.970  0.00  0.00    +0.000 NA
ATOM      5  C   UNL     1       0.708  10.754  20.689  0.00  0.00    +0.000 A 
ATOM      6  N   UNL     1       0.320  11.973  20.211  0.00  0.00    +0.000 N 
ATOM      7  C   UNL     1       0.324  13.091  21.173  0.00  0.00    +0.000 C 
ATOM      8  C   UNL     1      -0.595  14.211  20.665  0.00  0.00    +0.000 C 
ATOM      9  O   UNL     1      -0.204  14.655  19.357  0.00  0.00    +0.000 OA
ATOM     10  C   UNL     1      -0.266  13.562  18.426  0.00  0.00    +0.000 C 
ATOM     11  C   UNL     1       0.653  12.401  18.843  0.00  0.00    +0.000 C 
ATOM     12  S   UNL     1       0.928   9.350  19.693  0.00  0.00    +0.000 S 
ENDBRANCH   1   2
BRANCH   1  13
ATOM     13  N   UNL     1       2.591   6.745  19.808  0.00  0.00    +0.000 NA
ATOM     14  H   UNL     1       2.499   7.531  19.163  0.00  0.00    +0.000 HD
BRANCH  13  16
ATOM     15  C   UNL     1       1.738   4.399  19.950  0.00  0.00    +0.000 C 
ATOM     16  C   UNL     1       2.294   5.513  19.055  0.00  0.00    +0.000 C 
BRANCH  16  17
ATOM     17  C   UNL     1       3.559   5.027  18.372  0.00  0.00    +0.000 A 
ATOM     18  C   UNL     1       3.699   4.283  17.210  0.00  0.00    +0.000 A 
ATOM     19  C   UNL     1       5.063   4.031  16.879  0.00  0.00    +0.000 A 
ATOM     20  C   UNL     1       5.906   4.604  17.794  0.00  0.00    +0.000 A 
ATOM     21 CL   UNL     1       7.622   4.559  17.774  0.00  0.00    +0.000 Cl
ATOM     22  S   UNL     1       5.099   5.419  19.037  0.00  0.00    +0.000 S 
ENDBRANCH  16  17
ENDBRANCH  13  16
ENDBRANCH   1  13
TORSDOF 4
ENDMDL
MODEL 8
REMARK VINA RESULT:      -6.0      2.708      3.778
REMARK  Name = 
REMARK  5 active torsions:
REMARK  status: ('A' for Active; 'I' for Inactive)
REMARK    1  A    between atoms: C_1  and  C_2
REMARK    2  A    between atoms: C_2  and  N_3
REMARK    3  A    between atoms: C_2  and  C_16
REMARK    4  A    between atoms: N_3  and  C_4
REMARK    5  A    between atoms: C_4  and  C_5
REMARK                            x       y       z     vdW  Elec       q    Type
REMARK                         _______ _______ _______ _____ _____    ______ ____
ROOT
ATOM      1  C   UNL     1       1.952   7.625  20.096  0.00  0.00    +0.000 C 
ENDROOT
BRANCH   1   2
ATOM      2  C   UNL     1       1.188   8.668  20.846  0.00  0.00    +0.000 A 
ATOM      3  C   UNL     1       1.302   9.070  22.159  0.00  0.00    +0.000 A 
ATOM      4  N   UNL     1       0.475  10.104  22.544  0.00  0.00    +0.000 NA
ATOM      5  C   UNL     1      -0.285  10.509  21.547  0.00  0.00    +0.000 A 
ATOM      6  N   UNL     1      -1.227  11.490  21.679  0.00  0.00    +0.000 N 
ATOM      7  C   UNL     1      -1.222  12.242  22.948  0.00  0.00    +0.000 C 
ATOM      8  C   UNL     1      -2.592  12.902  23.159  0.00  0.00    +0.000 C 
ATOM      9  O   UNL     1      -2.938  13.754  22.057  0.00  0.00    +0.000 OA
ATOM     10  C   UNL     1      -2.987  12.990  20.840  0.00  0.00    +0.000 C 
ATOM     11  C   UNL     1      -1.640  12.314  20.533  0.00  0.00    +0.000 C 
ATOM     12  S   UNL     1      -0.014   9.620  20.081  0.00  0.00    +0.000 S 
ENDBRANCH   1   2
BRANCH   1  13
ATOM     13  N   UNL     1       2.102   6.404  20.889  0.00  0.00    +0.000 NA
ATOM     14  H   UNL     1       3.034   6.397  21.306  0.00  0.00    +0.000 HD
BRANCH  13  16
ATOM     15  C   UNL     1       1.792   3.923  20.959  0.00  0.00    +0.000 C 
ATOM     16  C   UNL     1       1.962   5.175  20.088  0.00  0.00    +0.000 C 
BRANCH  16  17
ATOM     17  C   UNL     1       3.186   5.012  19.205  0.00  0.00    +0.000 A 
ATOM     18  C   UNL     1       4.515   5.283  19.490  0.00  0.00    +0.000 A 
ATOM     19  C   UNL     1       5.383   4.987  18.398  0.00  0.00    +0.000 A 
ATOM     20  C   UNL     1       4.681   4.490  17.332  0.00  0.00    +0.000 A 
ATOM     21 CL   UNL     1       5.329   3.993  15.821  0.00  0.00    +0.000 Cl
ATOM     22  S   UNL     1       3.016   4.386  17.609  0.00  0.00    +0.000 S 
ENDBRANCH  16  17
ENDBRANCH  13  16
ENDBRANCH   1  13
TORSDOF 4
ENDMDL
MODEL 9
REMARK VINA RESULT:      -6.0      2.846      3.518
REMARK  Name = 
REMARK  5 active torsions:
REMARK  status: ('A' for Active; 'I' for Inactive)
REMARK    1  A    between atoms: C_1  and  C_2
REMARK    2  A    between atoms: C_2  and  N_3
REMARK    3  A    between atoms: C_2  and  C_16
REMARK    4  A    between atoms: N_3  and  C_4
REMARK    5  A    between atoms: C_4  and  C_5
REMARK                            x       y       z     vdW  Elec       q    Type
REMARK                         _______ _______ _______ _____ _____    ______ ____
ROOT
ATOM      1  C   UNL     1       3.590   6.590  17.727  0.00  0.00    +0.000 C 
ENDROOT
BRANCH   1   2
ATOM      2  C   UNL     1       2.722   7.644  18.334  0.00  0.00    +0.000 A 
ATOM      3  C   UNL     1       2.214   8.797  17.775  0.00  0.00    +0.000 A 
ATOM      4  N   UNL     1       1.396   9.549  18.591  0.00  0.00    +0.000 NA
ATOM      5  C   UNL     1       1.262   8.997  19.780  0.00  0.00    +0.000 A 
ATOM      6  N   UNL     1       0.541   9.569  20.790  0.00  0.00    +0.000 N 
ATOM      7  C   UNL     1      -0.274  10.745  20.433  0.00  0.00    +0.000 C 
ATOM      8  C   UNL     1      -0.585  11.558  21.699  0.00  0.00    +0.000 C 
ATOM      9  O   UNL     1      -1.245  10.753  22.688  0.00  0.00    +0.000 OA
ATOM     10  C   UNL     1      -0.412   9.642  23.057  0.00  0.00    +0.000 C 
ATOM     11  C   UNL     1      -0.073   8.752  21.848  0.00  0.00    +0.000 C 
ATOM     12  S   UNL     1       2.154   7.518  19.946  0.00  0.00    +0.000 S 
ENDBRANCH   1   2
BRANCH   1  13
ATOM     13  N   UNL     1       3.680   5.414  18.595  0.00  0.00    +0.000 NA
ATOM     14  H   UNL     1       3.551   5.712  19.563  0.00  0.00    +0.000 HD
BRANCH  13  16
ATOM     15  C   UNL     1       6.079   5.460  19.300  0.00  0.00    +0.000 C 
ATOM     16  C   UNL     1       4.985   4.733  18.509  0.00  0.00    +0.000 C 
BRANCH  16  17
ATOM     17  C   UNL     1       5.400   4.630  17.053  0.00  0.00    +0.000 A 
ATOM     18  C   UNL     1       4.774   3.970  16.007  0.00  0.00    +0.000 A 
ATOM     19  C   UNL     1       5.469   4.114  14.770  0.00  0.00    +0.000 A 
ATOM     20  C   UNL     1       6.589   4.889  14.922  0.00  0.00    +0.000 A 
ATOM     21 CL   UNL     1       7.706   5.327  13.694  0.00  0.00    +0.000 Cl
ATOM     22  S   UNL     1       6.826   5.429  16.507  0.00  0.00    +0.000 S 
ENDBRANCH  16  17
ENDBRANCH  13  16
ENDBRANCH   1  13
TORSDOF 4
ENDMDL
