MODEL 1
REMARK VINA RESULT:      -7.5      0.000      0.000
REMARK  Name = 
REMARK  8 active torsions:
REMARK  status: ('A' for Active; 'I' for Inactive)
REMARK    1  A    between atoms: C_1  and  C_2
REMARK    2  A    between atoms: C_2  and  O_3
REMARK    3  A    between atoms: O_3  and  C_4
REMARK    4  A    between atoms: C_4  and  C_6
REMARK    5  A    between atoms: N_9  and  C_10
REMARK    6  A    between atoms: C_13  and  O_14
REMARK    7  A    between atoms: O_14  and  C_15
REMARK    8  A    between atoms: C_25  and  C_26
REMARK                            x       y       z     vdW  Elec       q    Type
REMARK                         _______ _______ _______ _____ _____    ______ ____
ROOT
ATOM      1  C   UNL     1       1.752  14.768  18.730  0.00  0.00    +0.000 A 
ATOM      2  S   UNL     1       2.229  13.175  18.334  0.00  0.00    +0.000 S 
ATOM      3  C   UNL     1       0.595  12.652  18.338  0.00  0.00    +0.000 A 
ATOM      4  N   UNL     1       0.265  11.364  18.087  0.00  0.00    +0.000 N 
ATOM      5  N   UNL     1      -0.278  13.622  18.499  0.00  0.00    +0.000 NA
ATOM      6  C   UNL     1       0.366  14.837  18.783  0.00  0.00    +0.000 A 
ATOM      7  H   UNL     1      -0.664  11.190  17.721  0.00  0.00    +0.000 HD
ENDROOT
BRANCH   4   8
ATOM      8  C   UNL     1       0.962  10.220  18.529  0.00  0.00    +0.000 A 
ATOM      9  C   UNL     1       1.829   9.490  17.703  0.00  0.00    +0.000 A 
ATOM     10  C   UNL     1       2.397   8.288  18.128  0.00  0.00    +0.000 A 
ATOM     11  C   UNL     1       2.136   7.796  19.407  0.00  0.00    +0.000 A 
ATOM     12  C   UNL     1       1.336   8.554  20.273  0.00  0.00    +0.000 A 
ATOM     13 CL   UNL     1       1.086   8.156  21.938  0.00  0.00    +0.000 Cl
ATOM     14  C   UNL     1       0.723   9.732  19.818  0.00  0.00    +0.000 A 
BRANCH  11  15
ATOM     15  O   UNL     1       2.814   6.640  19.715  0.00  0.00    +0.000 OA
BRANCH  15  16
ATOM     16  C   UNL     1       2.226   5.411  19.525  0.00  0.00    +0.000 A 
ATOM     17  C   UNL     1       2.096   4.763  18.296  0.00  0.00    +0.000 A 
ATOM     18  C   UNL     1       1.376   3.569  18.214  0.00  0.00    +0.000 A 
ATOM     19  C   UNL     1       0.850   2.986  19.366  0.00  0.00    +0.000 A 
ATOM     20  C   UNL     1       1.055   3.588  20.606  0.00  0.00    +0.000 A 
ATOM     21  C   UNL     1       1.741   4.799  20.685  0.00  0.00    +0.000 A 
ENDBRANCH  15  16
ENDBRANCH  11  15
ENDBRANCH   4   8
BRANCH   6  22
ATOM     22  C   UNL     1      -0.428  16.025  19.090  0.00  0.00    +0.000 A 
ATOM     23  C   UNL     1      -0.635  17.057  18.158  0.00  0.00    +0.000 A 
ATOM     24  C   UNL     1      -1.409  18.174  18.480  0.00  0.00    +0.000 A 
ATOM     25  C   UNL     1      -1.960  18.299  19.750  0.00  0.00    +0.000 A 
ATOM     26  C   UNL     1      -1.735  17.307  20.702  0.00  0.00    +0.000 A 
ATOM     27  C   UNL     1      -0.977  16.181  20.373  0.00  0.00    +0.000 A 
ENDBRANCH   6  22
BRANCH   1  28
ATOM     28  C   UNL     1       2.770  15.776  18.825  0.00  0.00    +0.000 C 
ATOM     29  O   UNL     1       3.393  16.273  17.895  0.00  0.00    +0.000 OA
BRANCH  28  30
ATOM     30  O   UNL     1       3.016  16.063  20.146  0.00  0.00    +0.000 OA
BRANCH  30  32
ATOM     31  C   UNL     1       2.131  18.254  20.489  0.00  0.00    +0.000 C 
ATOM     32  C   UNL     1       3.393  17.416  20.419  0.00  0.00    +0.000 C 
ENDBRANCH  30  32
ENDBRANCH  28  30
ENDBRANCH   1  28
TORSDOF 7
ENDMDL
MODEL 2
REMARK VINA RESULT:      -7.4      3.492      4.925
REMARK  Name = 
REMARK  8 active torsions:
REMARK  status: ('A' for Active; 'I' for Inactive)
REMARK    1  A    between atoms: C_1  and  C_2
REMARK    2  A    between atoms: C_2  and  O_3
REMARK    3  A    between atoms: O_3  and  C_4
REMARK    4  A    between atoms: C_4  and  C_6
REMARK    5  A    between atoms: N_9  and  C_10
REMARK    6  A    between atoms: C_13  and  O_14
REMARK    7  A    between atoms: O_14  and  C_15
REMARK    8  A    between atoms: C_25  and  C_26
REMARK                            x       y       z     vdW  Elec       q    Type
REMARK                         _______ _______ _______ _____ _____    ______ ____
ROOT
ATOM      1  C   UNL     1      -1.531  11.409  18.719  0.00  0.00    +0.000 A 
ATOM      2  S   UNL     1      -0.988   9.805  18.953  0.00  0.00    +0.000 S 
ATOM      3  C   UNL     1       0.296  10.353  19.949  0.00  0.00    +0.000 A 
ATOM      4  N   UNL     1       1.186   9.490  20.493  0.00  0.00    +0.000 N 
ATOM      5  N   UNL     1       0.263  11.642  20.207  0.00  0.00    +0.000 NA
ATOM      6  C   UNL     1      -0.745  12.278  19.464  0.00  0.00    +0.000 A 
ATOM      7  H   UNL     1       1.651   9.785  21.344  0.00  0.00    +0.000 HD
ENDROOT
BRANCH   4   8
ATOM      8  C   UNL     1       1.737   8.352  19.869  0.00  0.00    +0.000 A 
ATOM      9  C   UNL     1       2.232   8.368  18.557  0.00  0.00    +0.000 A 
ATOM     10  C   UNL     1       2.646   7.195  17.923  0.00  0.00    +0.000 A 
ATOM     11  C   UNL     1       2.602   5.974  18.596  0.00  0.00    +0.000 A 
ATOM     12  C   UNL     1       2.186   5.954  19.934  0.00  0.00    +0.000 A 
ATOM     13 CL   UNL     1       2.262   4.546  20.937  0.00  0.00    +0.000 Cl
ATOM     14  C   UNL     1       1.718   7.127  20.545  0.00  0.00    +0.000 A 
BRANCH  11  15
ATOM     15  O   UNL     1       3.102   4.915  17.873  0.00  0.00    +0.000 OA
BRANCH  15  16
ATOM     16  C   UNL     1       4.456   4.780  17.675  0.00  0.00    +0.000 A 
ATOM     17  C   UNL     1       5.440   5.049  18.628  0.00  0.00    +0.000 A 
ATOM     18  C   UNL     1       6.788   4.984  18.271  0.00  0.00    +0.000 A 
ATOM     19  C   UNL     1       7.156   4.582  16.988  0.00  0.00    +0.000 A 
ATOM     20  C   UNL     1       6.175   4.227  16.062  0.00  0.00    +0.000 A 
ATOM     21  C   UNL     1       4.828   4.328  16.406  0.00  0.00    +0.000 A 
ENDBRANCH  15  16
ENDBRANCH  11  15
ENDBRANCH   4   8
BRANCH   6  22
ATOM     22  C   UNL     1      -0.890  13.730  19.531  0.00  0.00    +0.000 A 
ATOM     23  C   UNL     1      -0.156  14.601  18.706  0.00  0.00    +0.000 A 
ATOM     24  C   UNL     1      -0.328  15.985  18.788  0.00  0.00    +0.000 A 
ATOM     25  C   UNL     1      -1.206  16.527  19.720  0.00  0.00    +0.000 A 
ATOM     26  C   UNL     1      -1.915  15.683  20.573  0.00  0.00    +0.000 A 
ATOM     27  C   UNL     1      -1.757  14.299  20.478  0.00  0.00    +0.000 A 
ENDBRANCH   6  22
BRANCH   1  28
ATOM     28  C   UNL     1      -2.719  11.614  17.939  0.00  0.00    +0.000 C 
ATOM     29  O   UNL     1      -3.851  11.799  18.369  0.00  0.00    +0.000 OA
BRANCH  28  30
ATOM     30  O   UNL     1      -2.421  11.496  16.603  0.00  0.00    +0.000 OA
BRANCH  30  32
ATOM     31  C   UNL     1      -2.934  10.050  14.773  0.00  0.00    +0.000 C 
ATOM     32  C   UNL     1      -3.496  11.041  15.775  0.00  0.00    +0.000 C 
ENDBRANCH  30  32
ENDBRANCH  28  30
ENDBRANCH   1  28
TORSDOF 7
ENDMDL
MODEL 3
REMARK VINA RESULT:      -7.2      1.028      1.818
REMARK  Name = 
REMARK  8 active torsions:
REMARK  status: ('A' for Active; 'I' for Inactive)
REMARK    1  A    between atoms: C_1  and  C_2
REMARK    2  A    between atoms: C_2  and  O_3
REMARK    3  A    between atoms: O_3  and  C_4
REMARK    4  A    between atoms: C_4  and  C_6
REMARK    5  A    between atoms: N_9  and  C_10
REMARK    6  A    between atoms: C_13  and  O_14
REMARK    7  A    between atoms: O_14  and  C_15
REMARK    8  A    between atoms: C_25  and  C_26
REMARK                            x       y       z     vdW  Elec       q    Type
REMARK                         _______ _______ _______ _____ _____    ______ ____
ROOT
ATOM      1  C   UNL     1       2.121  14.801  18.649  0.00  0.00    +0.000 A 
ATOM      2  S   UNL     1       2.478  13.182  18.231  0.00  0.00    +0.000 S 
ATOM      3  C   UNL     1       0.823  12.752  18.362  0.00  0.00    +0.000 A 
ATOM      4  N   UNL     1       0.403  11.483  18.147  0.00  0.00    +0.000 N 
ATOM      5  N   UNL     1       0.019  13.770  18.579  0.00  0.00    +0.000 NA
ATOM      6  C   UNL     1       0.750  14.948  18.805  0.00  0.00    +0.000 A 
ATOM      7  H   UNL     1      -0.559  11.361  17.853  0.00  0.00    +0.000 HD
ENDROOT
BRANCH   4   8
ATOM      8  C   UNL     1       1.066  10.304  18.545  0.00  0.00    +0.000 A 
ATOM      9  C   UNL     1       1.871   9.553  17.676  0.00  0.00    +0.000 A 
ATOM     10  C   UNL     1       2.403   8.321  18.061  0.00  0.00    +0.000 A 
ATOM     11  C   UNL     1       2.167   7.818  19.341  0.00  0.00    +0.000 A 
ATOM     12  C   UNL     1       1.432   8.594  20.248  0.00  0.00    +0.000 A 
ATOM     13 CL   UNL     1       1.226   8.178  21.914  0.00  0.00    +0.000 Cl
ATOM     14  C   UNL     1       0.854   9.804  19.834  0.00  0.00    +0.000 A 
BRANCH  11  15
ATOM     15  O   UNL     1       2.806   6.629  19.605  0.00  0.00    +0.000 OA
BRANCH  15  16
ATOM     16  C   UNL     1       2.123   5.438  19.542  0.00  0.00    +0.000 A 
ATOM     17  C   UNL     1       1.497   4.810  20.621  0.00  0.00    +0.000 A 
ATOM     18  C   UNL     1       0.932   3.544  20.455  0.00  0.00    +0.000 A 
ATOM     19  C   UNL     1       0.927   2.937  19.200  0.00  0.00    +0.000 A 
ATOM     20  C   UNL     1       1.473   3.602  18.102  0.00  0.00    +0.000 A 
ATOM     21  C   UNL     1       2.070   4.850  18.275  0.00  0.00    +0.000 A 
ENDBRANCH  15  16
ENDBRANCH  11  15
ENDBRANCH   4   8
BRANCH   6  22
ATOM     22  C   UNL     1       0.049  16.180  19.161  0.00  0.00    +0.000 A 
ATOM     23  C   UNL     1      -0.096  16.608  20.493  0.00  0.00    +0.000 A 
ATOM     24  C   UNL     1      -0.761  17.797  20.799  0.00  0.00    +0.000 A 
ATOM     25  C   UNL     1      -1.327  18.562  19.784  0.00  0.00    +0.000 A 
ATOM     26  C   UNL     1      -1.229  18.136  18.461  0.00  0.00    +0.000 A 
ATOM     27  C   UNL     1      -0.547  16.957  18.155  0.00  0.00    +0.000 A 
ENDBRANCH   6  22
BRANCH   1  28
ATOM     28  C   UNL     1       3.199  15.750  18.659  0.00  0.00    +0.000 C 
ATOM     29  O   UNL     1       3.095  16.969  18.727  0.00  0.00    +0.000 OA
BRANCH  28  30
ATOM     30  O   UNL     1       4.395  15.095  18.502  0.00  0.00    +0.000 OA
BRANCH  30  32
ATOM     31  C   UNL     1       6.778  15.048  18.340  0.00  0.00    +0.000 C 
ATOM     32  C   UNL     1       5.555  15.933  18.488  0.00  0.00    +0.000 C 
ENDBRANCH  30  32
ENDBRANCH  28  30
ENDBRANCH   1  28
TORSDOF 7
ENDMDL
MODEL 4
REMARK VINA RESULT:      -7.2      4.270     10.426
REMARK  Name = 
REMARK  8 active torsions:
REMARK  status: ('A' for Active; 'I' for Inactive)
REMARK    1  A    between atoms: C_1  and  C_2
REMARK    2  A    between atoms: C_2  and  O_3
REMARK    3  A    between atoms: O_3  and  C_4
REMARK    4  A    between atoms: C_4  and  C_6
REMARK    5  A    between atoms: N_9  and  C_10
REMARK    6  A    between atoms: C_13  and  O_14
REMARK    7  A    between atoms: O_14  and  C_15
REMARK    8  A    between atoms: C_25  and  C_26
REMARK                            x       y       z     vdW  Elec       q    Type
REMARK                         _______ _______ _______ _____ _____    ______ ____
ROOT
ATOM      1  C   UNL     1       3.569   5.349  19.120  0.00  0.00    +0.000 A 
ATOM      2  S   UNL     1       2.287   6.216  19.846  0.00  0.00    +0.000 S 
ATOM      3  C   UNL     1       2.385   7.431  18.640  0.00  0.00    +0.000 A 
ATOM      4  N   UNL     1       1.569   8.511  18.656  0.00  0.00    +0.000 N 
ATOM      5  N   UNL     1       3.233   7.159  17.673  0.00  0.00    +0.000 NA
ATOM      6  C   UNL     1       3.966   5.995  17.958  0.00  0.00    +0.000 A 
ATOM      7  H   UNL     1       1.391   8.966  17.768  0.00  0.00    +0.000 HD
ENDROOT
BRANCH   4   8
ATOM      8  C   UNL     1       1.160   9.233  19.795  0.00  0.00    +0.000 A 
ATOM      9  C   UNL     1       0.598   8.620  20.925  0.00  0.00    +0.000 A 
ATOM     10  C   UNL     1       0.079   9.374  21.979  0.00  0.00    +0.000 A 
ATOM     11  C   UNL     1       0.136  10.768  21.945  0.00  0.00    +0.000 A 
ATOM     12  C   UNL     1       0.768  11.394  20.862  0.00  0.00    +0.000 A 
ATOM     13 CL   UNL     1       1.072  13.095  20.785  0.00  0.00    +0.000 Cl
ATOM     14  C   UNL     1       1.234  10.630  19.781  0.00  0.00    +0.000 A 
BRANCH  11  15
ATOM     15  O   UNL     1      -0.350  11.378  23.078  0.00  0.00    +0.000 OA
BRANCH  15  16
ATOM     16  C   UNL     1      -1.311  12.358  22.989  0.00  0.00    +0.000 A 
ATOM     17  C   UNL     1      -1.159  13.676  23.423  0.00  0.00    +0.000 A 
ATOM     18  C   UNL     1      -2.247  14.549  23.384  0.00  0.00    +0.000 A 
ATOM     19  C   UNL     1      -3.463  14.131  22.844  0.00  0.00    +0.000 A 
ATOM     20  C   UNL     1      -3.590  12.842  22.329  0.00  0.00    +0.000 A 
ATOM     21  C   UNL     1      -2.515  11.957  22.403  0.00  0.00    +0.000 A 
ENDBRANCH  15  16
ENDBRANCH  11  15
ENDBRANCH   4   8
BRANCH   6  22
ATOM     22  C   UNL     1       5.031   5.568  17.054  0.00  0.00    +0.000 A 
ATOM     23  C   UNL     1       6.292   6.191  17.025  0.00  0.00    +0.000 A 
ATOM     24  C   UNL     1       7.293   5.750  16.157  0.00  0.00    +0.000 A 
ATOM     25  C   UNL     1       7.043   4.704  15.275  0.00  0.00    +0.000 A 
ATOM     26  C   UNL     1       5.788   4.098  15.261  0.00  0.00    +0.000 A 
ATOM     27  C   UNL     1       4.794   4.527  16.143  0.00  0.00    +0.000 A 
ENDBRANCH   6  22
BRANCH   1  28
ATOM     28  C   UNL     1       3.951   4.093  19.702  0.00  0.00    +0.000 C 
ATOM     29  O   UNL     1       5.094   3.688  19.875  0.00  0.00    +0.000 OA
BRANCH  28  30
ATOM     30  O   UNL     1       2.830   3.349  19.978  0.00  0.00    +0.000 OA
BRANCH  30  32
ATOM     31  C   UNL     1       0.792   2.600  18.983  0.00  0.00    +0.000 C 
ATOM     32  C   UNL     1       2.305   2.601  18.877  0.00  0.00    +0.000 C 
ENDBRANCH  30  32
ENDBRANCH  28  30
ENDBRANCH   1  28
TORSDOF 7
ENDMDL
MODEL 5
REMARK VINA RESULT:      -7.2      0.802      1.341
REMARK  Name = 
REMARK  8 active torsions:
REMARK  status: ('A' for Active; 'I' for Inactive)
REMARK    1  A    between atoms: C_1  and  C_2
REMARK    2  A    between atoms: C_2  and  O_3
REMARK    3  A    between atoms: O_3  and  C_4
REMARK    4  A    between atoms: C_4  and  C_6
REMARK    5  A    between atoms: N_9  and  C_10
REMARK    6  A    between atoms: C_13  and  O_14
REMARK    7  A    between atoms: O_14  and  C_15
REMARK    8  A    between atoms: C_25  and  C_26
REMARK                            x       y       z     vdW  Elec       q    Type
REMARK                         _______ _______ _______ _____ _____    ______ ____
ROOT
ATOM      1  C   UNL     1       1.757  14.985  18.779  0.00  0.00    +0.000 A 
ATOM      2  S   UNL     1       2.221  13.387  18.385  0.00  0.00    +0.000 S 
ATOM      3  C   UNL     1       0.583  12.879  18.383  0.00  0.00    +0.000 A 
ATOM      4  N   UNL     1       0.242  11.593  18.131  0.00  0.00    +0.000 N 
ATOM      5  N   UNL     1      -0.282  13.856  18.540  0.00  0.00    +0.000 NA
ATOM      6  C   UNL     1       0.371  15.066  18.827  0.00  0.00    +0.000 A 
ATOM      7  H   UNL     1      -0.687  11.428  17.762  0.00  0.00    +0.000 HD
ENDROOT
BRANCH   4   8
ATOM      8  C   UNL     1       0.926  10.444  18.577  0.00  0.00    +0.000 A 
ATOM      9  C   UNL     1       1.790   9.706  17.754  0.00  0.00    +0.000 A 
ATOM     10  C   UNL     1       2.346   8.499  18.182  0.00  0.00    +0.000 A 
ATOM     11  C   UNL     1       2.075   8.010  19.461  0.00  0.00    +0.000 A 
ATOM     12  C   UNL     1       1.279   8.775  20.323  0.00  0.00    +0.000 A 
ATOM     13 CL   UNL     1       1.019   8.380  21.987  0.00  0.00    +0.000 Cl
ATOM     14  C   UNL     1       0.678   9.958  19.865  0.00  0.00    +0.000 A 
BRANCH  11  15
ATOM     15  O   UNL     1       2.741   6.847  19.772  0.00  0.00    +0.000 OA
BRANCH  15  16
ATOM     16  C   UNL     1       2.193   5.623  19.468  0.00  0.00    +0.000 A 
ATOM     17  C   UNL     1       2.164   5.049  18.195  0.00  0.00    +0.000 A 
ATOM     18  C   UNL     1       1.476   3.851  17.991  0.00  0.00    +0.000 A 
ATOM     19  C   UNL     1       0.883   3.190  19.066  0.00  0.00    +0.000 A 
ATOM     20  C   UNL     1       0.988   3.718  20.352  0.00  0.00    +0.000 A 
ATOM     21  C   UNL     1       1.642   4.934  20.551  0.00  0.00    +0.000 A 
ENDBRANCH  15  16
ENDBRANCH  11  15
ENDBRANCH   4   8
BRANCH   6  22
ATOM     22  C   UNL     1      -0.413  16.261  19.130  0.00  0.00    +0.000 A 
ATOM     23  C   UNL     1      -0.933  16.517  20.412  0.00  0.00    +0.000 A 
ATOM     24  C   UNL     1      -1.668  17.676  20.672  0.00  0.00    +0.000 A 
ATOM     25  C   UNL     1      -1.931  18.581  19.650  0.00  0.00    +0.000 A 
ATOM     26  C   UNL     1      -1.457  18.328  18.363  0.00  0.00    +0.000 A 
ATOM     27  C   UNL     1      -0.705  17.179  18.109  0.00  0.00    +0.000 A 
ENDBRANCH   6  22
BRANCH   1  28
ATOM     28  C   UNL     1       2.783  15.983  18.878  0.00  0.00    +0.000 C 
ATOM     29  O   UNL     1       2.663  17.179  18.639  0.00  0.00    +0.000 OA
BRANCH  28  30
ATOM     30  O   UNL     1       3.976  15.390  19.213  0.00  0.00    +0.000 OA
BRANCH  30  32
ATOM     31  C   UNL     1       6.027  16.378  19.936  0.00  0.00    +0.000 C 
ATOM     32  C   UNL     1       5.148  16.062  18.740  0.00  0.00    +0.000 C 
ENDBRANCH  30  32
ENDBRANCH  28  30
ENDBRANCH   1  28
TORSDOF 7
ENDMDL
MODEL 6
REMARK VINA RESULT:      -7.2      3.669     10.134
REMARK  Name = 
REMARK  8 active torsions:
REMARK  status: ('A' for Active; 'I' for Inactive)
REMARK    1  A    between atoms: C_1  and  C_2
REMARK    2  A    between atoms: C_2  and  O_3
REMARK    3  A    between atoms: O_3  and  C_4
REMARK    4  A    between atoms: C_4  and  C_6
REMARK    5  A    between atoms: N_9  and  C_10
REMARK    6  A    between atoms: C_13  and  O_14
REMARK    7  A    between atoms: O_14  and  C_15
REMARK    8  A    between atoms: C_25  and  C_26
REMARK                            x       y       z     vdW  Elec       q    Type
REMARK                         _______ _______ _______ _____ _____    ______ ____
ROOT
ATOM      1  C   UNL     1       3.276   6.052  19.129  0.00  0.00    +0.000 A 
ATOM      2  S   UNL     1       2.024   7.117  19.599  0.00  0.00    +0.000 S 
ATOM      3  C   UNL     1       2.308   8.106  18.226  0.00  0.00    +0.000 A 
ATOM      4  N   UNL     1       1.587   9.229  18.003  0.00  0.00    +0.000 N 
ATOM      5  N   UNL     1       3.196   7.617  17.388  0.00  0.00    +0.000 NA
ATOM      6  C   UNL     1       3.806   6.467  17.915  0.00  0.00    +0.000 A 
ATOM      7  H   UNL     1       1.510   9.542  17.041  0.00  0.00    +0.000 HD
ENDROOT
BRANCH   4   8
ATOM      8  C   UNL     1       1.162  10.157  18.974  0.00  0.00    +0.000 A 
ATOM      9  C   UNL     1       0.320   9.811  20.042  0.00  0.00    +0.000 A 
ATOM     10  C   UNL     1      -0.191  10.779  20.907  0.00  0.00    +0.000 A 
ATOM     11  C   UNL     1       0.151  12.123  20.747  0.00  0.00    +0.000 A 
ATOM     12  C   UNL     1       1.055  12.474  19.735  0.00  0.00    +0.000 A 
ATOM     13 CL   UNL     1       1.704  14.066  19.545  0.00  0.00    +0.000 Cl
ATOM     14  C   UNL     1       1.518  11.503  18.834  0.00  0.00    +0.000 A 
BRANCH  11  15
ATOM     15  O   UNL     1      -0.371  12.955  21.710  0.00  0.00    +0.000 OA
BRANCH  15  16
ATOM     16  C   UNL     1      -1.721  12.968  21.968  0.00  0.00    +0.000 A 
ATOM     17  C   UNL     1      -2.308  12.657  23.196  0.00  0.00    +0.000 A 
ATOM     18  C   UNL     1      -3.699  12.593  23.304  0.00  0.00    +0.000 A 
ATOM     19  C   UNL     1      -4.503  12.911  22.209  0.00  0.00    +0.000 A 
ATOM     20  C   UNL     1      -3.918  13.307  21.008  0.00  0.00    +0.000 A 
ATOM     21  C   UNL     1      -2.529  13.334  20.888  0.00  0.00    +0.000 A 
ENDBRANCH  15  16
ENDBRANCH  11  15
ENDBRANCH   4   8
BRANCH   6  22
ATOM     22  C   UNL     1       4.892   5.820  17.182  0.00  0.00    +0.000 A 
ATOM     23  C   UNL     1       4.685   4.699  16.358  0.00  0.00    +0.000 A 
ATOM     24  C   UNL     1       5.743   4.112  15.662  0.00  0.00    +0.000 A 
ATOM     25  C   UNL     1       7.034   4.609  15.802  0.00  0.00    +0.000 A 
ATOM     26  C   UNL     1       7.268   5.696  16.643  0.00  0.00    +0.000 A 
ATOM     27  C   UNL     1       6.206   6.295  17.324  0.00  0.00    +0.000 A 
ENDBRANCH   6  22
BRANCH   1  28
ATOM     28  C   UNL     1       3.509   4.886  19.933  0.00  0.00    +0.000 C 
ATOM     29  O   UNL     1       4.321   3.996  19.708  0.00  0.00    +0.000 OA
BRANCH  28  30
ATOM     30  O   UNL     1       2.621   4.859  20.980  0.00  0.00    +0.000 OA
BRANCH  30  32
ATOM     31  C   UNL     1       0.921   3.299  20.360  0.00  0.00    +0.000 C 
ATOM     32  C   UNL     1       2.084   3.570  21.295  0.00  0.00    +0.000 C 
ENDBRANCH  30  32
ENDBRANCH  28  30
ENDBRANCH   1  28
TORSDOF 7
ENDMDL
MODEL 7
REMARK VINA RESULT:      -7.2      3.520      4.978
REMARK  Name = 
REMARK  8 active torsions:
REMARK  status: ('A' for Active; 'I' for Inactive)
REMARK    1  A    between atoms: C_1  and  C_2
REMARK    2  A    between atoms: C_2  and  O_3
REMARK    3  A    between atoms: O_3  and  C_4
REMARK    4  A    between atoms: C_4  and  C_6
REMARK    5  A    between atoms: N_9  and  C_10
REMARK    6  A    between atoms: C_13  and  O_14
REMARK    7  A    between atoms: O_14  and  C_15
REMARK    8  A    between atoms: C_25  and  C_26
REMARK                            x       y       z     vdW  Elec       q    Type
REMARK                         _______ _______ _______ _____ _____    ______ ____
ROOT
ATOM      1  C   UNL     1      -0.368  11.478  19.663  0.00  0.00    +0.000 A 
ATOM      2  S   UNL     1      -0.165   9.810  19.348  0.00  0.00    +0.000 S 
ATOM      3  C   UNL     1       0.752   9.618  20.784  0.00  0.00    +0.000 A 
ATOM      4  N   UNL     1       1.269   8.418  21.138  0.00  0.00    +0.000 N 
ATOM      5  N   UNL     1       0.808  10.698  21.533  0.00  0.00    +0.000 NA
ATOM      6  C   UNL     1       0.220  11.794  20.881  0.00  0.00    +0.000 A 
ATOM      7  H   UNL     1       1.444   8.266  22.125  0.00  0.00    +0.000 HD
ENDROOT
BRANCH   4   8
ATOM      8  C   UNL     1       1.842   7.466  20.271  0.00  0.00    +0.000 A 
ATOM      9  C   UNL     1       2.377   7.801  19.018  0.00  0.00    +0.000 A 
ATOM     10  C   UNL     1       2.813   6.817  18.128  0.00  0.00    +0.000 A 
ATOM     11  C   UNL     1       2.754   5.469  18.481  0.00  0.00    +0.000 A 
ATOM     12  C   UNL     1       2.298   5.123  19.760  0.00  0.00    +0.000 A 
ATOM     13 CL   UNL     1       2.349   3.513  20.390  0.00  0.00    +0.000 Cl
ATOM     14  C   UNL     1       1.808   6.113  20.626  0.00  0.00    +0.000 A 
BRANCH  11  15
ATOM     15  O   UNL     1       3.278   4.617  17.536  0.00  0.00    +0.000 OA
BRANCH  15  16
ATOM     16  C   UNL     1       4.616   4.660  17.221  0.00  0.00    +0.000 A 
ATOM     17  C   UNL     1       5.138   4.644  15.926  0.00  0.00    +0.000 A 
ATOM     18  C   UNL     1       6.520   4.575  15.735  0.00  0.00    +0.000 A 
ATOM     19  C   UNL     1       7.381   4.598  16.831  0.00  0.00    +0.000 A 
ATOM     20  C   UNL     1       6.863   4.704  18.122  0.00  0.00    +0.000 A 
ATOM     21  C   UNL     1       5.483   4.734  18.314  0.00  0.00    +0.000 A 
ENDBRANCH  15  16
ENDBRANCH  11  15
ENDBRANCH   4   8
BRANCH   6  22
ATOM     22  C   UNL     1       0.260  13.116  21.502  0.00  0.00    +0.000 A 
ATOM     23  C   UNL     1       1.276  14.048  21.227  0.00  0.00    +0.000 A 
ATOM     24  C   UNL     1       1.279  15.309  21.829  0.00  0.00    +0.000 A 
ATOM     25  C   UNL     1       0.288  15.648  22.744  0.00  0.00    +0.000 A 
ATOM     26  C   UNL     1      -0.706  14.724  23.060  0.00  0.00    +0.000 A 
ATOM     27  C   UNL     1      -0.719  13.471  22.443  0.00  0.00    +0.000 A 
ENDBRANCH   6  22
BRANCH   1  28
ATOM     28  C   UNL     1      -1.168  12.246  18.752  0.00  0.00    +0.000 C 
ATOM     29  O   UNL     1      -0.787  13.185  18.062  0.00  0.00    +0.000 OA
BRANCH  28  30
ATOM     30  O   UNL     1      -2.474  11.827  18.815  0.00  0.00    +0.000 OA
BRANCH  30  32
ATOM     31  C   UNL     1      -3.440  10.023  17.583  0.00  0.00    +0.000 C 
ATOM     32  C   UNL     1      -3.071  11.494  17.557  0.00  0.00    +0.000 C 
ENDBRANCH  30  32
ENDBRANCH  28  30
ENDBRANCH   1  28
TORSDOF 7
ENDMDL
MODEL 8
REMARK VINA RESULT:      -7.2      4.036     10.264
REMARK  Name = 
REMARK  8 active torsions:
REMARK  status: ('A' for Active; 'I' for Inactive)
REMARK    1  A    between atoms: C_1  and  C_2
REMARK    2  A    between atoms: C_2  and  O_3
REMARK    3  A    between atoms: O_3  and  C_4
REMARK    4  A    between atoms: C_4  and  C_6
REMARK    5  A    between atoms: N_9  and  C_10
REMARK    6  A    between atoms: C_13  and  O_14
REMARK    7  A    between atoms: O_14  and  C_15
REMARK    8  A    between atoms: C_25  and  C_26
REMARK                            x       y       z     vdW  Elec       q    Type
REMARK                         _______ _______ _______ _____ _____    ______ ____
ROOT
ATOM      1  C   UNL     1       3.250   5.649  19.322  0.00  0.00    +0.000 A 
ATOM      2  S   UNL     1       1.963   6.692  19.745  0.00  0.00    +0.000 S 
ATOM      3  C   UNL     1       2.386   7.775  18.485  0.00  0.00    +0.000 A 
ATOM      4  N   UNL     1       1.696   8.921  18.276  0.00  0.00    +0.000 N 
ATOM      5  N   UNL     1       3.350   7.340  17.704  0.00  0.00    +0.000 NA
ATOM      6  C   UNL     1       3.900   6.147  18.201  0.00  0.00    +0.000 A 
ATOM      7  H   UNL     1       1.716   9.305  17.338  0.00  0.00    +0.000 HD
ENDROOT
BRANCH   4   8
ATOM      8  C   UNL     1       1.180   9.779  19.268  0.00  0.00    +0.000 A 
ATOM      9  C   UNL     1       0.625   9.310  20.468  0.00  0.00    +0.000 A 
ATOM     10  C   UNL     1       0.002  10.177  21.368  0.00  0.00    +0.000 A 
ATOM     11  C   UNL     1      -0.058  11.546  21.105  0.00  0.00    +0.000 A 
ATOM     12  C   UNL     1       0.563  12.040  19.950  0.00  0.00    +0.000 A 
ATOM     13 CL   UNL     1       0.725  13.727  19.601  0.00  0.00    +0.000 Cl
ATOM     14  C   UNL     1       1.136  11.156  19.024  0.00  0.00    +0.000 A 
BRANCH  11  15
ATOM     15  O   UNL     1      -0.640  12.286  22.108  0.00  0.00    +0.000 OA
BRANCH  15  16
ATOM     16  C   UNL     1      -2.005  12.453  22.153  0.00  0.00    +0.000 A 
ATOM     17  C   UNL     1      -2.826  12.665  21.044  0.00  0.00    +0.000 A 
ATOM     18  C   UNL     1      -4.184  12.936  21.228  0.00  0.00    +0.000 A 
ATOM     19  C   UNL     1      -4.735  12.921  22.509  0.00  0.00    +0.000 A 
ATOM     20  C   UNL     1      -3.932  12.620  23.609  0.00  0.00    +0.000 A 
ATOM     21  C   UNL     1      -2.569  12.388  23.430  0.00  0.00    +0.000 A 
ENDBRANCH  15  16
ENDBRANCH  11  15
ENDBRANCH   4   8
BRANCH   6  22
ATOM     22  C   UNL     1       5.051   5.544  17.532  0.00  0.00    +0.000 A 
ATOM     23  C   UNL     1       6.328   5.500  18.119  0.00  0.00    +0.000 A 
ATOM     24  C   UNL     1       7.405   4.905  17.458  0.00  0.00    +0.000 A 
ATOM     25  C   UNL     1       7.236   4.377  16.182  0.00  0.00    +0.000 A 
ATOM     26  C   UNL     1       5.988   4.445  15.566  0.00  0.00    +0.000 A 
ATOM     27  C   UNL     1       4.907   5.022  16.236  0.00  0.00    +0.000 A 
ENDBRANCH   6  22
BRANCH   1  28
ATOM     28  C   UNL     1       3.398   4.424  20.056  0.00  0.00    +0.000 C 
ATOM     29  O   UNL     1       4.077   3.457  19.730  0.00  0.00    +0.000 OA
BRANCH  28  30
ATOM     30  O   UNL     1       2.592   4.449  21.167  0.00  0.00    +0.000 OA
BRANCH  30  32
ATOM     31  C   UNL     1       0.803   3.049  20.429  0.00  0.00    +0.000 C 
ATOM     32  C   UNL     1       1.907   3.226  21.455  0.00  0.00    +0.000 C 
ENDBRANCH  30  32
ENDBRANCH  28  30
ENDBRANCH   1  28
TORSDOF 7
ENDMDL
MODEL 9
REMARK VINA RESULT:      -7.2      3.563     10.157
REMARK  Name = 
REMARK  8 active torsions:
REMARK  status: ('A' for Active; 'I' for Inactive)
REMARK    1  A    between atoms: C_1  and  C_2
REMARK    2  A    between atoms: C_2  and  O_3
REMARK    3  A    between atoms: O_3  and  C_4
REMARK    4  A    between atoms: C_4  and  C_6
REMARK    5  A    between atoms: N_9  and  C_10
REMARK    6  A    between atoms: C_13  and  O_14
REMARK    7  A    between atoms: O_14  and  C_15
REMARK    8  A    between atoms: C_25  and  C_26
REMARK                            x       y       z     vdW  Elec       q    Type
REMARK                         _______ _______ _______ _____ _____    ______ ____
ROOT
ATOM      1  C   UNL     1       3.307   5.794  19.158  0.00  0.00    +0.000 A 
ATOM      2  S   UNL     1       2.025   6.804  19.665  0.00  0.00    +0.000 S 
ATOM      3  C   UNL     1       2.290   7.859  18.338  0.00  0.00    +0.000 A 
ATOM      4  N   UNL     1       1.540   8.971  18.159  0.00  0.00    +0.000 N 
ATOM      5  N   UNL     1       3.196   7.432  17.487  0.00  0.00    +0.000 NA
ATOM      6  C   UNL     1       3.834   6.276  17.967  0.00  0.00    +0.000 A 
ATOM      7  H   UNL     1       1.461   9.324  17.212  0.00  0.00    +0.000 HD
ENDROOT
BRANCH   4   8
ATOM      8  C   UNL     1       1.084   9.845  19.167  0.00  0.00    +0.000 A 
ATOM      9  C   UNL     1       0.943  11.226  18.972  0.00  0.00    +0.000 A 
ATOM     10  C   UNL     1       0.619  12.080  20.027  0.00  0.00    +0.000 A 
ATOM     11  C   UNL     1       0.397  11.570  21.307  0.00  0.00    +0.000 A 
ATOM     12  C   UNL     1       0.455  10.183  21.501  0.00  0.00    +0.000 A 
ATOM     13 CL   UNL     1       0.020   9.408  22.985  0.00  0.00    +0.000 Cl
ATOM     14  C   UNL     1       0.837   9.339  20.448  0.00  0.00    +0.000 A 
BRANCH  11  15
ATOM     15  O   UNL     1       0.021  12.516  22.232  0.00  0.00    +0.000 OA
BRANCH  15  16
ATOM     16  C   UNL     1      -1.293  12.902  22.344  0.00  0.00    +0.000 A 
ATOM     17  C   UNL     1      -1.876  13.978  21.670  0.00  0.00    +0.000 A 
ATOM     18  C   UNL     1      -3.193  14.343  21.954  0.00  0.00    +0.000 A 
ATOM     19  C   UNL     1      -3.952  13.593  22.851  0.00  0.00    +0.000 A 
ATOM     20  C   UNL     1      -3.399  12.465  23.458  0.00  0.00    +0.000 A 
ATOM     21  C   UNL     1      -2.071  12.123  23.204  0.00  0.00    +0.000 A 
ENDBRANCH  15  16
ENDBRANCH  11  15
ENDBRANCH   4   8
BRANCH   6  22
ATOM     22  C   UNL     1       4.942   5.692  17.215  0.00  0.00    +0.000 A 
ATOM     23  C   UNL     1       4.771   4.602  16.343  0.00  0.00    +0.000 A 
ATOM     24  C   UNL     1       5.849   4.074  15.629  0.00  0.00    +0.000 A 
ATOM     25  C   UNL     1       7.124   4.601  15.800  0.00  0.00    +0.000 A 
ATOM     26  C   UNL     1       7.323   5.657  16.688  0.00  0.00    +0.000 A 
ATOM     27  C   UNL     1       6.241   6.196  17.387  0.00  0.00    +0.000 A 
ENDBRANCH   6  22
BRANCH   1  28
ATOM     28  C   UNL     1       3.567   4.601  19.912  0.00  0.00    +0.000 C 
ATOM     29  O   UNL     1       4.431   3.764  19.677  0.00  0.00    +0.000 OA
BRANCH  28  30
ATOM     30  O   UNL     1       2.641   4.477  20.918  0.00  0.00    +0.000 OA
BRANCH  30  32
ATOM     31  C   UNL     1       0.930   3.031  20.091  0.00  0.00    +0.000 C 
ATOM     32  C   UNL     1       2.076   3.171  21.074  0.00  0.00    +0.000 C 
ENDBRANCH  30  32
ENDBRANCH  28  30
ENDBRANCH   1  28
TORSDOF 7
ENDMDL
