MODEL 1
REMARK VINA RESULT:      -6.4      0.000      0.000
REMARK  Name = 
REMARK  11 active torsions:
REMARK  status: ('A' for Active; 'I' for Inactive)
REMARK    1  A    between atoms: C_1  and  O_2
REMARK    2  A    between atoms: O_2  and  C_3
REMARK    3  A    between atoms: C_5  and  C_6
REMARK    4  A    between atoms: C_7  and  C_8
REMARK    5  A    between atoms: C_8  and  O_10
REMARK    6  A    between atoms: O_10  and  C_11
REMARK    7  A    between atoms: C_11  and  C_12
REMARK    8  A    between atoms: C_12  and  O_13
REMARK    9  A    between atoms: C_15  and  O_16
REMARK   10  A    between atoms: O_16  and  C_17
REMARK   11  A    between atoms: C_18  and  O_19
REMARK                            x       y       z     vdW  Elec       q    Type
REMARK                         _______ _______ _______ _____ _____    ______ ____
ROOT
ATOM      1  C   UNL     1       6.423   4.319  14.041  0.00  0.00    +0.000 A 
ATOM      2  C   UNL     1       5.351   3.857  14.824  0.00  0.00    +0.000 A 
ATOM      3  C   UNL     1       5.138   4.334  16.119  0.00  0.00    +0.000 A 
ATOM      4  C   UNL     1       5.986   5.335  16.597  0.00  0.00    +0.000 A 
ATOM      5  C   UNL     1       7.067   5.824  15.842  0.00  0.00    +0.000 A 
ATOM      6  C   UNL     1       7.298   5.294  14.563  0.00  0.00    +0.000 A 
ENDROOT
BRANCH   1   8
ATOM      7  C   UNL     1       5.215   3.384  12.178  0.00  0.00    +0.000 C 
ATOM      8  O   UNL     1       6.442   3.721  12.806  0.00  0.00    +0.000 OA
ENDBRANCH   1   8
BRANCH   3   9
ATOM      9  C   UNL     1       3.996   3.828  16.898  0.00  0.00    +0.000 C 
ATOM     10  C   UNL     1       3.259   4.584  17.729  0.00  0.00    +0.000 C 
BRANCH  10  11
ATOM     11  C   UNL     1       2.065   4.010  18.387  0.00  0.00    +0.000 C 
ATOM     12  O   UNL     1       1.183   3.384  17.826  0.00  0.00    +0.000 OA
BRANCH  11  13
ATOM     13  O   UNL     1       2.083   4.380  19.693  0.00  0.00    +0.000 OA
BRANCH  13  14
ATOM     14  C   UNL     1       0.981   3.891  20.485  0.00  0.00    +0.000 C 
BRANCH  14  15
ATOM     15  C   UNL     1       1.363   2.722  21.388  0.00  0.00    +0.000 C 
BRANCH  15  16
ATOM     16  O   UNL     1       2.515   3.045  22.165  0.00  0.00    +0.000 OA
ATOM     17  H   UNL     1       2.287   2.851  23.091  0.00  0.00    +0.000 HD
ENDBRANCH  15  16
ENDBRANCH  14  15
ENDBRANCH  13  14
ENDBRANCH  11  13
ENDBRANCH  10  11
ENDBRANCH   3   9
BRANCH   5  18
ATOM     18  O   UNL     1       7.749   6.783  16.538  0.00  0.00    +0.000 OA
ATOM     19  C   UNL     1       7.467   7.069  17.895  0.00  0.00    +0.000 C 
ENDBRANCH   5  18
BRANCH   6  20
ATOM     20  O   UNL     1       8.370   5.681  13.808  0.00  0.00    +0.000 OA
ATOM     21  H   UNL     1       8.582   4.952  13.208  0.00  0.00    +0.000 HD
ENDBRANCH   6  20
TORSDOF 9
ENDMDL
MODEL 2
REMARK VINA RESULT:      -6.3      1.981      6.949
REMARK  Name = 
REMARK  11 active torsions:
REMARK  status: ('A' for Active; 'I' for Inactive)
REMARK    1  A    between atoms: C_1  and  O_2
REMARK    2  A    between atoms: O_2  and  C_3
REMARK    3  A    between atoms: C_5  and  C_6
REMARK    4  A    between atoms: C_7  and  C_8
REMARK    5  A    between atoms: C_8  and  O_10
REMARK    6  A    between atoms: O_10  and  C_11
REMARK    7  A    between atoms: C_11  and  C_12
REMARK    8  A    between atoms: C_12  and  O_13
REMARK    9  A    between atoms: C_15  and  O_16
REMARK   10  A    between atoms: O_16  and  C_17
REMARK   11  A    between atoms: C_18  and  O_19
REMARK                            x       y       z     vdW  Elec       q    Type
REMARK                         _______ _______ _______ _____ _____    ______ ____
ROOT
ATOM      1  C   UNL     1       3.383   4.038  19.580  0.00  0.00    +0.000 A 
ATOM      2  C   UNL     1       4.085   3.799  18.386  0.00  0.00    +0.000 A 
ATOM      3  C   UNL     1       4.252   4.800  17.427  0.00  0.00    +0.000 A 
ATOM      4  C   UNL     1       3.752   6.073  17.715  0.00  0.00    +0.000 A 
ATOM      5  C   UNL     1       3.047   6.350  18.900  0.00  0.00    +0.000 A 
ATOM      6  C   UNL     1       2.843   5.318  19.827  0.00  0.00    +0.000 A 
ENDROOT
BRANCH   1   8
ATOM      7  C   UNL     1       4.449   2.031  20.380  0.00  0.00    +0.000 C 
ATOM      8  O   UNL     1       3.344   2.921  20.377  0.00  0.00    +0.000 OA
ENDBRANCH   1   8
BRANCH   3   9
ATOM      9  C   UNL     1       5.003   4.507  16.196  0.00  0.00    +0.000 C 
ATOM     10  C   UNL     1       5.963   5.301  15.694  0.00  0.00    +0.000 C 
BRANCH  10  11
ATOM     11  C   UNL     1       6.735   4.868  14.509  0.00  0.00    +0.000 C 
ATOM     12  O   UNL     1       7.748   5.403  14.094  0.00  0.00    +0.000 OA
BRANCH  11  13
ATOM     13  O   UNL     1       6.070   3.841  13.922  0.00  0.00    +0.000 OA
BRANCH  13  14
ATOM     14  C   UNL     1       6.386   3.618  12.533  0.00  0.00    +0.000 C 
BRANCH  14  15
ATOM     15  C   UNL     1       5.380   2.715  11.826  0.00  0.00    +0.000 C 
BRANCH  15  16
ATOM     16  O   UNL     1       5.960   1.442  11.545  0.00  0.00    +0.000 OA
ATOM     17  H   UNL     1       5.281   0.926  11.077  0.00  0.00    +0.000 HD
ENDBRANCH  15  16
ENDBRANCH  14  15
ENDBRANCH  13  14
ENDBRANCH  11  13
ENDBRANCH  10  11
ENDBRANCH   3   9
BRANCH   5  18
ATOM     18  O   UNL     1       2.652   7.659  18.932  0.00  0.00    +0.000 OA
ATOM     19  C   UNL     1       2.044   8.288  17.819  0.00  0.00    +0.000 C 
ENDBRANCH   5  18
BRANCH   6  20
ATOM     20  O   UNL     1       2.110   5.508  20.965  0.00  0.00    +0.000 OA
ATOM     21  H   UNL     1       2.377   4.829  21.600  0.00  0.00    +0.000 HD
ENDBRANCH   6  20
TORSDOF 9
ENDMDL
MODEL 3
REMARK VINA RESULT:      -6.3      3.637      5.687
REMARK  Name = 
REMARK  11 active torsions:
REMARK  status: ('A' for Active; 'I' for Inactive)
REMARK    1  A    between atoms: C_1  and  O_2
REMARK    2  A    between atoms: O_2  and  C_3
REMARK    3  A    between atoms: C_5  and  C_6
REMARK    4  A    between atoms: C_7  and  C_8
REMARK    5  A    between atoms: C_8  and  O_10
REMARK    6  A    between atoms: O_10  and  C_11
REMARK    7  A    between atoms: C_11  and  C_12
REMARK    8  A    between atoms: C_12  and  O_13
REMARK    9  A    between atoms: C_15  and  O_16
REMARK   10  A    between atoms: O_16  and  C_17
REMARK   11  A    between atoms: C_18  and  O_19
REMARK                            x       y       z     vdW  Elec       q    Type
REMARK                         _______ _______ _______ _____ _____    ______ ____
ROOT
ATOM      1  C   UNL     1       3.104   3.388  19.495  0.00  0.00    +0.000 A 
ATOM      2  C   UNL     1       2.498   4.594  19.105  0.00  0.00    +0.000 A 
ATOM      3  C   UNL     1       3.253   5.668  18.631  0.00  0.00    +0.000 A 
ATOM      4  C   UNL     1       4.632   5.491  18.495  0.00  0.00    +0.000 A 
ATOM      5  C   UNL     1       5.274   4.298  18.872  0.00  0.00    +0.000 A 
ATOM      6  C   UNL     1       4.505   3.248  19.397  0.00  0.00    +0.000 A 
ENDROOT
BRANCH   1   8
ATOM      7  C   UNL     1       1.424   2.739  21.095  0.00  0.00    +0.000 C 
ATOM      8  O   UNL     1       2.179   2.470  19.924  0.00  0.00    +0.000 OA
ENDBRANCH   1   8
BRANCH   3   9
ATOM      9  C   UNL     1       2.572   6.909  18.225  0.00  0.00    +0.000 C 
ATOM     10  C   UNL     1       2.206   7.880  19.078  0.00  0.00    +0.000 C 
BRANCH  10  11
ATOM     11  C   UNL     1       1.624   9.137  18.561  0.00  0.00    +0.000 C 
ATOM     12  O   UNL     1       1.776   9.573  17.434  0.00  0.00    +0.000 OA
BRANCH  11  13
ATOM     13  O   UNL     1       0.976   9.754  19.581  0.00  0.00    +0.000 OA
BRANCH  13  14
ATOM     14  C   UNL     1       0.667   8.913  20.711  0.00  0.00    +0.000 C 
BRANCH  14  15
ATOM     15  C   UNL     1       0.800   9.634  22.050  0.00  0.00    +0.000 C 
BRANCH  15  16
ATOM     16  O   UNL     1       2.014   9.261  22.700  0.00  0.00    +0.000 OA
ATOM     17  H   UNL     1       2.176   8.329  22.471  0.00  0.00    +0.000 HD
ENDBRANCH  15  16
ENDBRANCH  14  15
ENDBRANCH  13  14
ENDBRANCH  11  13
ENDBRANCH  10  11
ENDBRANCH   3   9
BRANCH   5  18
ATOM     18  O   UNL     1       6.621   4.385  18.655  0.00  0.00    +0.000 OA
ATOM     19  C   UNL     1       7.164   4.554  17.359  0.00  0.00    +0.000 C 
ENDBRANCH   5  18
BRANCH   6  20
ATOM     20  O   UNL     1       5.079   2.090  19.842  0.00  0.00    +0.000 OA
ATOM     21  H   UNL     1       5.863   1.926  19.298  0.00  0.00    +0.000 HD
ENDBRANCH   6  20
TORSDOF 9
ENDMDL
MODEL 4
REMARK VINA RESULT:      -6.3      4.469      6.119
REMARK  Name = 
REMARK  11 active torsions:
REMARK  status: ('A' for Active; 'I' for Inactive)
REMARK    1  A    between atoms: C_1  and  O_2
REMARK    2  A    between atoms: O_2  and  C_3
REMARK    3  A    between atoms: C_5  and  C_6
REMARK    4  A    between atoms: C_7  and  C_8
REMARK    5  A    between atoms: C_8  and  O_10
REMARK    6  A    between atoms: O_10  and  C_11
REMARK    7  A    between atoms: C_11  and  C_12
REMARK    8  A    between atoms: C_12  and  O_13
REMARK    9  A    between atoms: C_15  and  O_16
REMARK   10  A    between atoms: O_16  and  C_17
REMARK   11  A    between atoms: C_18  and  O_19
REMARK                            x       y       z     vdW  Elec       q    Type
REMARK                         _______ _______ _______ _____ _____    ______ ____
ROOT
ATOM      1  C   UNL     1       2.775   3.794  17.988  0.00  0.00    +0.000 A 
ATOM      2  C   UNL     1       2.454   5.152  17.822  0.00  0.00    +0.000 A 
ATOM      3  C   UNL     1       3.417   6.151  17.975  0.00  0.00    +0.000 A 
ATOM      4  C   UNL     1       4.732   5.760  18.238  0.00  0.00    +0.000 A 
ATOM      5  C   UNL     1       5.092   4.411  18.407  0.00  0.00    +0.000 A 
ATOM      6  C   UNL     1       4.099   3.424  18.303  0.00  0.00    +0.000 A 
ENDROOT
BRANCH   1   8
ATOM      7  C   UNL     1       0.905   2.582  18.904  0.00  0.00    +0.000 C 
ATOM      8  O   UNL     1       1.683   2.988  17.788  0.00  0.00    +0.000 OA
ENDBRANCH   1   8
BRANCH   3   9
ATOM      9  C   UNL     1       3.037   7.560  17.783  0.00  0.00    +0.000 C 
ATOM     10  C   UNL     1       1.890   8.097  18.232  0.00  0.00    +0.000 C 
BRANCH  10  11
ATOM     11  C   UNL     1       1.645   9.548  18.082  0.00  0.00    +0.000 C 
ATOM     12  O   UNL     1       2.439  10.354  17.629  0.00  0.00    +0.000 OA
BRANCH  11  13
ATOM     13  O   UNL     1       0.431   9.830  18.618  0.00  0.00    +0.000 OA
BRANCH  13  14
ATOM     14  C   UNL     1       0.139  11.233  18.774  0.00  0.00    +0.000 C 
BRANCH  14  15
ATOM     15  C   UNL     1      -1.262  11.611  18.303  0.00  0.00    +0.000 C 
BRANCH  15  16
ATOM     16  O   UNL     1      -1.202  12.673  17.353  0.00  0.00    +0.000 OA
ATOM     17  H   UNL     1      -2.051  12.667  16.876  0.00  0.00    +0.000 HD
ENDBRANCH  15  16
ENDBRANCH  14  15
ENDBRANCH  13  14
ENDBRANCH  11  13
ENDBRANCH  10  11
ENDBRANCH   3   9
BRANCH   5  18
ATOM     18  O   UNL     1       6.429   4.296  18.671  0.00  0.00    +0.000 OA
ATOM     19  C   UNL     1       7.415   4.721  17.748  0.00  0.00    +0.000 C 
ENDBRANCH   5  18
BRANCH   6  20
ATOM     20  O   UNL     1       4.374   2.103  18.522  0.00  0.00    +0.000 OA
ATOM     21  H   UNL     1       5.061   1.840  17.893  0.00  0.00    +0.000 HD
ENDBRANCH   6  20
TORSDOF 9
ENDMDL
MODEL 5
REMARK VINA RESULT:      -6.3      0.671      3.087
REMARK  Name = 
REMARK  11 active torsions:
REMARK  status: ('A' for Active; 'I' for Inactive)
REMARK    1  A    between atoms: C_1  and  O_2
REMARK    2  A    between atoms: O_2  and  C_3
REMARK    3  A    between atoms: C_5  and  C_6
REMARK    4  A    between atoms: C_7  and  C_8
REMARK    5  A    between atoms: C_8  and  O_10
REMARK    6  A    between atoms: O_10  and  C_11
REMARK    7  A    between atoms: C_11  and  C_12
REMARK    8  A    between atoms: C_12  and  O_13
REMARK    9  A    between atoms: C_15  and  O_16
REMARK   10  A    between atoms: O_16  and  C_17
REMARK   11  A    between atoms: C_18  and  O_19
REMARK                            x       y       z     vdW  Elec       q    Type
REMARK                         _______ _______ _______ _____ _____    ______ ____
ROOT
ATOM      1  C   UNL     1       6.877   5.613  15.881  0.00  0.00    +0.000 A 
ATOM      2  C   UNL     1       5.851   5.154  16.725  0.00  0.00    +0.000 A 
ATOM      3  C   UNL     1       4.966   4.154  16.318  0.00  0.00    +0.000 A 
ATOM      4  C   UNL     1       5.165   3.573  15.063  0.00  0.00    +0.000 A 
ATOM      5  C   UNL     1       6.182   4.004  14.192  0.00  0.00    +0.000 A 
ATOM      6  C   UNL     1       7.028   5.046  14.598  0.00  0.00    +0.000 A 
ENDROOT
BRANCH   1   8
ATOM      7  C   UNL     1       7.020   7.445  17.438  0.00  0.00    +0.000 C 
ATOM      8  O   UNL     1       7.628   6.591  16.482  0.00  0.00    +0.000 OA
ENDBRANCH   1   8
BRANCH   3   9
ATOM      9  C   UNL     1       3.913   3.699  17.240  0.00  0.00    +0.000 C 
ATOM     10  C   UNL     1       2.816   4.414  17.541  0.00  0.00    +0.000 C 
BRANCH  10  11
ATOM     11  C   UNL     1       1.762   3.827  18.396  0.00  0.00    +0.000 C 
ATOM     12  O   UNL     1       1.034   2.902  18.082  0.00  0.00    +0.000 OA
BRANCH  11  13
ATOM     13  O   UNL     1       1.691   4.553  19.540  0.00  0.00    +0.000 OA
BRANCH  13  14
ATOM     14  C   UNL     1       2.691   4.239  20.531  0.00  0.00    +0.000 C 
BRANCH  14  15
ATOM     15  C   UNL     1       2.645   2.785  20.991  0.00  0.00    +0.000 C 
BRANCH  15  16
ATOM     16  O   UNL     1       1.725   2.630  22.070  0.00  0.00    +0.000 OA
ATOM     17  H   UNL     1       1.976   1.811  22.532  0.00  0.00    +0.000 HD
ENDBRANCH  15  16
ENDBRANCH  14  15
ENDBRANCH  13  14
ENDBRANCH  11  13
ENDBRANCH  10  11
ENDBRANCH   3   9
BRANCH   5  18
ATOM     18  O   UNL     1       6.154   3.290  13.026  0.00  0.00    +0.000 OA
ATOM     19  C   UNL     1       5.127   3.458  12.067  0.00  0.00    +0.000 C 
ENDBRANCH   5  18
BRANCH   6  20
ATOM     20  O   UNL     1       7.992   5.552  13.771  0.00  0.00    +0.000 OA
ATOM     21  H   UNL     1       8.344   4.817  13.250  0.00  0.00    +0.000 HD
ENDBRANCH   6  20
TORSDOF 9
ENDMDL
MODEL 6
REMARK VINA RESULT:      -6.2      3.783      5.875
REMARK  Name = 
REMARK  11 active torsions:
REMARK  status: ('A' for Active; 'I' for Inactive)
REMARK    1  A    between atoms: C_1  and  O_2
REMARK    2  A    between atoms: O_2  and  C_3
REMARK    3  A    between atoms: C_5  and  C_6
REMARK    4  A    between atoms: C_7  and  C_8
REMARK    5  A    between atoms: C_8  and  O_10
REMARK    6  A    between atoms: O_10  and  C_11
REMARK    7  A    between atoms: C_11  and  C_12
REMARK    8  A    between atoms: C_12  and  O_13
REMARK    9  A    between atoms: C_15  and  O_16
REMARK   10  A    between atoms: O_16  and  C_17
REMARK   11  A    between atoms: C_18  and  O_19
REMARK                            x       y       z     vdW  Elec       q    Type
REMARK                         _______ _______ _______ _____ _____    ______ ____
ROOT
ATOM      1  C   UNL     1       5.233   4.404  18.969  0.00  0.00    +0.000 A 
ATOM      2  C   UNL     1       4.606   5.625  18.669  0.00  0.00    +0.000 A 
ATOM      3  C   UNL     1       3.229   5.794  18.823  0.00  0.00    +0.000 A 
ATOM      4  C   UNL     1       2.492   4.730  19.348  0.00  0.00    +0.000 A 
ATOM      5  C   UNL     1       3.084   3.493  19.663  0.00  0.00    +0.000 A 
ATOM      6  C   UNL     1       4.461   3.325  19.450  0.00  0.00    +0.000 A 
ENDROOT
BRANCH   1   8
ATOM      7  C   UNL     1       7.068   4.607  17.422  0.00  0.00    +0.000 C 
ATOM      8  O   UNL     1       6.585   4.460  18.748  0.00  0.00    +0.000 OA
ENDBRANCH   1   8
BRANCH   3   9
ATOM      9  C   UNL     1       2.618   7.095  18.505  0.00  0.00    +0.000 C 
ATOM     10  C   UNL     1       1.958   7.854  19.395  0.00  0.00    +0.000 C 
BRANCH  10  11
ATOM     11  C   UNL     1       1.471   9.195  19.007  0.00  0.00    +0.000 C 
ATOM     12  O   UNL     1       1.673   9.735  17.933  0.00  0.00    +0.000 OA
BRANCH  11  13
ATOM     13  O   UNL     1       0.848   9.747  20.078  0.00  0.00    +0.000 OA
BRANCH  13  14
ATOM     14  C   UNL     1       1.041   9.052  21.327  0.00  0.00    +0.000 C 
BRANCH  14  15
ATOM     15  C   UNL     1      -0.076   9.307  22.335  0.00  0.00    +0.000 C 
BRANCH  15  16
ATOM     16  O   UNL     1       0.467   9.699  23.594  0.00  0.00    +0.000 OA
ATOM     17  H   UNL     1       0.100  10.579  23.792  0.00  0.00    +0.000 HD
ENDBRANCH  15  16
ENDBRANCH  14  15
ENDBRANCH  13  14
ENDBRANCH  11  13
ENDBRANCH  10  11
ENDBRANCH   3   9
BRANCH   5  18
ATOM     18  O   UNL     1       2.149   2.618  20.141  0.00  0.00    +0.000 OA
ATOM     19  C   UNL     1       1.664   2.689  21.469  0.00  0.00    +0.000 C 
ENDBRANCH   5  18
BRANCH   6  20
ATOM     20  O   UNL     1       5.081   2.128  19.675  0.00  0.00    +0.000 OA
ATOM     21  H   UNL     1       6.033   2.297  19.722  0.00  0.00    +0.000 HD
ENDBRANCH   6  20
TORSDOF 9
ENDMDL
MODEL 7
REMARK VINA RESULT:      -6.2      1.191      1.416
REMARK  Name = 
REMARK  11 active torsions:
REMARK  status: ('A' for Active; 'I' for Inactive)
REMARK    1  A    between atoms: C_1  and  O_2
REMARK    2  A    between atoms: O_2  and  C_3
REMARK    3  A    between atoms: C_5  and  C_6
REMARK    4  A    between atoms: C_7  and  C_8
REMARK    5  A    between atoms: C_8  and  O_10
REMARK    6  A    between atoms: O_10  and  C_11
REMARK    7  A    between atoms: C_11  and  C_12
REMARK    8  A    between atoms: C_12  and  O_13
REMARK    9  A    between atoms: C_15  and  O_16
REMARK   10  A    between atoms: O_16  and  C_17
REMARK   11  A    between atoms: C_18  and  O_19
REMARK                            x       y       z     vdW  Elec       q    Type
REMARK                         _______ _______ _______ _____ _____    ______ ____
ROOT
ATOM      1  C   UNL     1       5.579   4.442  14.849  0.00  0.00    +0.000 A 
ATOM      2  C   UNL     1       4.578   3.998  15.730  0.00  0.00    +0.000 A 
ATOM      3  C   UNL     1       4.718   4.123  17.113  0.00  0.00    +0.000 A 
ATOM      4  C   UNL     1       5.860   4.762  17.602  0.00  0.00    +0.000 A 
ATOM      5  C   UNL     1       6.882   5.222  16.752  0.00  0.00    +0.000 A 
ATOM      6  C   UNL     1       6.748   5.039  15.367  0.00  0.00    +0.000 A 
ENDROOT
BRANCH   1   8
ATOM      7  C   UNL     1       6.033   3.365  12.743  0.00  0.00    +0.000 C 
ATOM      8  O   UNL     1       5.234   4.225  13.539  0.00  0.00    +0.000 OA
ENDBRANCH   1   8
BRANCH   3   9
ATOM      9  C   UNL     1       3.638   3.652  17.996  0.00  0.00    +0.000 C 
ATOM     10  C   UNL     1       2.597   2.910  17.582  0.00  0.00    +0.000 C 
BRANCH  10  11
ATOM     11  C   UNL     1       1.619   2.396  18.563  0.00  0.00    +0.000 C 
ATOM     12  O   UNL     1       0.446   2.158  18.332  0.00  0.00    +0.000 OA
BRANCH  11  13
ATOM     13  O   UNL     1       2.229   2.327  19.773  0.00  0.00    +0.000 OA
BRANCH  13  14
ATOM     14  C   UNL     1       1.494   2.912  20.867  0.00  0.00    +0.000 C 
BRANCH  14  15
ATOM     15  C   UNL     1       1.303   4.419  20.723  0.00  0.00    +0.000 C 
BRANCH  15  16
ATOM     16  O   UNL     1       2.507   5.110  21.048  0.00  0.00    +0.000 OA
ATOM     17  H   UNL     1       2.241   5.963  21.435  0.00  0.00    +0.000 HD
ENDBRANCH  15  16
ENDBRANCH  14  15
ENDBRANCH  13  14
ENDBRANCH  11  13
ENDBRANCH  10  11
ENDBRANCH   3   9
BRANCH   5  18
ATOM     18  O   UNL     1       7.892   5.791  17.476  0.00  0.00    +0.000 OA
ATOM     19  C   UNL     1       7.700   6.971  18.234  0.00  0.00    +0.000 C 
ENDBRANCH   5  18
BRANCH   6  20
ATOM     20  O   UNL     1       7.736   5.405  14.496  0.00  0.00    +0.000 OA
ATOM     21  H   UNL     1       8.574   5.381  14.979  0.00  0.00    +0.000 HD
ENDBRANCH   6  20
TORSDOF 9
ENDMDL
MODEL 8
REMARK VINA RESULT:      -6.1      1.180      3.291
REMARK  Name = 
REMARK  11 active torsions:
REMARK  status: ('A' for Active; 'I' for Inactive)
REMARK    1  A    between atoms: C_1  and  O_2
REMARK    2  A    between atoms: O_2  and  C_3
REMARK    3  A    between atoms: C_5  and  C_6
REMARK    4  A    between atoms: C_7  and  C_8
REMARK    5  A    between atoms: C_8  and  O_10
REMARK    6  A    between atoms: O_10  and  C_11
REMARK    7  A    between atoms: C_11  and  C_12
REMARK    8  A    between atoms: C_12  and  O_13
REMARK    9  A    between atoms: C_15  and  O_16
REMARK   10  A    between atoms: O_16  and  C_17
REMARK   11  A    between atoms: C_18  and  O_19
REMARK                            x       y       z     vdW  Elec       q    Type
REMARK                         _______ _______ _______ _____ _____    ______ ____
ROOT
ATOM      1  C   UNL     1       6.667   5.652  16.733  0.00  0.00    +0.000 A 
ATOM      2  C   UNL     1       5.613   5.183  17.535  0.00  0.00    +0.000 A 
ATOM      3  C   UNL     1       4.790   4.135  17.117  0.00  0.00    +0.000 A 
ATOM      4  C   UNL     1       5.083   3.519  15.898  0.00  0.00    +0.000 A 
ATOM      5  C   UNL     1       6.131   3.958  15.069  0.00  0.00    +0.000 A 
ATOM      6  C   UNL     1       6.913   5.047  15.482  0.00  0.00    +0.000 A 
ENDROOT
BRANCH   1   8
ATOM      7  C   UNL     1       7.852   6.500  18.650  0.00  0.00    +0.000 C 
ATOM      8  O   UNL     1       7.345   6.680  17.338  0.00  0.00    +0.000 OA
ENDBRANCH   1   8
BRANCH   3   9
ATOM      9  C   UNL     1       3.704   3.672  17.995  0.00  0.00    +0.000 C 
ATOM     10  C   UNL     1       2.664   2.931  17.578  0.00  0.00    +0.000 C 
BRANCH  10  11
ATOM     11  C   UNL     1       1.678   2.424  18.557  0.00  0.00    +0.000 C 
ATOM     12  O   UNL     1       0.504   2.196  18.321  0.00  0.00    +0.000 OA
BRANCH  11  13
ATOM     13  O   UNL     1       2.284   2.349  19.768  0.00  0.00    +0.000 OA
BRANCH  13  14
ATOM     14  C   UNL     1       1.547   2.931  20.862  0.00  0.00    +0.000 C 
BRANCH  14  15
ATOM     15  C   UNL     1       1.372   4.441  20.731  0.00  0.00    +0.000 C 
BRANCH  15  16
ATOM     16  O   UNL     1       2.457   5.126  21.356  0.00  0.00    +0.000 OA
ATOM     17  H   UNL     1       3.224   5.028  20.765  0.00  0.00    +0.000 HD
ENDBRANCH  15  16
ENDBRANCH  14  15
ENDBRANCH  13  14
ENDBRANCH  11  13
ENDBRANCH  10  11
ENDBRANCH   3   9
BRANCH   5  18
ATOM     18  O   UNL     1       6.196   3.202  13.932  0.00  0.00    +0.000 OA
ATOM     19  C   UNL     1       5.918   3.743  12.654  0.00  0.00    +0.000 C 
ENDBRANCH   5  18
BRANCH   6  20
ATOM     20  O   UNL     1       7.903   5.561  14.692  0.00  0.00    +0.000 OA
ATOM     21  H   UNL     1       8.747   5.389  15.133  0.00  0.00    +0.000 HD
ENDBRANCH   6  20
TORSDOF 9
ENDMDL
MODEL 9
REMARK VINA RESULT:      -6.1      2.023      7.186
REMARK  Name = 
REMARK  11 active torsions:
REMARK  status: ('A' for Active; 'I' for Inactive)
REMARK    1  A    between atoms: C_1  and  O_2
REMARK    2  A    between atoms: O_2  and  C_3
REMARK    3  A    between atoms: C_5  and  C_6
REMARK    4  A    between atoms: C_7  and  C_8
REMARK    5  A    between atoms: C_8  and  O_10
REMARK    6  A    between atoms: O_10  and  C_11
REMARK    7  A    between atoms: C_11  and  C_12
REMARK    8  A    between atoms: C_12  and  O_13
REMARK    9  A    between atoms: C_15  and  O_16
REMARK   10  A    between atoms: O_16  and  C_17
REMARK   11  A    between atoms: C_18  and  O_19
REMARK                            x       y       z     vdW  Elec       q    Type
REMARK                         _______ _______ _______ _____ _____    ______ ____
ROOT
ATOM      1  C   UNL     1       3.077   6.586  18.778  0.00  0.00    +0.000 A 
ATOM      2  C   UNL     1       3.742   6.513  17.542  0.00  0.00    +0.000 A 
ATOM      3  C   UNL     1       4.377   5.341  17.125  0.00  0.00    +0.000 A 
ATOM      4  C   UNL     1       4.280   4.216  17.947  0.00  0.00    +0.000 A 
ATOM      5  C   UNL     1       3.621   4.250  19.189  0.00  0.00    +0.000 A 
ATOM      6  C   UNL     1       3.035   5.451  19.615  0.00  0.00    +0.000 A 
ENDROOT
BRANCH   1   8
ATOM      7  C   UNL     1       2.123   8.601  17.864  0.00  0.00    +0.000 C 
ATOM      8  O   UNL     1       2.524   7.825  18.982  0.00  0.00    +0.000 OA
ENDBRANCH   1   8
BRANCH   3   9
ATOM      9  C   UNL     1       5.053   5.309  15.818  0.00  0.00    +0.000 C 
ATOM     10  C   UNL     1       6.339   4.957  15.645  0.00  0.00    +0.000 C 
BRANCH  10  11
ATOM     11  C   UNL     1       6.899   4.852  14.281  0.00  0.00    +0.000 C 
ATOM     12  O   UNL     1       7.880   5.450  13.874  0.00  0.00    +0.000 OA
BRANCH  11  13
ATOM     13  O   UNL     1       6.081   4.056  13.547  0.00  0.00    +0.000 OA
BRANCH  13  14
ATOM     14  C   UNL     1       6.614   3.633  12.276  0.00  0.00    +0.000 C 
BRANCH  14  15
ATOM     15  C   UNL     1       5.922   2.393  11.717  0.00  0.00    +0.000 C 
BRANCH  15  16
ATOM     16  O   UNL     1       6.884   1.460  11.229  0.00  0.00    +0.000 OA
ATOM     17  H   UNL     1       6.437   0.596  11.191  0.00  0.00    +0.000 HD
ENDBRANCH  15  16
ENDBRANCH  14  15
ENDBRANCH  13  14
ENDBRANCH  11  13
ENDBRANCH  10  11
ENDBRANCH   3   9
BRANCH   5  18
ATOM     18  O   UNL     1       3.682   3.029  19.802  0.00  0.00    +0.000 OA
ATOM     19  C   UNL     1       2.899   1.932  19.371  0.00  0.00    +0.000 C 
ENDBRANCH   5  18
BRANCH   6  20
ATOM     20  O   UNL     1       2.438   5.565  20.839  0.00  0.00    +0.000 OA
ATOM     21  H   UNL     1       2.681   6.428  21.203  0.00  0.00    +0.000 HD
ENDBRANCH   6  20
TORSDOF 9
ENDMDL
