MODEL 1
REMARK VINA RESULT:      -7.4      0.000      0.000
REMARK  Name = 
REMARK  6 active torsions:
REMARK  status: ('A' for Active; 'I' for Inactive)
REMARK    1  A    between atoms: C_1  and  N_2
REMARK    2  A    between atoms: N_2  and  C_3
REMARK    3  A    between atoms: N_2  and  S_9
REMARK    4  A    between atoms: C_3  and  C_4
REMARK    5  A    between atoms: S_9  and  C_12
REMARK    6  A    between atoms: C_15  and  C_16
REMARK                            x       y       z     vdW  Elec       q    Type
REMARK                         _______ _______ _______ _____ _____    ______ ____
ROOT
ATOM      1  S   UNL     1       5.906   5.153  18.165  0.00  0.00    +0.000 S 
ATOM      2  O   UNL     1       6.856   6.198  18.482  0.00  0.00    +0.000 OA
ATOM      3  O   UNL     1       5.828   3.954  18.975  0.00  0.00    +0.000 OA
ENDROOT
BRANCH   1   4
ATOM      4  C   UNL     1       6.241   4.669  16.503  0.00  0.00    +0.000 A 
ATOM      5  C   UNL     1       5.477   3.675  15.893  0.00  0.00    +0.000 A 
ATOM      6  C   UNL     1       5.637   3.432  14.530  0.00  0.00    +0.000 A 
ATOM      7  C   UNL     1       6.560   4.189  13.802  0.00  0.00    +0.000 A 
ATOM      8  N   UNL     1       7.316   5.160  14.403  0.00  0.00    +0.000 NA
ATOM      9  C   UNL     1       7.127   5.391  15.729  0.00  0.00    +0.000 A 
BRANCH   7  10
ATOM     10  C   UNL     1       6.709   3.953  12.300  0.00  0.00    +0.000 C 
ATOM     11  F   UNL     1       5.510   3.913  11.642  0.00  0.00    +0.000 F 
ATOM     12  F   UNL     1       7.431   4.926  11.674  0.00  0.00    +0.000 F 
ATOM     13  F   UNL     1       7.322   2.773  12.002  0.00  0.00    +0.000 F 
ENDBRANCH   7  10
ENDBRANCH   1   4
BRANCH   1  15
ATOM     14  C   UNL     1       4.317   7.165  17.380  0.00  0.00    +0.000 C 
ATOM     15  N   UNL     1       4.338   5.854  18.086  0.00  0.00    +0.000 NA
BRANCH  15  16
ATOM     16  C   UNL     1       3.339   4.880  17.550  0.00  0.00    +0.000 C 
BRANCH  16  17
ATOM     17  C   UNL     1       2.440   4.332  18.628  0.00  0.00    +0.000 A 
ATOM     18  C   UNL     1       1.579   3.251  18.577  0.00  0.00    +0.000 A 
ATOM     19  C   UNL     1       0.873   3.061  19.803  0.00  0.00    +0.000 A 
ATOM     20  C   UNL     1       1.210   4.008  20.743  0.00  0.00    +0.000 A 
ATOM     21  S   UNL     1       2.369   5.115  20.153  0.00  0.00    +0.000 S 
ENDBRANCH  16  17
ENDBRANCH  15  16
ENDBRANCH   1  15
TORSDOF 5
ENDMDL
MODEL 2
REMARK VINA RESULT:      -7.3      0.719      1.226
REMARK  Name = 
REMARK  6 active torsions:
REMARK  status: ('A' for Active; 'I' for Inactive)
REMARK    1  A    between atoms: C_1  and  N_2
REMARK    2  A    between atoms: N_2  and  C_3
REMARK    3  A    between atoms: N_2  and  S_9
REMARK    4  A    between atoms: C_3  and  C_4
REMARK    5  A    between atoms: S_9  and  C_12
REMARK    6  A    between atoms: C_15  and  C_16
REMARK                            x       y       z     vdW  Elec       q    Type
REMARK                         _______ _______ _______ _____ _____    ______ ____
ROOT
ATOM      1  S   UNL     1       5.908   5.045  18.186  0.00  0.00    +0.000 S 
ATOM      2  O   UNL     1       6.893   6.040  18.552  0.00  0.00    +0.000 OA
ATOM      3  O   UNL     1       5.769   3.825  18.956  0.00  0.00    +0.000 OA
ENDROOT
BRANCH   1   4
ATOM      4  C   UNL     1       6.249   4.602  16.515  0.00  0.00    +0.000 A 
ATOM      5  C   UNL     1       5.462   3.651  15.865  0.00  0.00    +0.000 A 
ATOM      6  C   UNL     1       5.633   3.444  14.497  0.00  0.00    +0.000 A 
ATOM      7  C   UNL     1       6.589   4.193  13.805  0.00  0.00    +0.000 A 
ATOM      8  N   UNL     1       7.367   5.121  14.444  0.00  0.00    +0.000 NA
ATOM      9  C   UNL     1       7.167   5.318  15.775  0.00  0.00    +0.000 A 
BRANCH   7  10
ATOM     10  C   UNL     1       6.750   3.999  12.298  0.00  0.00    +0.000 C 
ATOM     11  F   UNL     1       7.523   4.963  11.712  0.00  0.00    +0.000 F 
ATOM     12  F   UNL     1       7.343   2.815  11.971  0.00  0.00    +0.000 F 
ATOM     13  F   UNL     1       5.565   4.030  11.625  0.00  0.00    +0.000 F 
ENDBRANCH   7  10
ENDBRANCH   1   4
BRANCH   1  15
ATOM     14  C   UNL     1       4.385   7.075  17.322  0.00  0.00    +0.000 C 
ATOM     15  N   UNL     1       4.370   5.811  18.108  0.00  0.00    +0.000 NA
BRANCH  15  16
ATOM     16  C   UNL     1       3.313   4.852  17.663  0.00  0.00    +0.000 C 
BRANCH  16  17
ATOM     17  C   UNL     1       2.503   4.319  18.815  0.00  0.00    +0.000 A 
ATOM     18  C   UNL     1       2.061   4.979  19.948  0.00  0.00    +0.000 A 
ATOM     19  C   UNL     1       1.338   4.121  20.830  0.00  0.00    +0.000 A 
ATOM     20  C   UNL     1       1.262   2.834  20.348  0.00  0.00    +0.000 A 
ATOM     21  S   UNL     1       2.054   2.663  18.844  0.00  0.00    +0.000 S 
ENDBRANCH  16  17
ENDBRANCH  15  16
ENDBRANCH   1  15
TORSDOF 5
ENDMDL
MODEL 3
REMARK VINA RESULT:      -7.3      3.323      4.594
REMARK  Name = 
REMARK  6 active torsions:
REMARK  status: ('A' for Active; 'I' for Inactive)
REMARK    1  A    between atoms: C_1  and  N_2
REMARK    2  A    between atoms: N_2  and  C_3
REMARK    3  A    between atoms: N_2  and  S_9
REMARK    4  A    between atoms: C_3  and  C_4
REMARK    5  A    between atoms: S_9  and  C_12
REMARK    6  A    between atoms: C_15  and  C_16
REMARK                            x       y       z     vdW  Elec       q    Type
REMARK                         _______ _______ _______ _____ _____    ______ ____
ROOT
ATOM      1  S   UNL     1       1.828   3.547  18.586  0.00  0.00    +0.000 S 
ATOM      2  O   UNL     1       1.715   2.176  19.035  0.00  0.00    +0.000 OA
ATOM      3  O   UNL     1       0.977   4.049  17.525  0.00  0.00    +0.000 OA
ENDROOT
BRANCH   1   4
ATOM      4  C   UNL     1       3.505   3.770  18.093  0.00  0.00    +0.000 A 
ATOM      5  C   UNL     1       3.805   4.325  16.849  0.00  0.00    +0.000 A 
ATOM      6  C   UNL     1       5.125   4.657  16.551  0.00  0.00    +0.000 A 
ATOM      7  C   UNL     1       6.122   4.426  17.504  0.00  0.00    +0.000 A 
ATOM      8  N   UNL     1       5.829   3.874  18.722  0.00  0.00    +0.000 NA
ATOM      9  C   UNL     1       4.531   3.577  18.996  0.00  0.00    +0.000 A 
BRANCH   7  10
ATOM     10  C   UNL     1       7.564   4.827  17.196  0.00  0.00    +0.000 C 
ATOM     11  F   UNL     1       7.905   4.639  15.885  0.00  0.00    +0.000 F 
ATOM     12  F   UNL     1       7.820   6.141  17.450  0.00  0.00    +0.000 F 
ATOM     13  F   UNL     1       8.481   4.115  17.912  0.00  0.00    +0.000 F 
ENDBRANCH   7  10
ENDBRANCH   1   4
BRANCH   1  15
ATOM     14  C   UNL     1       1.521   3.836  21.233  0.00  0.00    +0.000 C 
ATOM     15  N   UNL     1       1.654   4.579  19.950  0.00  0.00    +0.000 NA
BRANCH  15  16
ATOM     16  C   UNL     1       2.728   5.618  19.979  0.00  0.00    +0.000 C 
BRANCH  16  17
ATOM     17  C   UNL     1       2.252   6.947  19.454  0.00  0.00    +0.000 A 
ATOM     18  C   UNL     1       2.381   7.478  18.183  0.00  0.00    +0.000 A 
ATOM     19  C   UNL     1       1.819   8.786  18.081  0.00  0.00    +0.000 A 
ATOM     20  C   UNL     1       1.291   9.214  19.278  0.00  0.00    +0.000 A 
ATOM     21  S   UNL     1       1.470   8.048  20.513  0.00  0.00    +0.000 S 
ENDBRANCH  16  17
ENDBRANCH  15  16
ENDBRANCH   1  15
TORSDOF 5
ENDMDL
MODEL 4
REMARK VINA RESULT:      -7.2      4.306      7.002
REMARK  Name = 
REMARK  6 active torsions:
REMARK  status: ('A' for Active; 'I' for Inactive)
REMARK    1  A    between atoms: C_1  and  N_2
REMARK    2  A    between atoms: N_2  and  C_3
REMARK    3  A    between atoms: N_2  and  S_9
REMARK    4  A    between atoms: C_3  and  C_4
REMARK    5  A    between atoms: S_9  and  C_12
REMARK    6  A    between atoms: C_15  and  C_16
REMARK                            x       y       z     vdW  Elec       q    Type
REMARK                         _______ _______ _______ _____ _____    ______ ____
ROOT
ATOM      1  S   UNL     1       6.452   5.301  18.090  0.00  0.00    +0.000 S 
ATOM      2  O   UNL     1       7.422   4.246  18.288  0.00  0.00    +0.000 OA
ATOM      3  O   UNL     1       6.743   6.659  18.503  0.00  0.00    +0.000 OA
ENDROOT
BRANCH   1   4
ATOM      4  C   UNL     1       4.982   4.782  18.912  0.00  0.00    +0.000 A 
ATOM      5  C   UNL     1       3.980   5.706  19.211  0.00  0.00    +0.000 A 
ATOM      6  C   UNL     1       2.756   5.251  19.697  0.00  0.00    +0.000 A 
ATOM      7  C   UNL     1       2.557   3.878  19.876  0.00  0.00    +0.000 A 
ATOM      8  N   UNL     1       3.543   2.972  19.590  0.00  0.00    +0.000 NA
ATOM      9  C   UNL     1       4.721   3.440  19.098  0.00  0.00    +0.000 A 
BRANCH   7  10
ATOM     10  C   UNL     1       1.203   3.373  20.369  0.00  0.00    +0.000 C 
ATOM     11  F   UNL     1       0.596   2.517  19.491  0.00  0.00    +0.000 F 
ATOM     12  F   UNL     1       1.283   2.685  21.544  0.00  0.00    +0.000 F 
ATOM     13  F   UNL     1       0.301   4.374  20.576  0.00  0.00    +0.000 F 
ENDBRANCH   7  10
ENDBRANCH   1   4
BRANCH   1  15
ATOM     14  C   UNL     1       5.123   6.466  16.074  0.00  0.00    +0.000 C 
ATOM     15  N   UNL     1       6.013   5.326  16.427  0.00  0.00    +0.000 NA
BRANCH  15  16
ATOM     16  C   UNL     1       7.219   5.226  15.550  0.00  0.00    +0.000 C 
BRANCH  16  17
ATOM     17  C   UNL     1       6.898   4.641  14.201  0.00  0.00    +0.000 A 
ATOM     18  C   UNL     1       5.903   3.744  13.855  0.00  0.00    +0.000 A 
ATOM     19  C   UNL     1       5.936   3.405  12.469  0.00  0.00    +0.000 A 
ATOM     20  C   UNL     1       6.958   4.044  11.806  0.00  0.00    +0.000 A 
ATOM     21  S   UNL     1       7.870   5.046  12.846  0.00  0.00    +0.000 S 
ENDBRANCH  16  17
ENDBRANCH  15  16
ENDBRANCH   1  15
TORSDOF 5
ENDMDL
MODEL 5
REMARK VINA RESULT:      -7.2      1.153      1.698
REMARK  Name = 
REMARK  6 active torsions:
REMARK  status: ('A' for Active; 'I' for Inactive)
REMARK    1  A    between atoms: C_1  and  N_2
REMARK    2  A    between atoms: N_2  and  C_3
REMARK    3  A    between atoms: N_2  and  S_9
REMARK    4  A    between atoms: C_3  and  C_4
REMARK    5  A    between atoms: S_9  and  C_12
REMARK    6  A    between atoms: C_15  and  C_16
REMARK                            x       y       z     vdW  Elec       q    Type
REMARK                         _______ _______ _______ _____ _____    ______ ____
ROOT
ATOM      1  S   UNL     1       6.339   5.236  17.916  0.00  0.00    +0.000 S 
ATOM      2  O   UNL     1       6.018   6.646  17.860  0.00  0.00    +0.000 OA
ATOM      3  O   UNL     1       7.475   4.766  18.683  0.00  0.00    +0.000 OA
ENDROOT
BRANCH   1   4
ATOM      4  C   UNL     1       6.551   4.711  16.246  0.00  0.00    +0.000 A 
ATOM      5  C   UNL     1       5.702   3.750  15.698  0.00  0.00    +0.000 A 
ATOM      6  C   UNL     1       5.770   3.478  14.333  0.00  0.00    +0.000 A 
ATOM      7  C   UNL     1       6.688   4.175  13.541  0.00  0.00    +0.000 A 
ATOM      8  N   UNL     1       7.527   5.113  14.080  0.00  0.00    +0.000 NA
ATOM      9  C   UNL     1       7.427   5.373  15.411  0.00  0.00    +0.000 A 
BRANCH   7  10
ATOM     10  C   UNL     1       6.737   3.910  12.037  0.00  0.00    +0.000 C 
ATOM     11  F   UNL     1       7.380   4.895  11.339  0.00  0.00    +0.000 F 
ATOM     12  F   UNL     1       7.391   2.757  11.717  0.00  0.00    +0.000 F 
ATOM     13  F   UNL     1       5.501   3.816  11.470  0.00  0.00    +0.000 F 
ENDBRANCH   7  10
ENDBRANCH   1   4
BRANCH   1  15
ATOM     14  C   UNL     1       5.206   3.495  19.611  0.00  0.00    +0.000 C 
ATOM     15  N   UNL     1       4.942   4.384  18.446  0.00  0.00    +0.000 NA
BRANCH  15  16
ATOM     16  C   UNL     1       3.794   5.316  18.663  0.00  0.00    +0.000 C 
BRANCH  16  17
ATOM     17  C   UNL     1       2.563   4.601  19.155  0.00  0.00    +0.000 A 
ATOM     18  C   UNL     1       1.900   4.737  20.361  0.00  0.00    +0.000 A 
ATOM     19  C   UNL     1       0.779   3.859  20.467  0.00  0.00    +0.000 A 
ATOM     20  C   UNL     1       0.631   3.076  19.345  0.00  0.00    +0.000 A 
ATOM     21  S   UNL     1       1.831   3.398  18.173  0.00  0.00    +0.000 S 
ENDBRANCH  16  17
ENDBRANCH  15  16
ENDBRANCH   1  15
TORSDOF 5
ENDMDL
MODEL 6
REMARK VINA RESULT:      -7.2      1.698      2.146
REMARK  Name = 
REMARK  6 active torsions:
REMARK  status: ('A' for Active; 'I' for Inactive)
REMARK    1  A    between atoms: C_1  and  N_2
REMARK    2  A    between atoms: N_2  and  C_3
REMARK    3  A    between atoms: N_2  and  S_9
REMARK    4  A    between atoms: C_3  and  C_4
REMARK    5  A    between atoms: S_9  and  C_12
REMARK    6  A    between atoms: C_15  and  C_16
REMARK                            x       y       z     vdW  Elec       q    Type
REMARK                         _______ _______ _______ _____ _____    ______ ____
ROOT
ATOM      1  S   UNL     1       6.050   6.470  17.407  0.00  0.00    +0.000 S 
ATOM      2  O   UNL     1       4.745   7.089  17.330  0.00  0.00    +0.000 OA
ATOM      3  O   UNL     1       7.246   7.279  17.528  0.00  0.00    +0.000 OA
ENDROOT
BRANCH   1   4
ATOM      4  C   UNL     1       6.209   5.470  15.964  0.00  0.00    +0.000 A 
ATOM      5  C   UNL     1       5.212   4.554  15.630  0.00  0.00    +0.000 A 
ATOM      6  C   UNL     1       5.268   3.904  14.398  0.00  0.00    +0.000 A 
ATOM      7  C   UNL     1       6.323   4.182  13.524  0.00  0.00    +0.000 A 
ATOM      8  N   UNL     1       7.306   5.075  13.855  0.00  0.00    +0.000 NA
ATOM      9  C   UNL     1       7.218   5.711  15.054  0.00  0.00    +0.000 A 
BRANCH   7  10
ATOM     10  C   UNL     1       6.366   3.502  12.157  0.00  0.00    +0.000 C 
ATOM     11  F   UNL     1       6.730   2.185  12.223  0.00  0.00    +0.000 F 
ATOM     12  F   UNL     1       5.162   3.510  11.516  0.00  0.00    +0.000 F 
ATOM     13  F   UNL     1       7.256   4.078  11.301  0.00  0.00    +0.000 F 
ENDBRANCH   7  10
ENDBRANCH   1   4
BRANCH   1  15
ATOM     14  C   UNL     1       7.196   5.480  19.619  0.00  0.00    +0.000 C 
ATOM     15  N   UNL     1       6.034   5.335  18.700  0.00  0.00    +0.000 NA
BRANCH  15  16
ATOM     16  C   UNL     1       4.718   5.345  19.408  0.00  0.00    +0.000 C 
BRANCH  16  17
ATOM     17  C   UNL     1       3.826   4.212  18.972  0.00  0.00    +0.000 A 
ATOM     18  C   UNL     1       2.710   4.247  18.156  0.00  0.00    +0.000 A 
ATOM     19  C   UNL     1       2.114   2.960  17.996  0.00  0.00    +0.000 A 
ATOM     20  C   UNL     1       2.786   1.989  18.704  0.00  0.00    +0.000 A 
ATOM     21  S   UNL     1       4.127   2.624  19.551  0.00  0.00    +0.000 S 
ENDBRANCH  16  17
ENDBRANCH  15  16
ENDBRANCH   1  15
TORSDOF 5
ENDMDL
MODEL 7
REMARK VINA RESULT:      -7.1      1.197      1.778
REMARK  Name = 
REMARK  6 active torsions:
REMARK  status: ('A' for Active; 'I' for Inactive)
REMARK    1  A    between atoms: C_1  and  N_2
REMARK    2  A    between atoms: N_2  and  C_3
REMARK    3  A    between atoms: N_2  and  S_9
REMARK    4  A    between atoms: C_3  and  C_4
REMARK    5  A    between atoms: S_9  and  C_12
REMARK    6  A    between atoms: C_15  and  C_16
REMARK                            x       y       z     vdW  Elec       q    Type
REMARK                         _______ _______ _______ _____ _____    ______ ____
ROOT
ATOM      1  S   UNL     1       5.808   5.954  17.729  0.00  0.00    +0.000 S 
ATOM      2  O   UNL     1       5.053   7.156  17.449  0.00  0.00    +0.000 OA
ATOM      3  O   UNL     1       7.058   6.020  18.459  0.00  0.00    +0.000 OA
ENDROOT
BRANCH   1   4
ATOM      4  C   UNL     1       6.124   5.194  16.171  0.00  0.00    +0.000 A 
ATOM      5  C   UNL     1       5.171   4.357  15.591  0.00  0.00    +0.000 A 
ATOM      6  C   UNL     1       5.361   3.909  14.285  0.00  0.00    +0.000 A 
ATOM      7  C   UNL     1       6.503   4.308  13.583  0.00  0.00    +0.000 A 
ATOM      8  N   UNL     1       7.442   5.123  14.155  0.00  0.00    +0.000 NA
ATOM      9  C   UNL     1       7.224   5.562  15.423  0.00  0.00    +0.000 A 
BRANCH   7  10
ATOM     10  C   UNL     1       6.694   3.853  12.137  0.00  0.00    +0.000 C 
ATOM     11  F   UNL     1       7.352   2.657  12.033  0.00  0.00    +0.000 F 
ATOM     12  F   UNL     1       5.518   3.674  11.471  0.00  0.00    +0.000 F 
ATOM     13  F   UNL     1       7.423   4.731  11.392  0.00  0.00    +0.000 F 
ENDBRANCH   7  10
ENDBRANCH   1   4
BRANCH   1  15
ATOM     14  C   UNL     1       5.503   3.921  19.450  0.00  0.00    +0.000 C 
ATOM     15  N   UNL     1       4.774   4.841  18.534  0.00  0.00    +0.000 NA
BRANCH  15  16
ATOM     16  C   UNL     1       3.632   5.546  19.192  0.00  0.00    +0.000 C 
BRANCH  16  17
ATOM     17  C   UNL     1       2.501   4.611  19.531  0.00  0.00    +0.000 A 
ATOM     18  C   UNL     1       1.900   4.379  20.755  0.00  0.00    +0.000 A 
ATOM     19  C   UNL     1       0.872   3.393  20.677  0.00  0.00    +0.000 A 
ATOM     20  C   UNL     1       0.730   2.896  19.402  0.00  0.00    +0.000 A 
ATOM     21  S   UNL     1       1.826   3.616  18.306  0.00  0.00    +0.000 S 
ENDBRANCH  16  17
ENDBRANCH  15  16
ENDBRANCH   1  15
TORSDOF 5
ENDMDL
MODEL 8
REMARK VINA RESULT:      -7.1      1.451      2.046
REMARK  Name = 
REMARK  6 active torsions:
REMARK  status: ('A' for Active; 'I' for Inactive)
REMARK    1  A    between atoms: C_1  and  N_2
REMARK    2  A    between atoms: N_2  and  C_3
REMARK    3  A    between atoms: N_2  and  S_9
REMARK    4  A    between atoms: C_3  and  C_4
REMARK    5  A    between atoms: S_9  and  C_12
REMARK    6  A    between atoms: C_15  and  C_16
REMARK                            x       y       z     vdW  Elec       q    Type
REMARK                         _______ _______ _______ _____ _____    ______ ____
ROOT
ATOM      1  S   UNL     1       4.823   4.673  17.781  0.00  0.00    +0.000 S 
ATOM      2  O   UNL     1       4.336   6.023  17.962  0.00  0.00    +0.000 OA
ATOM      3  O   UNL     1       5.586   4.018  18.824  0.00  0.00    +0.000 OA
ENDROOT
BRANCH   1   4
ATOM      4  C   UNL     1       5.804   4.694  16.317  0.00  0.00    +0.000 A 
ATOM      5  C   UNL     1       5.347   4.070  15.156  0.00  0.00    +0.000 A 
ATOM      6  C   UNL     1       6.049   4.247  13.965  0.00  0.00    +0.000 A 
ATOM      7  C   UNL     1       7.196   5.047  13.958  0.00  0.00    +0.000 A 
ATOM      8  N   UNL     1       7.649   5.653  15.099  0.00  0.00    +0.000 NA
ATOM      9  C   UNL     1       6.935   5.481  16.243  0.00  0.00    +0.000 A 
BRANCH   7  10
ATOM     10  C   UNL     1       7.944   5.278  12.646  0.00  0.00    +0.000 C 
ATOM     11  F   UNL     1       9.299   5.374  12.810  0.00  0.00    +0.000 F 
ATOM     12  F   UNL     1       7.762   4.274  11.742  0.00  0.00    +0.000 F 
ATOM     13  F   UNL     1       7.575   6.429  12.016  0.00  0.00    +0.000 F 
ENDBRANCH   7  10
ENDBRANCH   1   4
BRANCH   1  15
ATOM     14  C   UNL     1       3.706   2.237  17.732  0.00  0.00    +0.000 C 
ATOM     15  N   UNL     1       3.490   3.666  17.375  0.00  0.00    +0.000 NA
BRANCH  15  16
ATOM     16  C   UNL     1       2.212   4.222  17.916  0.00  0.00    +0.000 C 
BRANCH  16  17
ATOM     17  C   UNL     1       1.944   3.770  19.327  0.00  0.00    +0.000 A 
ATOM     18  C   UNL     1       1.168   2.715  19.771  0.00  0.00    +0.000 A 
ATOM     19  C   UNL     1       1.140   2.623  21.195  0.00  0.00    +0.000 A 
ATOM     20  C   UNL     1       1.884   3.615  21.790  0.00  0.00    +0.000 A 
ATOM     21  S   UNL     1       2.613   4.648  20.642  0.00  0.00    +0.000 S 
ENDBRANCH  16  17
ENDBRANCH  15  16
ENDBRANCH   1  15
TORSDOF 5
ENDMDL
MODEL 9
REMARK VINA RESULT:      -7.1      4.153      6.934
REMARK  Name = 
REMARK  6 active torsions:
REMARK  status: ('A' for Active; 'I' for Inactive)
REMARK    1  A    between atoms: C_1  and  N_2
REMARK    2  A    between atoms: N_2  and  C_3
REMARK    3  A    between atoms: N_2  and  S_9
REMARK    4  A    between atoms: C_3  and  C_4
REMARK    5  A    between atoms: S_9  and  C_12
REMARK    6  A    between atoms: C_15  and  C_16
REMARK                            x       y       z     vdW  Elec       q    Type
REMARK                         _______ _______ _______ _____ _____    ______ ____
ROOT
ATOM      1  S   UNL     1       6.439   5.296  17.989  0.00  0.00    +0.000 S 
ATOM      2  O   UNL     1       7.465   4.292  18.172  0.00  0.00    +0.000 OA
ATOM      3  O   UNL     1       6.635   6.648  18.472  0.00  0.00    +0.000 OA
ENDROOT
BRANCH   1   4
ATOM      4  C   UNL     1       4.978   4.653  18.736  0.00  0.00    +0.000 A 
ATOM      5  C   UNL     1       4.207   5.456  19.576  0.00  0.00    +0.000 A 
ATOM      6  C   UNL     1       2.967   4.991  20.013  0.00  0.00    +0.000 A 
ATOM      7  C   UNL     1       2.523   3.731  19.602  0.00  0.00    +0.000 A 
ATOM      8  N   UNL     1       3.284   2.940  18.784  0.00  0.00    +0.000 NA
ATOM      9  C   UNL     1       4.481   3.424  18.355  0.00  0.00    +0.000 A 
BRANCH   7  10
ATOM     10  C   UNL     1       1.148   3.236  20.046  0.00  0.00    +0.000 C 
ATOM     11  F   UNL     1       0.290   4.252  20.368  0.00  0.00    +0.000 F 
ATOM     12  F   UNL     1       0.504   2.512  19.087  0.00  0.00    +0.000 F 
ATOM     13  F   UNL     1       1.197   2.443  21.153  0.00  0.00    +0.000 F 
ENDBRANCH   7  10
ENDBRANCH   1   4
BRANCH   1  15
ATOM     14  C   UNL     1       5.112   6.480  15.983  0.00  0.00    +0.000 C 
ATOM     15  N   UNL     1       6.051   5.374  16.315  0.00  0.00    +0.000 NA
BRANCH  15  16
ATOM     16  C   UNL     1       7.288   5.378  15.475  0.00  0.00    +0.000 C 
BRANCH  16  17
ATOM     17  C   UNL     1       7.058   4.774  14.116  0.00  0.00    +0.000 A 
ATOM     18  C   UNL     1       7.694   5.052  12.919  0.00  0.00    +0.000 A 
ATOM     19  C   UNL     1       7.173   4.283  11.835  0.00  0.00    +0.000 A 
ATOM     20  C   UNL     1       6.152   3.453  12.237  0.00  0.00    +0.000 A 
ATOM     21  S   UNL     1       5.824   3.598  13.907  0.00  0.00    +0.000 S 
ENDBRANCH  16  17
ENDBRANCH  15  16
ENDBRANCH   1  15
TORSDOF 5
ENDMDL
