MODEL 1
REMARK VINA RESULT:      -6.6      0.000      0.000
REMARK  Name = 
REMARK  4 active torsions:
REMARK  status: ('A' for Active; 'I' for Inactive)
REMARK    1  A    between atoms: C_1  and  N_2
REMARK    2  A    between atoms: N_2  and  C_3
REMARK    3  A    between atoms: N_2  and  C_10
REMARK    4  A    between atoms: C_3  and  C_4
REMARK                            x       y       z     vdW  Elec       q    Type
REMARK                         _______ _______ _______ _____ _____    ______ ____
ROOT
ATOM      1  C   UNL     1       5.431   5.031  18.958  0.00  0.00    +0.000 C 
ATOM      2  N   UNL     1       4.786   5.083  17.647  0.00  0.00    +0.000 N 
ENDROOT
BRANCH   2   3
ATOM      3  C   UNL     1       5.551   5.018  16.485  0.00  0.00    +0.000 A 
ATOM      4  C   UNL     1       6.818   5.615  16.359  0.00  0.00    +0.000 A 
ATOM      5  N   UNL     1       7.616   5.589  15.257  0.00  0.00    +0.000 NA
ATOM      6  C   UNL     1       7.137   4.920  14.189  0.00  0.00    +0.000 A 
ATOM      7  C   UNL     1       5.913   4.283  14.187  0.00  0.00    +0.000 A 
ATOM      8 BR   UNL     1       5.313   3.358  12.655  0.00  0.00    +0.000 Br
ATOM      9  C   UNL     1       5.125   4.332  15.337  0.00  0.00    +0.000 A 
ENDBRANCH   2   3
BRANCH   2  10
ATOM     10  C   UNL     1       3.368   5.471  17.623  0.00  0.00    +0.000 C 
BRANCH  10  11
ATOM     11  C   UNL     1       2.460   4.525  18.382  0.00  0.00    +0.000 A 
ATOM     12  C   UNL     1       1.917   4.921  19.612  0.00  0.00    +0.000 A 
ATOM     13  C   UNL     1       1.049   4.062  20.271  0.00  0.00    +0.000 A 
ATOM     14  N   UNL     1       0.678   2.856  19.794  0.00  0.00    +0.000 NA
ATOM     15  C   UNL     1       1.203   2.492  18.608  0.00  0.00    +0.000 A 
ATOM     16  C   UNL     1       2.076   3.280  17.874  0.00  0.00    +0.000 A 
ENDBRANCH  10  11
ENDBRANCH   2  10
TORSDOF 3
ENDMDL
MODEL 2
REMARK VINA RESULT:      -6.6      0.140      1.179
REMARK  Name = 
REMARK  4 active torsions:
REMARK  status: ('A' for Active; 'I' for Inactive)
REMARK    1  A    between atoms: C_1  and  N_2
REMARK    2  A    between atoms: N_2  and  C_3
REMARK    3  A    between atoms: N_2  and  C_10
REMARK    4  A    between atoms: C_3  and  C_4
REMARK                            x       y       z     vdW  Elec       q    Type
REMARK                         _______ _______ _______ _____ _____    ______ ____
ROOT
ATOM      1  C   UNL     1       5.407   5.112  19.048  0.00  0.00    +0.000 C 
ATOM      2  N   UNL     1       4.771   5.198  17.735  0.00  0.00    +0.000 N 
ENDROOT
BRANCH   2   3
ATOM      3  C   UNL     1       5.539   5.109  16.576  0.00  0.00    +0.000 A 
ATOM      4  C   UNL     1       6.806   5.701  16.441  0.00  0.00    +0.000 A 
ATOM      5  N   UNL     1       7.607   5.652  15.341  0.00  0.00    +0.000 NA
ATOM      6  C   UNL     1       7.128   4.964  14.285  0.00  0.00    +0.000 A 
ATOM      7  C   UNL     1       5.903   4.329  14.293  0.00  0.00    +0.000 A 
ATOM      8 BR   UNL     1       5.304   3.375  12.779  0.00  0.00    +0.000 Br
ATOM      9  C   UNL     1       5.113   4.401  15.441  0.00  0.00    +0.000 A 
ENDBRANCH   2   3
BRANCH   2  10
ATOM     10  C   UNL     1       3.370   5.645  17.707  0.00  0.00    +0.000 C 
BRANCH  10  11
ATOM     11  C   UNL     1       2.417   4.720  18.436  0.00  0.00    +0.000 A 
ATOM     12  C   UNL     1       2.058   3.496  17.857  0.00  0.00    +0.000 A 
ATOM     13  C   UNL     1       1.223   2.639  18.560  0.00  0.00    +0.000 A 
ATOM     14  N   UNL     1       0.732   2.906  19.788  0.00  0.00    +0.000 NA
ATOM     15  C   UNL     1       1.091   4.084  20.335  0.00  0.00    +0.000 A 
ATOM     16  C   UNL     1       1.921   5.005  19.713  0.00  0.00    +0.000 A 
ENDBRANCH  10  11
ENDBRANCH   2  10
TORSDOF 3
ENDMDL
MODEL 3
REMARK VINA RESULT:      -6.3      1.696      2.460
REMARK  Name = 
REMARK  4 active torsions:
REMARK  status: ('A' for Active; 'I' for Inactive)
REMARK    1  A    between atoms: C_1  and  N_2
REMARK    2  A    between atoms: N_2  and  C_3
REMARK    3  A    between atoms: N_2  and  C_10
REMARK    4  A    between atoms: C_3  and  C_4
REMARK                            x       y       z     vdW  Elec       q    Type
REMARK                         _______ _______ _______ _____ _____    ______ ____
ROOT
ATOM      1  C   UNL     1       3.082   7.619  18.104  0.00  0.00    +0.000 C 
ATOM      2  N   UNL     1       3.285   6.173  18.020  0.00  0.00    +0.000 N 
ENDROOT
BRANCH   2   3
ATOM      3  C   UNL     1       4.550   5.657  17.746  0.00  0.00    +0.000 A 
ATOM      4  C   UNL     1       5.474   5.306  18.744  0.00  0.00    +0.000 A 
ATOM      5  N   UNL     1       6.721   4.796  18.547  0.00  0.00    +0.000 NA
ATOM      6  C   UNL     1       7.094   4.613  17.265  0.00  0.00    +0.000 A 
ATOM      7  C   UNL     1       6.276   4.909  16.192  0.00  0.00    +0.000 A 
ATOM      8 BR   UNL     1       6.865   4.615  14.424  0.00  0.00    +0.000 Br
ATOM      9  C   UNL     1       5.004   5.428  16.437  0.00  0.00    +0.000 A 
ENDBRANCH   2   3
BRANCH   2  10
ATOM     10  C   UNL     1       2.076   5.338  17.968  0.00  0.00    +0.000 C 
BRANCH  10  11
ATOM     11  C   UNL     1       1.939   4.383  19.137  0.00  0.00    +0.000 A 
ATOM     12  C   UNL     1       1.630   3.037  18.901  0.00  0.00    +0.000 A 
ATOM     13  C   UNL     1       1.557   2.166  19.979  0.00  0.00    +0.000 A 
ATOM     14  N   UNL     1       1.776   2.532  21.258  0.00  0.00    +0.000 NA
ATOM     15  C   UNL     1       2.078   3.828  21.469  0.00  0.00    +0.000 A 
ATOM     16  C   UNL     1       2.177   4.773  20.459  0.00  0.00    +0.000 A 
ENDBRANCH  10  11
ENDBRANCH   2  10
TORSDOF 3
ENDMDL
MODEL 4
REMARK VINA RESULT:      -6.3      1.701      2.198
REMARK  Name = 
REMARK  4 active torsions:
REMARK  status: ('A' for Active; 'I' for Inactive)
REMARK    1  A    between atoms: C_1  and  N_2
REMARK    2  A    between atoms: N_2  and  C_3
REMARK    3  A    between atoms: N_2  and  C_10
REMARK    4  A    between atoms: C_3  and  C_4
REMARK                            x       y       z     vdW  Elec       q    Type
REMARK                         _______ _______ _______ _____ _____    ______ ____
ROOT
ATOM      1  C   UNL     1       3.020   7.667  17.971  0.00  0.00    +0.000 C 
ATOM      2  N   UNL     1       3.217   6.218  17.960  0.00  0.00    +0.000 N 
ENDROOT
BRANCH   2   3
ATOM      3  C   UNL     1       4.482   5.682  17.729  0.00  0.00    +0.000 A 
ATOM      4  C   UNL     1       5.370   5.325  18.759  0.00  0.00    +0.000 A 
ATOM      5  N   UNL     1       6.615   4.798  18.604  0.00  0.00    +0.000 NA
ATOM      6  C   UNL     1       7.025   4.600  17.335  0.00  0.00    +0.000 A 
ATOM      7  C   UNL     1       6.246   4.900  16.236  0.00  0.00    +0.000 A 
ATOM      8 BR   UNL     1       6.885   4.586  14.489  0.00  0.00    +0.000 Br
ATOM      9  C   UNL     1       4.974   5.438  16.438  0.00  0.00    +0.000 A 
ENDBRANCH   2   3
BRANCH   2  10
ATOM     10  C   UNL     1       2.004   5.386  17.932  0.00  0.00    +0.000 C 
BRANCH  10  11
ATOM     11  C   UNL     1       1.950   4.342  19.030  0.00  0.00    +0.000 A 
ATOM     12  C   UNL     1       2.039   4.739  20.370  0.00  0.00    +0.000 A 
ATOM     13  C   UNL     1       1.939   3.776  21.364  0.00  0.00    +0.000 A 
ATOM     14  N   UNL     1       1.749   2.463  21.122  0.00  0.00    +0.000 NA
ATOM     15  C   UNL     1       1.660   2.097  19.829  0.00  0.00    +0.000 A 
ATOM     16  C   UNL     1       1.746   2.984  18.766  0.00  0.00    +0.000 A 
ENDBRANCH  10  11
ENDBRANCH   2  10
TORSDOF 3
ENDMDL
MODEL 5
REMARK VINA RESULT:      -6.3      1.213      1.343
REMARK  Name = 
REMARK  4 active torsions:
REMARK  status: ('A' for Active; 'I' for Inactive)
REMARK    1  A    between atoms: C_1  and  N_2
REMARK    2  A    between atoms: N_2  and  C_3
REMARK    3  A    between atoms: N_2  and  C_10
REMARK    4  A    between atoms: C_3  and  C_4
REMARK                            x       y       z     vdW  Elec       q    Type
REMARK                         _______ _______ _______ _____ _____    ______ ____
ROOT
ATOM      1  C   UNL     1       5.375   4.918  18.837  0.00  0.00    +0.000 C 
ATOM      2  N   UNL     1       5.090   4.157  17.622  0.00  0.00    +0.000 N 
ENDROOT
BRANCH   2   3
ATOM      3  C   UNL     1       5.785   4.427  16.445  0.00  0.00    +0.000 A 
ATOM      4  C   UNL     1       6.885   5.300  16.380  0.00  0.00    +0.000 A 
ATOM      5  N   UNL     1       7.607   5.606  15.268  0.00  0.00    +0.000 NA
ATOM      6  C   UNL     1       7.223   5.007  14.123  0.00  0.00    +0.000 A 
ATOM      7  C   UNL     1       6.166   4.122  14.054  0.00  0.00    +0.000 A 
ATOM      8 BR   UNL     1       5.693   3.313  12.416  0.00  0.00    +0.000 Br
ATOM      9  C   UNL     1       5.451   3.833  15.218  0.00  0.00    +0.000 A 
ENDBRANCH   2   3
BRANCH   2  10
ATOM     10  C   UNL     1       3.886   3.314  17.637  0.00  0.00    +0.000 C 
BRANCH  10  11
ATOM     11  C   UNL     1       3.094   3.397  18.927  0.00  0.00    +0.000 A 
ATOM     12  C   UNL     1       1.964   4.222  18.996  0.00  0.00    +0.000 A 
ATOM     13  C   UNL     1       1.223   4.249  20.168  0.00  0.00    +0.000 A 
ATOM     14  N   UNL     1       1.517   3.515  21.261  0.00  0.00    +0.000 NA
ATOM     15  C   UNL     1       2.602   2.722  21.178  0.00  0.00    +0.000 A 
ATOM     16  C   UNL     1       3.404   2.624  20.051  0.00  0.00    +0.000 A 
ENDBRANCH  10  11
ENDBRANCH   2  10
TORSDOF 3
ENDMDL
MODEL 6
REMARK VINA RESULT:      -6.2      1.262      1.590
REMARK  Name = 
REMARK  4 active torsions:
REMARK  status: ('A' for Active; 'I' for Inactive)
REMARK    1  A    between atoms: C_1  and  N_2
REMARK    2  A    between atoms: N_2  and  C_3
REMARK    3  A    between atoms: N_2  and  C_10
REMARK    4  A    between atoms: C_3  and  C_4
REMARK                            x       y       z     vdW  Elec       q    Type
REMARK                         _______ _______ _______ _____ _____    ______ ____
ROOT
ATOM      1  C   UNL     1       3.547   6.550  18.014  0.00  0.00    +0.000 C 
ATOM      2  N   UNL     1       3.866   5.291  17.342  0.00  0.00    +0.000 N 
ENDROOT
BRANCH   2   3
ATOM      3  C   UNL     1       4.970   5.206  16.498  0.00  0.00    +0.000 A 
ATOM      4  C   UNL     1       6.207   5.812  16.781  0.00  0.00    +0.000 A 
ATOM      5  N   UNL     1       7.323   5.767  16.003  0.00  0.00    +0.000 NA
ATOM      6  C   UNL     1       7.223   5.070  14.854  0.00  0.00    +0.000 A 
ATOM      7  C   UNL     1       6.068   4.422  14.465  0.00  0.00    +0.000 A 
ATOM      8 BR   UNL     1       6.006   3.456  12.845  0.00  0.00    +0.000 Br
ATOM      9  C   UNL     1       4.945   4.490  15.291  0.00  0.00    +0.000 A 
ENDBRANCH   2   3
BRANCH   2  10
ATOM     10  C   UNL     1       2.839   4.239  17.387  0.00  0.00    +0.000 C 
BRANCH  10  11
ATOM     11  C   UNL     1       2.560   3.712  18.780  0.00  0.00    +0.000 A 
ATOM     12  C   UNL     1       3.573   3.054  19.489  0.00  0.00    +0.000 A 
ATOM     13  C   UNL     1       3.316   2.621  20.782  0.00  0.00    +0.000 A 
ATOM     14  N   UNL     1       2.140   2.802  21.416  0.00  0.00    +0.000 NA
ATOM     15  C   UNL     1       1.177   3.442  20.724  0.00  0.00    +0.000 A 
ATOM     16  C   UNL     1       1.338   3.913  19.430  0.00  0.00    +0.000 A 
ENDBRANCH  10  11
ENDBRANCH   2  10
TORSDOF 3
ENDMDL
MODEL 7
REMARK VINA RESULT:      -6.2      0.931      1.402
REMARK  Name = 
REMARK  4 active torsions:
REMARK  status: ('A' for Active; 'I' for Inactive)
REMARK    1  A    between atoms: C_1  and  N_2
REMARK    2  A    between atoms: N_2  and  C_3
REMARK    3  A    between atoms: N_2  and  C_10
REMARK    4  A    between atoms: C_3  and  C_4
REMARK                            x       y       z     vdW  Elec       q    Type
REMARK                         _______ _______ _______ _____ _____    ______ ____
ROOT
ATOM      1  C   UNL     1       5.244   4.244  18.895  0.00  0.00    +0.000 C 
ATOM      2  N   UNL     1       4.734   4.148  17.528  0.00  0.00    +0.000 N 
ENDROOT
BRANCH   2   3
ATOM      3  C   UNL     1       5.573   4.404  16.445  0.00  0.00    +0.000 A 
ATOM      4  C   UNL     1       6.710   5.227  16.527  0.00  0.00    +0.000 A 
ATOM      5  N   UNL     1       7.570   5.517  15.513  0.00  0.00    +0.000 NA
ATOM      6  C   UNL     1       7.298   4.953  14.319  0.00  0.00    +0.000 A 
ATOM      7  C   UNL     1       6.218   4.119  14.109  0.00  0.00    +0.000 A 
ATOM      8 BR   UNL     1       5.906   3.358  12.411  0.00  0.00    +0.000 Br
ATOM      9  C   UNL     1       5.360   3.845  15.176  0.00  0.00    +0.000 A 
ENDBRANCH   2   3
BRANCH   2  10
ATOM     10  C   UNL     1       3.276   4.041  17.372  0.00  0.00    +0.000 C 
BRANCH  10  11
ATOM     11  C   UNL     1       2.535   3.806  18.673  0.00  0.00    +0.000 A 
ATOM     12  C   UNL     1       2.414   2.504  19.177  0.00  0.00    +0.000 A 
ATOM     13  C   UNL     1       1.775   2.312  20.393  0.00  0.00    +0.000 A 
ATOM     14  N   UNL     1       1.263   3.311  21.140  0.00  0.00    +0.000 NA
ATOM     15  C   UNL     1       1.391   4.558  20.645  0.00  0.00    +0.000 A 
ATOM     16  C   UNL     1       2.014   4.852  19.441  0.00  0.00    +0.000 A 
ENDBRANCH  10  11
ENDBRANCH   2  10
TORSDOF 3
ENDMDL
MODEL 8
REMARK VINA RESULT:      -6.2      2.439      3.096
REMARK  Name = 
REMARK  4 active torsions:
REMARK  status: ('A' for Active; 'I' for Inactive)
REMARK    1  A    between atoms: C_1  and  N_2
REMARK    2  A    between atoms: N_2  and  C_3
REMARK    3  A    between atoms: N_2  and  C_10
REMARK    4  A    between atoms: C_3  and  C_4
REMARK                            x       y       z     vdW  Elec       q    Type
REMARK                         _______ _______ _______ _____ _____    ______ ____
ROOT
ATOM      1  C   UNL     1       2.251   6.712  17.959  0.00  0.00    +0.000 C 
ATOM      2  N   UNL     1       2.969   5.443  17.851  0.00  0.00    +0.000 N 
ENDROOT
BRANCH   2   3
ATOM      3  C   UNL     1       4.285   5.417  17.396  0.00  0.00    +0.000 A 
ATOM      4  C   UNL     1       4.816   4.369  16.624  0.00  0.00    +0.000 A 
ATOM      5  N   UNL     1       6.088   4.281  16.148  0.00  0.00    +0.000 NA
ATOM      6  C   UNL     1       6.910   5.305  16.450  0.00  0.00    +0.000 A 
ATOM      7  C   UNL     1       6.510   6.398  17.193  0.00  0.00    +0.000 A 
ATOM      8 BR   UNL     1       7.716   7.800  17.569  0.00  0.00    +0.000 Br
ATOM      9  C   UNL     1       5.197   6.451  17.662  0.00  0.00    +0.000 A 
ENDBRANCH   2   3
BRANCH   2  10
ATOM     10  C   UNL     1       2.167   4.217  17.979  0.00  0.00    +0.000 C 
BRANCH  10  11
ATOM     11  C   UNL     1       2.240   3.576  19.351  0.00  0.00    +0.000 A 
ATOM     12  C   UNL     1       3.415   2.926  19.751  0.00  0.00    +0.000 A 
ATOM     13  C   UNL     1       3.483   2.387  21.028  0.00  0.00    +0.000 A 
ATOM     14  N   UNL     1       2.481   2.457  21.928  0.00  0.00    +0.000 NA
ATOM     15  C   UNL     1       1.360   3.090  21.531  0.00  0.00    +0.000 A 
ATOM     16  C   UNL     1       1.197   3.662  20.278  0.00  0.00    +0.000 A 
ENDBRANCH  10  11
ENDBRANCH   2  10
TORSDOF 3
ENDMDL
MODEL 9
REMARK VINA RESULT:      -6.1      1.688      2.459
REMARK  Name = 
REMARK  4 active torsions:
REMARK  status: ('A' for Active; 'I' for Inactive)
REMARK    1  A    between atoms: C_1  and  N_2
REMARK    2  A    between atoms: N_2  and  C_3
REMARK    3  A    between atoms: N_2  and  C_10
REMARK    4  A    between atoms: C_3  and  C_4
REMARK                            x       y       z     vdW  Elec       q    Type
REMARK                         _______ _______ _______ _____ _____    ______ ____
ROOT
ATOM      1  C   UNL     1       2.918   7.696  17.731  0.00  0.00    +0.000 C 
ATOM      2  N   UNL     1       3.461   6.620  18.559  0.00  0.00    +0.000 N 
ENDROOT
BRANCH   2   3
ATOM      3  C   UNL     1       4.563   5.887  18.124  0.00  0.00    +0.000 A 
ATOM      4  C   UNL     1       5.606   5.482  18.975  0.00  0.00    +0.000 A 
ATOM      5  N   UNL     1       6.706   4.766  18.618  0.00  0.00    +0.000 NA
ATOM      6  C   UNL     1       6.794   4.414  17.320  0.00  0.00    +0.000 A 
ATOM      7  C   UNL     1       5.833   4.741  16.385  0.00  0.00    +0.000 A 
ATOM      8 BR   UNL     1       6.019   4.203  14.585  0.00  0.00    +0.000 Br
ATOM      9  C   UNL     1       4.718   5.475  16.792  0.00  0.00    +0.000 A 
ENDBRANCH   2   3
BRANCH   2  10
ATOM     10  C   UNL     1       2.642   6.188  19.702  0.00  0.00    +0.000 C 
BRANCH  10  11
ATOM     11  C   UNL     1       2.193   4.743  19.625  0.00  0.00    +0.000 A 
ATOM     12  C   UNL     1       1.586   4.266  18.456  0.00  0.00    +0.000 A 
ATOM     13  C   UNL     1       1.225   2.929  18.383  0.00  0.00    +0.000 A 
ATOM     14  N   UNL     1       1.431   2.039  19.376  0.00  0.00    +0.000 NA
ATOM     15  C   UNL     1       2.022   2.510  20.492  0.00  0.00    +0.000 A 
ATOM     16  C   UNL     1       2.420   3.828  20.658  0.00  0.00    +0.000 A 
ENDBRANCH  10  11
ENDBRANCH   2  10
TORSDOF 3
ENDMDL
