MODEL 1
REMARK VINA RESULT:      -8.2      0.000      0.000
REMARK  Name = 
REMARK  6 active torsions:
REMARK  status: ('A' for Active; 'I' for Inactive)
REMARK    1  A    between atoms: C_1  and  N_2
REMARK    2  A    between atoms: C_8  and  C_9
REMARK    3  A    between atoms: N_11  and  C_12
REMARK    4  A    between atoms: N_11  and  C_13
REMARK    5  A    between atoms: C_13  and  C_14
REMARK    6  A    between atoms: C_17  and  C_18
REMARK                            x       y       z     vdW  Elec       q    Type
REMARK                         _______ _______ _______ _____ _____    ______ ____
ROOT
ATOM      1  C   UNL     1       3.822   6.836  17.810  0.00  0.00    +0.000 C 
ATOM      2  O   UNL     1       4.171   7.160  16.670  0.00  0.00    +0.000 OA
ATOM      3  N   UNL     1       2.916   7.639  18.530  0.00  0.00    +0.000 N 
ATOM      4  C   UNL     1       2.126   7.166  19.666  0.00  0.00    +0.000 C 
ENDROOT
BRANCH   1  12
ATOM      5  C   UNL     1       0.703   2.465  18.744  0.00  0.00    +0.000 C 
ATOM      6  N   UNL     1       2.008   2.533  18.117  0.00  0.00    +0.000 NA
ATOM      7  C   UNL     1       2.989   1.558  18.611  0.00  0.00    +0.000 C 
ATOM      8  C   UNL     1       4.290   2.032  19.308  0.00  0.00    +0.000 C 
ATOM      9  C   UNL     1       4.549   3.452  19.018  0.00  0.00    +0.000 A 
ATOM     10  N   UNL     1       5.639   4.178  19.373  0.00  0.00    +0.000 N 
ATOM     11  N   UNL     1       5.565   5.464  18.994  0.00  0.00    +0.000 NA
ATOM     12  C   UNL     1       4.360   5.577  18.390  0.00  0.00    +0.000 A 
ATOM     13  C   UNL     1       3.711   4.299  18.346  0.00  0.00    +0.000 A 
ATOM     14  C   UNL     1       2.422   3.893  17.730  0.00  0.00    +0.000 C 
ATOM     15  H   UNL     1       6.466   3.869  19.875  0.00  0.00    +0.000 HD
ENDBRANCH   1  12
BRANCH   3  16
ATOM     16  C   UNL     1       2.436   8.830  17.822  0.00  0.00    +0.000 C 
BRANCH  16  17
ATOM     17  C   UNL     1       1.229   9.478  18.439  0.00  0.00    +0.000 A 
ATOM     18  C   UNL     1       1.138  10.020  19.705  0.00  0.00    +0.000 A 
ATOM     19  S   UNL     1      -0.400  10.728  19.940  0.00  0.00    +0.000 S 
ATOM     20  C   UNL     1      -0.842  10.319  18.322  0.00  0.00    +0.000 A 
ATOM     21  N   UNL     1       0.076   9.627  17.670  0.00  0.00    +0.000 NA
BRANCH  20  22
ATOM     22  C   UNL     1      -2.160  10.696  17.775  0.00  0.00    +0.000 A 
ATOM     23  C   UNL     1      -3.110  11.416  18.521  0.00  0.00    +0.000 A 
ATOM     24  C   UNL     1      -4.355  11.748  17.976  0.00  0.00    +0.000 A 
ATOM     25  C   UNL     1      -4.669  11.373  16.673  0.00  0.00    +0.000 A 
ATOM     26  C   UNL     1      -3.734  10.675  15.910  0.00  0.00    +0.000 A 
ATOM     27  C   UNL     1      -2.488  10.347  16.455  0.00  0.00    +0.000 A 
ENDBRANCH  20  22
ENDBRANCH  16  17
ENDBRANCH   3  16
TORSDOF 4
ENDMDL
MODEL 2
REMARK VINA RESULT:      -8.0      1.863      2.985
REMARK  Name = 
REMARK  6 active torsions:
REMARK  status: ('A' for Active; 'I' for Inactive)
REMARK    1  A    between atoms: C_1  and  N_2
REMARK    2  A    between atoms: C_8  and  C_9
REMARK    3  A    between atoms: N_11  and  C_12
REMARK    4  A    between atoms: N_11  and  C_13
REMARK    5  A    between atoms: C_13  and  C_14
REMARK    6  A    between atoms: C_17  and  C_18
REMARK                            x       y       z     vdW  Elec       q    Type
REMARK                         _______ _______ _______ _____ _____    ______ ____
ROOT
ATOM      1  C   UNL     1       2.203   6.259  19.667  0.00  0.00    +0.000 C 
ATOM      2  O   UNL     1       2.028   5.811  20.804  0.00  0.00    +0.000 OA
ATOM      3  N   UNL     1       1.981   7.624  19.401  0.00  0.00    +0.000 N 
ATOM      4  C   UNL     1       2.539   8.337  18.253  0.00  0.00    +0.000 C 
ENDROOT
BRANCH   1  12
ATOM      5  C   UNL     1       7.105   6.720  17.328  0.00  0.00    +0.000 C 
ATOM      6  N   UNL     1       6.446   5.531  17.831  0.00  0.00    +0.000 NA
ATOM      7  C   UNL     1       6.459   4.378  16.921  0.00  0.00    +0.000 C 
ATOM      8  C   UNL     1       5.134   3.792  16.370  0.00  0.00    +0.000 C 
ATOM      9  C   UNL     1       3.988   4.249  17.174  0.00  0.00    +0.000 A 
ATOM     10  N   UNL     1       2.693   3.864  17.052  0.00  0.00    +0.000 N 
ATOM     11  N   UNL     1       1.872   4.490  17.911  0.00  0.00    +0.000 NA
ATOM     12  C   UNL     1       2.672   5.336  18.600  0.00  0.00    +0.000 A 
ATOM     13  C   UNL     1       4.034   5.168  18.187  0.00  0.00    +0.000 A 
ATOM     14  C   UNL     1       5.280   5.804  18.689  0.00  0.00    +0.000 C 
ATOM     15  H   UNL     1       2.294   3.189  16.409  0.00  0.00    +0.000 HD
ENDBRANCH   1  12
BRANCH   3  16
ATOM     16  C   UNL     1       1.559   8.426  20.554  0.00  0.00    +0.000 C 
BRANCH  16  17
ATOM     17  C   UNL     1       0.680   9.595  20.213  0.00  0.00    +0.000 A 
ATOM     18  C   UNL     1       0.833  10.899  20.642  0.00  0.00    +0.000 A 
ATOM     19  S   UNL     1      -0.350  11.903  19.927  0.00  0.00    +0.000 S 
ATOM     20  C   UNL     1      -0.970  10.555  19.045  0.00  0.00    +0.000 A 
ATOM     21  N   UNL     1      -0.378   9.408  19.325  0.00  0.00    +0.000 NA
BRANCH  20  22
ATOM     22  C   UNL     1      -2.094  10.715  18.101  0.00  0.00    +0.000 A 
ATOM     23  C   UNL     1      -3.210  11.524  18.383  0.00  0.00    +0.000 A 
ATOM     24  C   UNL     1      -4.263  11.644  17.472  0.00  0.00    +0.000 A 
ATOM     25  C   UNL     1      -4.217  10.966  16.257  0.00  0.00    +0.000 A 
ATOM     26  C   UNL     1      -3.112  10.175  15.949  0.00  0.00    +0.000 A 
ATOM     27  C   UNL     1      -2.057  10.057  16.861  0.00  0.00    +0.000 A 
ENDBRANCH  20  22
ENDBRANCH  16  17
ENDBRANCH   3  16
TORSDOF 4
ENDMDL
MODEL 3
REMARK VINA RESULT:      -7.4      2.445      2.905
REMARK  Name = 
REMARK  6 active torsions:
REMARK  status: ('A' for Active; 'I' for Inactive)
REMARK    1  A    between atoms: C_1  and  N_2
REMARK    2  A    between atoms: C_8  and  C_9
REMARK    3  A    between atoms: N_11  and  C_12
REMARK    4  A    between atoms: N_11  and  C_13
REMARK    5  A    between atoms: C_13  and  C_14
REMARK    6  A    between atoms: C_17  and  C_18
REMARK                            x       y       z     vdW  Elec       q    Type
REMARK                         _______ _______ _______ _____ _____    ______ ____
ROOT
ATOM      1  C   UNL     1       3.778   6.844  17.687  0.00  0.00    +0.000 C 
ATOM      2  O   UNL     1       4.123   7.102  16.530  0.00  0.00    +0.000 OA
ATOM      3  N   UNL     1       2.823   7.648  18.339  0.00  0.00    +0.000 N 
ATOM      4  C   UNL     1       2.045   7.219  19.499  0.00  0.00    +0.000 C 
ENDROOT
BRANCH   1  12
ATOM      5  C   UNL     1       0.910   2.338  18.776  0.00  0.00    +0.000 C 
ATOM      6  N   UNL     1       2.231   2.455  18.192  0.00  0.00    +0.000 NA
ATOM      7  C   UNL     1       3.253   1.578  18.779  0.00  0.00    +0.000 C 
ATOM      8  C   UNL     1       4.493   2.177  19.492  0.00  0.00    +0.000 C 
ATOM      9  C   UNL     1       4.672   3.591  19.125  0.00  0.00    +0.000 A 
ATOM     10  N   UNL     1       5.699   4.407  19.472  0.00  0.00    +0.000 N 
ATOM     11  N   UNL     1       5.557   5.661  19.013  0.00  0.00    +0.000 NA
ATOM     12  C   UNL     1       4.372   5.659  18.361  0.00  0.00    +0.000 A 
ATOM     13  C   UNL     1       3.808   4.341  18.372  0.00  0.00    +0.000 A 
ATOM     14  C   UNL     1       2.573   3.814  17.738  0.00  0.00    +0.000 C 
ATOM     15  H   UNL     1       6.523   4.184  20.021  0.00  0.00    +0.000 HD
ENDBRANCH   1  12
BRANCH   3  16
ATOM     16  C   UNL     1       2.292   8.759  17.542  0.00  0.00    +0.000 C 
BRANCH  16  17
ATOM     17  C   UNL     1       1.929   9.980  18.338  0.00  0.00    +0.000 A 
ATOM     18  C   UNL     1       2.328  11.278  18.091  0.00  0.00    +0.000 A 
ATOM     19  S   UNL     1       1.597  12.348  19.205  0.00  0.00    +0.000 S 
ATOM     20  C   UNL     1       0.747  11.028  19.923  0.00  0.00    +0.000 A 
ATOM     21  N   UNL     1       1.049   9.848  19.412  0.00  0.00    +0.000 NA
BRANCH  20  22
ATOM     22  C   UNL     1      -0.196  11.247  21.038  0.00  0.00    +0.000 A 
ATOM     23  C   UNL     1      -0.244  10.406  22.165  0.00  0.00    +0.000 A 
ATOM     24  C   UNL     1      -1.158  10.636  23.199  0.00  0.00    +0.000 A 
ATOM     25  C   UNL     1      -2.033  11.715  23.130  0.00  0.00    +0.000 A 
ATOM     26  C   UNL     1      -1.989  12.573  22.032  0.00  0.00    +0.000 A 
ATOM     27  C   UNL     1      -1.072  12.344  20.999  0.00  0.00    +0.000 A 
ENDBRANCH  20  22
ENDBRANCH  16  17
ENDBRANCH   3  16
TORSDOF 4
ENDMDL
MODEL 4
REMARK VINA RESULT:      -7.2      3.281      9.163
REMARK  Name = 
REMARK  6 active torsions:
REMARK  status: ('A' for Active; 'I' for Inactive)
REMARK    1  A    between atoms: C_1  and  N_2
REMARK    2  A    between atoms: C_8  and  C_9
REMARK    3  A    between atoms: N_11  and  C_12
REMARK    4  A    between atoms: N_11  and  C_13
REMARK    5  A    between atoms: C_13  and  C_14
REMARK    6  A    between atoms: C_17  and  C_18
REMARK                            x       y       z     vdW  Elec       q    Type
REMARK                         _______ _______ _______ _____ _____    ______ ____
ROOT
ATOM      1  C   UNL     1       0.523   9.397  20.132  0.00  0.00    +0.000 C 
ATOM      2  O   UNL     1      -0.014   9.135  21.213  0.00  0.00    +0.000 OA
ATOM      3  N   UNL     1       1.575   8.595  19.649  0.00  0.00    +0.000 N 
ATOM      4  C   UNL     1       1.989   8.541  18.248  0.00  0.00    +0.000 C 
ENDROOT
BRANCH   1  12
ATOM      5  C   UNL     1       1.250  14.558  21.729  0.00  0.00    +0.000 C 
ATOM      6  N   UNL     1       1.451  13.975  20.416  0.00  0.00    +0.000 NA
ATOM      7  C   UNL     1       0.855  14.726  19.303  0.00  0.00    +0.000 C 
ATOM      8  C   UNL     1      -0.258  14.091  18.430  0.00  0.00    +0.000 C 
ATOM      9  C   UNL     1      -0.288  12.630  18.604  0.00  0.00    +0.000 A 
ATOM     10  N   UNL     1      -1.056  11.737  17.931  0.00  0.00    +0.000 N 
ATOM     11  N   UNL     1      -0.882  10.471  18.344  0.00  0.00    +0.000 NA
ATOM     12  C   UNL     1       0.020  10.556  19.348  0.00  0.00    +0.000 A 
ATOM     13  C   UNL     1       0.456  11.914  19.503  0.00  0.00    +0.000 A 
ATOM     14  C   UNL     1       1.477  12.502  20.407  0.00  0.00    +0.000 C 
ATOM     15  H   UNL     1      -1.721  11.914  17.185  0.00  0.00    +0.000 HD
ENDBRANCH   1  12
BRANCH   3  16
ATOM     16  C   UNL     1       1.942   7.462  20.505  0.00  0.00    +0.000 C 
BRANCH  16  17
ATOM     17  C   UNL     1       2.366   6.229  19.760  0.00  0.00    +0.000 A 
ATOM     18  C   UNL     1       1.626   5.079  19.573  0.00  0.00    +0.000 A 
ATOM     19  S   UNL     1       2.480   3.976  18.585  0.00  0.00    +0.000 S 
ATOM     20  C   UNL     1       3.768   5.112  18.419  0.00  0.00    +0.000 A 
ATOM     21  N   UNL     1       3.605   6.219  19.121  0.00  0.00    +0.000 NA
BRANCH  20  22
ATOM     22  C   UNL     1       4.947   4.808  17.584  0.00  0.00    +0.000 A 
ATOM     23  C   UNL     1       6.265   4.994  18.040  0.00  0.00    +0.000 A 
ATOM     24  C   UNL     1       7.360   4.707  17.220  0.00  0.00    +0.000 A 
ATOM     25  C   UNL     1       7.159   4.220  15.931  0.00  0.00    +0.000 A 
ATOM     26  C   UNL     1       5.862   4.011  15.466  0.00  0.00    +0.000 A 
ATOM     27  C   UNL     1       4.766   4.295  16.289  0.00  0.00    +0.000 A 
ENDBRANCH  20  22
ENDBRANCH  16  17
ENDBRANCH   3  16
TORSDOF 4
ENDMDL
MODEL 5
REMARK VINA RESULT:      -7.2      1.802      2.348
REMARK  Name = 
REMARK  6 active torsions:
REMARK  status: ('A' for Active; 'I' for Inactive)
REMARK    1  A    between atoms: C_1  and  N_2
REMARK    2  A    between atoms: C_8  and  C_9
REMARK    3  A    between atoms: N_11  and  C_12
REMARK    4  A    between atoms: N_11  and  C_13
REMARK    5  A    between atoms: C_13  and  C_14
REMARK    6  A    between atoms: C_17  and  C_18
REMARK                            x       y       z     vdW  Elec       q    Type
REMARK                         _______ _______ _______ _____ _____    ______ ____
ROOT
ATOM      1  C   UNL     1       2.206   7.445  19.631  0.00  0.00    +0.000 C 
ATOM      2  O   UNL     1       2.179   7.128  20.825  0.00  0.00    +0.000 OA
ATOM      3  N   UNL     1       1.645   8.665  19.208  0.00  0.00    +0.000 N 
ATOM      4  C   UNL     1       1.978   9.326  17.947  0.00  0.00    +0.000 C 
ENDROOT
BRANCH   1  12
ATOM      5  C   UNL     1       1.782   2.022  19.991  0.00  0.00    +0.000 C 
ATOM      6  N   UNL     1       1.635   2.870  18.824  0.00  0.00    +0.000 NA
ATOM      7  C   UNL     1       2.374   2.427  17.634  0.00  0.00    +0.000 C 
ATOM      8  C   UNL     1       3.495   3.309  17.027  0.00  0.00    +0.000 C 
ATOM      9  C   UNL     1       3.392   4.693  17.517  0.00  0.00    +0.000 A 
ATOM     10  N   UNL     1       4.134   5.761  17.129  0.00  0.00    +0.000 N 
ATOM     11  N   UNL     1       3.827   6.888  17.790  0.00  0.00    +0.000 NA
ATOM     12  C   UNL     1       2.860   6.524  18.664  0.00  0.00    +0.000 A 
ATOM     13  C   UNL     1       2.526   5.142  18.478  0.00  0.00    +0.000 A 
ATOM     14  C   UNL     1       1.490   4.303  19.133  0.00  0.00    +0.000 C 
ATOM     15  H   UNL     1       4.866   5.797  16.427  0.00  0.00    +0.000 HD
ENDBRANCH   1  12
BRANCH   3  16
ATOM     16  C   UNL     1       1.070   9.492  20.273  0.00  0.00    +0.000 C 
BRANCH  16  17
ATOM     17  C   UNL     1       0.243  10.649  19.787  0.00  0.00    +0.000 A 
ATOM     18  C   UNL     1       0.661  11.954  19.624  0.00  0.00    +0.000 A 
ATOM     19  S   UNL     1      -0.596  12.904  18.963  0.00  0.00    +0.000 S 
ATOM     20  C   UNL     1      -1.612  11.511  18.881  0.00  0.00    +0.000 A 
ATOM     21  N   UNL     1      -1.072  10.418  19.389  0.00  0.00    +0.000 NA
BRANCH  20  22
ATOM     22  C   UNL     1      -2.976  11.596  18.321  0.00  0.00    +0.000 A 
ATOM     23  C   UNL     1      -3.274  11.231  16.996  0.00  0.00    +0.000 A 
ATOM     24  C   UNL     1      -4.574  11.335  16.493  0.00  0.00    +0.000 A 
ATOM     25  C   UNL     1      -5.603  11.798  17.308  0.00  0.00    +0.000 A 
ATOM     26  C   UNL     1      -5.333  12.148  18.630  0.00  0.00    +0.000 A 
ATOM     27  C   UNL     1      -4.032  12.040  19.133  0.00  0.00    +0.000 A 
ENDBRANCH  20  22
ENDBRANCH  16  17
ENDBRANCH   3  16
TORSDOF 4
ENDMDL
MODEL 6
REMARK VINA RESULT:      -7.2      3.018      8.664
REMARK  Name = 
REMARK  6 active torsions:
REMARK  status: ('A' for Active; 'I' for Inactive)
REMARK    1  A    between atoms: C_1  and  N_2
REMARK    2  A    between atoms: C_8  and  C_9
REMARK    3  A    between atoms: N_11  and  C_12
REMARK    4  A    between atoms: N_11  and  C_13
REMARK    5  A    between atoms: C_13  and  C_14
REMARK    6  A    between atoms: C_17  and  C_18
REMARK                            x       y       z     vdW  Elec       q    Type
REMARK                         _______ _______ _______ _____ _____    ______ ____
ROOT
ATOM      1  C   UNL     1       0.900   8.776  20.998  0.00  0.00    +0.000 C 
ATOM      2  O   UNL     1       0.350   8.376  22.028  0.00  0.00    +0.000 OA
ATOM      3  N   UNL     1       1.708   7.907  20.241  0.00  0.00    +0.000 N 
ATOM      4  C   UNL     1       2.052   8.120  18.836  0.00  0.00    +0.000 C 
ENDROOT
BRANCH   1  12
ATOM      5  C   UNL     1      -2.095  10.057  16.627  0.00  0.00    +0.000 C 
ATOM      6  N   UNL     1      -2.128  10.639  17.954  0.00  0.00    +0.000 NA
ATOM      7  C   UNL     1      -2.111  12.108  17.992  0.00  0.00    +0.000 C 
ATOM      8  C   UNL     1      -0.937  12.866  18.664  0.00  0.00    +0.000 C 
ATOM      9  C   UNL     1      -0.170  11.967  19.542  0.00  0.00    +0.000 A 
ATOM     10  N   UNL     1       0.857  12.299  20.364  0.00  0.00    +0.000 N 
ATOM     11  N   UNL     1       1.379  11.245  21.011  0.00  0.00    +0.000 NA
ATOM     12  C   UNL     1       0.672  10.181  20.566  0.00  0.00    +0.000 A 
ATOM     13  C   UNL     1      -0.356  10.616  19.666  0.00  0.00    +0.000 A 
ATOM     14  C   UNL     1      -1.424   9.848  18.978  0.00  0.00    +0.000 C 
ATOM     15  H   UNL     1       1.258  13.216  20.531  0.00  0.00    +0.000 HD
ENDBRANCH   1  12
BRANCH   3  16
ATOM     16  C   UNL     1       1.814   6.539  20.761  0.00  0.00    +0.000 C 
BRANCH  16  17
ATOM     17  C   UNL     1       2.263   5.521  19.753  0.00  0.00    +0.000 A 
ATOM     18  C   UNL     1       1.517   4.480  19.238  0.00  0.00    +0.000 A 
ATOM     19  S   UNL     1       2.412   3.634  18.053  0.00  0.00    +0.000 S 
ATOM     20  C   UNL     1       3.727   4.734  18.253  0.00  0.00    +0.000 A 
ATOM     21  N   UNL     1       3.540   5.633  19.203  0.00  0.00    +0.000 NA
BRANCH  20  22
ATOM     22  C   UNL     1       4.951   4.613  17.437  0.00  0.00    +0.000 A 
ATOM     23  C   UNL     1       4.917   4.365  16.053  0.00  0.00    +0.000 A 
ATOM     24  C   UNL     1       6.096   4.244  15.311  0.00  0.00    +0.000 A 
ATOM     25  C   UNL     1       7.332   4.377  15.938  0.00  0.00    +0.000 A 
ATOM     26  C   UNL     1       7.389   4.642  17.305  0.00  0.00    +0.000 A 
ATOM     27  C   UNL     1       6.208   4.766  18.046  0.00  0.00    +0.000 A 
ENDBRANCH  20  22
ENDBRANCH  16  17
ENDBRANCH   3  16
TORSDOF 4
ENDMDL
MODEL 7
REMARK VINA RESULT:      -7.2      3.981      5.876
REMARK  Name = 
REMARK  6 active torsions:
REMARK  status: ('A' for Active; 'I' for Inactive)
REMARK    1  A    between atoms: C_1  and  N_2
REMARK    2  A    between atoms: C_8  and  C_9
REMARK    3  A    between atoms: N_11  and  C_12
REMARK    4  A    between atoms: N_11  and  C_13
REMARK    5  A    between atoms: C_13  and  C_14
REMARK    6  A    between atoms: C_17  and  C_18
REMARK                            x       y       z     vdW  Elec       q    Type
REMARK                         _______ _______ _______ _____ _____    ______ ____
ROOT
ATOM      1  C   UNL     1       5.599   4.051  16.803  0.00  0.00    +0.000 C 
ATOM      2  O   UNL     1       4.760   3.212  16.462  0.00  0.00    +0.000 OA
ATOM      3  N   UNL     1       5.733   4.410  18.158  0.00  0.00    +0.000 N 
ATOM      4  C   UNL     1       6.922   5.043  18.725  0.00  0.00    +0.000 C 
ENDROOT
BRANCH   1  12
ATOM      5  C   UNL     1       6.027   1.982  11.778  0.00  0.00    +0.000 C 
ATOM      6  N   UNL     1       5.844   3.363  12.181  0.00  0.00    +0.000 NA
ATOM      7  C   UNL     1       6.743   4.326  11.529  0.00  0.00    +0.000 C 
ATOM      8  C   UNL     1       7.753   5.152  12.366  0.00  0.00    +0.000 C 
ATOM      9  C   UNL     1       7.387   5.136  13.791  0.00  0.00    +0.000 A 
ATOM     10  N   UNL     1       7.977   5.825  14.800  0.00  0.00    +0.000 N 
ATOM     11  N   UNL     1       7.437   5.569  16.003  0.00  0.00    +0.000 NA
ATOM     12  C   UNL     1       6.472   4.653  15.760  0.00  0.00    +0.000 A 
ATOM     13  C   UNL     1       6.382   4.394  14.353  0.00  0.00    +0.000 A 
ATOM     14  C   UNL     1       5.444   3.534  13.588  0.00  0.00    +0.000 C 
ATOM     15  H   UNL     1       8.750   6.480  14.747  0.00  0.00    +0.000 HD
ENDBRANCH   1  12
BRANCH   3  16
ATOM     16  C   UNL     1       4.835   3.709  19.083  0.00  0.00    +0.000 C 
BRANCH  16  17
ATOM     17  C   UNL     1       3.651   4.516  19.535  0.00  0.00    +0.000 A 
ATOM     18  C   UNL     1       2.721   4.158  20.490  0.00  0.00    +0.000 A 
ATOM     19  S   UNL     1       1.605   5.427  20.739  0.00  0.00    +0.000 S 
ATOM     20  C   UNL     1       2.452   6.405  19.597  0.00  0.00    +0.000 A 
ATOM     21  N   UNL     1       3.464   5.793  19.008  0.00  0.00    +0.000 NA
BRANCH  20  22
ATOM     22  C   UNL     1       2.019   7.787  19.308  0.00  0.00    +0.000 A 
ATOM     23  C   UNL     1       2.229   8.401  18.061  0.00  0.00    +0.000 A 
ATOM     24  C   UNL     1       1.816   9.716  17.824  0.00  0.00    +0.000 A 
ATOM     25  C   UNL     1       1.178  10.438  18.828  0.00  0.00    +0.000 A 
ATOM     26  C   UNL     1       0.942   9.842  20.066  0.00  0.00    +0.000 A 
ATOM     27  C   UNL     1       1.354   8.525  20.300  0.00  0.00    +0.000 A 
ENDBRANCH  20  22
ENDBRANCH  16  17
ENDBRANCH   3  16
TORSDOF 4
ENDMDL
MODEL 8
REMARK VINA RESULT:      -7.2      2.026      2.893
REMARK  Name = 
REMARK  6 active torsions:
REMARK  status: ('A' for Active; 'I' for Inactive)
REMARK    1  A    between atoms: C_1  and  N_2
REMARK    2  A    between atoms: C_8  and  C_9
REMARK    3  A    between atoms: N_11  and  C_12
REMARK    4  A    between atoms: N_11  and  C_13
REMARK    5  A    between atoms: C_13  and  C_14
REMARK    6  A    between atoms: C_17  and  C_18
REMARK                            x       y       z     vdW  Elec       q    Type
REMARK                         _______ _______ _______ _____ _____    ______ ____
ROOT
ATOM      1  C   UNL     1       3.915   6.853  17.725  0.00  0.00    +0.000 C 
ATOM      2  O   UNL     1       4.315   7.145  16.594  0.00  0.00    +0.000 OA
ATOM      3  N   UNL     1       2.993   7.685  18.389  0.00  0.00    +0.000 N 
ATOM      4  C   UNL     1       2.150   7.251  19.502  0.00  0.00    +0.000 C 
ENDROOT
BRANCH   1  12
ATOM      5  C   UNL     1       0.666   2.600  18.755  0.00  0.00    +0.000 C 
ATOM      6  N   UNL     1       1.982   2.612  18.147  0.00  0.00    +0.000 NA
ATOM      7  C   UNL     1       2.929   1.629  18.690  0.00  0.00    +0.000 C 
ATOM      8  C   UNL     1       4.231   2.092  19.392  0.00  0.00    +0.000 C 
ATOM      9  C   UNL     1       4.533   3.494  19.059  0.00  0.00    +0.000 A 
ATOM     10  N   UNL     1       5.636   4.203  19.406  0.00  0.00    +0.000 N 
ATOM     11  N   UNL     1       5.602   5.476  18.983  0.00  0.00    +0.000 NA
ATOM     12  C   UNL     1       4.410   5.601  18.356  0.00  0.00    +0.000 A 
ATOM     13  C   UNL     1       3.728   4.340  18.344  0.00  0.00    +0.000 A 
ATOM     14  C   UNL     1       2.438   3.947  17.722  0.00  0.00    +0.000 C 
ATOM     15  H   UNL     1       6.446   3.890  19.932  0.00  0.00    +0.000 HD
ENDBRANCH   1  12
BRANCH   3  16
ATOM     16  C   UNL     1       2.560   8.866  17.634  0.00  0.00    +0.000 C 
BRANCH  16  17
ATOM     17  C   UNL     1       1.248   9.445  18.081  0.00  0.00    +0.000 A 
ATOM     18  C   UNL     1       0.019   9.275  17.476  0.00  0.00    +0.000 A 
ATOM     19  S   UNL     1      -1.205  10.046  18.386  0.00  0.00    +0.000 S 
ATOM     20  C   UNL     1      -0.037  10.520  19.565  0.00  0.00    +0.000 A 
ATOM     21  N   UNL     1       1.205  10.189  19.259  0.00  0.00    +0.000 NA
BRANCH  20  22
ATOM     22  C   UNL     1      -0.436  11.266  20.775  0.00  0.00    +0.000 A 
ATOM     23  C   UNL     1      -0.766  10.628  21.984  0.00  0.00    +0.000 A 
ATOM     24  C   UNL     1      -1.152  11.364  23.108  0.00  0.00    +0.000 A 
ATOM     25  C   UNL     1      -1.207  12.754  23.047  0.00  0.00    +0.000 A 
ATOM     26  C   UNL     1      -0.866  13.408  21.864  0.00  0.00    +0.000 A 
ATOM     27  C   UNL     1      -0.477  12.670  20.741  0.00  0.00    +0.000 A 
ENDBRANCH  20  22
ENDBRANCH  16  17
ENDBRANCH   3  16
TORSDOF 4
ENDMDL
MODEL 9
REMARK VINA RESULT:      -7.1      3.022      4.323
REMARK  Name = 
REMARK  6 active torsions:
REMARK  status: ('A' for Active; 'I' for Inactive)
REMARK    1  A    between atoms: C_1  and  N_2
REMARK    2  A    between atoms: C_8  and  C_9
REMARK    3  A    between atoms: N_11  and  C_12
REMARK    4  A    between atoms: N_11  and  C_13
REMARK    5  A    between atoms: C_13  and  C_14
REMARK    6  A    between atoms: C_17  and  C_18
REMARK                            x       y       z     vdW  Elec       q    Type
REMARK                         _______ _______ _______ _____ _____    ______ ____
ROOT
ATOM      1  C   UNL     1       2.147   6.648  19.406  0.00  0.00    +0.000 C 
ATOM      2  O   UNL     1       1.981   6.345  20.591  0.00  0.00    +0.000 OA
ATOM      3  N   UNL     1       1.889   7.960  18.966  0.00  0.00    +0.000 N 
ATOM      4  C   UNL     1       2.430   8.534  17.736  0.00  0.00    +0.000 C 
ENDROOT
BRANCH   1  12
ATOM      5  C   UNL     1       7.159   6.771  17.265  0.00  0.00    +0.000 C 
ATOM      6  N   UNL     1       6.451   5.654  17.860  0.00  0.00    +0.000 NA
ATOM      7  C   UNL     1       6.480   4.410  17.078  0.00  0.00    +0.000 C 
ATOM      8  C   UNL     1       5.168   3.793  16.530  0.00  0.00    +0.000 C 
ATOM      9  C   UNL     1       3.998   4.352  17.227  0.00  0.00    +0.000 A 
ATOM     10  N   UNL     1       2.701   3.979  17.085  0.00  0.00    +0.000 N 
ATOM     11  N   UNL     1       1.856   4.707  17.833  0.00  0.00    +0.000 NA
ATOM     12  C   UNL     1       2.643   5.608  18.466  0.00  0.00    +0.000 A 
ATOM     13  C   UNL     1       4.018   5.373  18.138  0.00  0.00    +0.000 A 
ATOM     14  C   UNL     1       5.254   6.037  18.627  0.00  0.00    +0.000 C 
ATOM     15  H   UNL     1       2.317   3.246  16.499  0.00  0.00    +0.000 HD
ENDBRANCH   1  12
BRANCH   3  16
ATOM     16  C   UNL     1       1.443   8.893  20.007  0.00  0.00    +0.000 C 
BRANCH  16  17
ATOM     17  C   UNL     1       0.648  10.061  19.499  0.00  0.00    +0.000 A 
ATOM     18  C   UNL     1      -0.696  10.074  19.184  0.00  0.00    +0.000 A 
ATOM     19  S   UNL     1      -1.187  11.647  18.733  0.00  0.00    +0.000 S 
ATOM     20  C   UNL     1       0.408  12.237  19.032  0.00  0.00    +0.000 A 
ATOM     21  N   UNL     1       1.274  11.301  19.375  0.00  0.00    +0.000 NA
BRANCH  20  22
ATOM     22  C   UNL     1       0.733  13.667  18.865  0.00  0.00    +0.000 A 
ATOM     23  C   UNL     1      -0.245  14.676  18.906  0.00  0.00    +0.000 A 
ATOM     24  C   UNL     1       0.096  16.021  18.731  0.00  0.00    +0.000 A 
ATOM     25  C   UNL     1       1.423  16.383  18.522  0.00  0.00    +0.000 A 
ATOM     26  C   UNL     1       2.412  15.401  18.497  0.00  0.00    +0.000 A 
ATOM     27  C   UNL     1       2.070  14.055  18.674  0.00  0.00    +0.000 A 
ENDBRANCH  20  22
ENDBRANCH  16  17
ENDBRANCH   3  16
TORSDOF 4
ENDMDL
