MODEL 1
REMARK VINA RESULT:      -7.4      0.000      0.000
REMARK  Name = 
REMARK  4 active torsions:
REMARK  status: ('A' for Active; 'I' for Inactive)
REMARK    1  A    between atoms: C_1  and  N_2
REMARK    2  A    between atoms: N_5  and  C_6
REMARK    3  A    between atoms: C_6  and  C_14
REMARK    4  A    between atoms: C_7  and  C_8
REMARK                            x       y       z     vdW  Elec       q    Type
REMARK                         _______ _______ _______ _____ _____    ______ ____
ROOT
ATOM      1  C   UNL     1       3.293   6.810  18.241  0.00  0.00    +0.000 C 
ATOM      2  C   UNL     1       4.402   7.101  17.529  0.00  0.00    +0.000 C 
ENDROOT
BRANCH   1   7
ATOM      3  C   UNL     1       0.556  11.101  20.594  0.00  0.00    +0.000 C 
ATOM      4  N   UNL     1       0.686   9.814  19.908  0.00  0.00    +0.000 NA
ATOM      5  C   UNL     1       1.453   8.861  20.744  0.00  0.00    +0.000 C 
ATOM      6  C   UNL     1       1.709   7.509  20.036  0.00  0.00    +0.000 C 
ATOM      7  N   UNL     1       2.389   7.739  18.745  0.00  0.00    +0.000 N 
ATOM      8  C   UNL     1       1.609   8.636  17.877  0.00  0.00    +0.000 C 
ATOM      9  C   UNL     1       1.376   9.982  18.606  0.00  0.00    +0.000 C 
ENDBRANCH   1   7
BRANCH   2  10
ATOM     10  C   UNL     1       5.313   6.110  16.927  0.00  0.00    +0.000 A 
ATOM     11  C   UNL     1       6.412   5.642  17.660  0.00  0.00    +0.000 A 
ATOM     12  C   UNL     1       7.296   4.716  17.102  0.00  0.00    +0.000 A 
ATOM     13  C   UNL     1       7.090   4.249  15.805  0.00  0.00    +0.000 A 
ATOM     14  C   UNL     1       6.003   4.713  15.065  0.00  0.00    +0.000 A 
ATOM     15  C   UNL     1       5.118   5.642  15.623  0.00  0.00    +0.000 A 
ENDBRANCH   2  10
BRANCH   1  16
ATOM     16  C   UNL     1       2.953   5.402  18.534  0.00  0.00    +0.000 A 
ATOM     17  C   UNL     1       1.957   4.754  17.791  0.00  0.00    +0.000 A 
ATOM     18  C   UNL     1       1.558   3.461  18.128  0.00  0.00    +0.000 A 
ATOM     19  C   UNL     1       2.159   2.804  19.202  0.00  0.00    +0.000 A 
ATOM     20  C   UNL     1       3.171   3.430  19.927  0.00  0.00    +0.000 A 
ATOM     21  C   UNL     1       3.570   4.725  19.593  0.00  0.00    +0.000 A 
ENDBRANCH   1  16
TORSDOF 3
ENDMDL
MODEL 2
REMARK VINA RESULT:      -7.4      0.119      1.062
REMARK  Name = 
REMARK  4 active torsions:
REMARK  status: ('A' for Active; 'I' for Inactive)
REMARK    1  A    between atoms: C_1  and  N_2
REMARK    2  A    between atoms: N_5  and  C_6
REMARK    3  A    between atoms: C_6  and  C_14
REMARK    4  A    between atoms: C_7  and  C_8
REMARK                            x       y       z     vdW  Elec       q    Type
REMARK                         _______ _______ _______ _____ _____    ______ ____
ROOT
ATOM      1  C   UNL     1       3.283   6.822  18.261  0.00  0.00    +0.000 C 
ATOM      2  C   UNL     1       4.388   7.115  17.543  0.00  0.00    +0.000 C 
ENDROOT
BRANCH   1   7
ATOM      3  C   UNL     1       0.546  11.105  20.628  0.00  0.00    +0.000 C 
ATOM      4  N   UNL     1       0.676   9.822  19.936  0.00  0.00    +0.000 NA
ATOM      5  C   UNL     1       1.438   8.863  20.769  0.00  0.00    +0.000 C 
ATOM      6  C   UNL     1       1.695   7.515  20.054  0.00  0.00    +0.000 C 
ATOM      7  N   UNL     1       2.379   7.750  18.767  0.00  0.00    +0.000 N 
ATOM      8  C   UNL     1       1.603   8.654  17.901  0.00  0.00    +0.000 C 
ATOM      9  C   UNL     1       1.370   9.995  18.636  0.00  0.00    +0.000 C 
ENDBRANCH   1   7
BRANCH   2  10
ATOM     10  C   UNL     1       5.298   6.124  16.939  0.00  0.00    +0.000 A 
ATOM     11  C   UNL     1       6.408   5.669  17.663  0.00  0.00    +0.000 A 
ATOM     12  C   UNL     1       7.292   4.743  17.103  0.00  0.00    +0.000 A 
ATOM     13  C   UNL     1       7.074   4.265  15.812  0.00  0.00    +0.000 A 
ATOM     14  C   UNL     1       5.976   4.716  15.081  0.00  0.00    +0.000 A 
ATOM     15  C   UNL     1       5.092   5.644  15.641  0.00  0.00    +0.000 A 
ENDBRANCH   2  10
BRANCH   1  16
ATOM     16  C   UNL     1       2.948   5.414  18.558  0.00  0.00    +0.000 A 
ATOM     17  C   UNL     1       3.605   4.743  19.599  0.00  0.00    +0.000 A 
ATOM     18  C   UNL     1       3.369   3.386  19.819  0.00  0.00    +0.000 A 
ATOM     19  C   UNL     1       2.468   2.695  19.009  0.00  0.00    +0.000 A 
ATOM     20  C   UNL     1       1.788   3.362  17.991  0.00  0.00    +0.000 A 
ATOM     21  C   UNL     1       2.025   4.719  17.768  0.00  0.00    +0.000 A 
ENDBRANCH   1  16
TORSDOF 3
ENDMDL
MODEL 3
REMARK VINA RESULT:      -7.4      0.040      1.054
REMARK  Name = 
REMARK  4 active torsions:
REMARK  status: ('A' for Active; 'I' for Inactive)
REMARK    1  A    between atoms: C_1  and  N_2
REMARK    2  A    between atoms: N_5  and  C_6
REMARK    3  A    between atoms: C_6  and  C_14
REMARK    4  A    between atoms: C_7  and  C_8
REMARK                            x       y       z     vdW  Elec       q    Type
REMARK                         _______ _______ _______ _____ _____    ______ ____
ROOT
ATOM      1  C   UNL     1       3.307   6.809  18.262  0.00  0.00    +0.000 C 
ATOM      2  C   UNL     1       4.418   7.114  17.558  0.00  0.00    +0.000 C 
ENDROOT
BRANCH   1   7
ATOM      3  C   UNL     1       0.527  11.063  20.632  0.00  0.00    +0.000 C 
ATOM      4  N   UNL     1       0.671   9.780  19.941  0.00  0.00    +0.000 NA
ATOM      5  C   UNL     1       1.446   8.831  20.773  0.00  0.00    +0.000 C 
ATOM      6  C   UNL     1       1.716   7.485  20.059  0.00  0.00    +0.000 C 
ATOM      7  N   UNL     1       2.394   7.727  18.770  0.00  0.00    +0.000 N 
ATOM      8  C   UNL     1       1.606   8.620  17.905  0.00  0.00    +0.000 C 
ATOM      9  C   UNL     1       1.359   9.960  18.640  0.00  0.00    +0.000 C 
ENDBRANCH   1   7
BRANCH   2  10
ATOM     10  C   UNL     1       5.338   6.135  16.952  0.00  0.00    +0.000 A 
ATOM     11  C   UNL     1       5.105   5.677  15.648  0.00  0.00    +0.000 A 
ATOM     12  C   UNL     1       5.956   4.737  15.062  0.00  0.00    +0.000 A 
ATOM     13  C   UNL     1       7.047   4.245  15.774  0.00  0.00    +0.000 A 
ATOM     14  C   UNL     1       7.285   4.689  17.074  0.00  0.00    +0.000 A 
ATOM     15  C   UNL     1       6.432   5.629  17.662  0.00  0.00    +0.000 A 
ENDBRANCH   2  10
BRANCH   1  16
ATOM     16  C   UNL     1       2.976   5.396  18.541  0.00  0.00    +0.000 A 
ATOM     17  C   UNL     1       1.992   4.746  17.784  0.00  0.00    +0.000 A 
ATOM     18  C   UNL     1       1.600   3.447  18.108  0.00  0.00    +0.000 A 
ATOM     19  C   UNL     1       2.197   2.786  19.182  0.00  0.00    +0.000 A 
ATOM     20  C   UNL     1       3.198   3.416  19.921  0.00  0.00    +0.000 A 
ATOM     21  C   UNL     1       3.589   4.716  19.600  0.00  0.00    +0.000 A 
ENDBRANCH   1  16
TORSDOF 3
ENDMDL
MODEL 4
REMARK VINA RESULT:      -7.4      0.162      1.499
REMARK  Name = 
REMARK  4 active torsions:
REMARK  status: ('A' for Active; 'I' for Inactive)
REMARK    1  A    between atoms: C_1  and  N_2
REMARK    2  A    between atoms: N_5  and  C_6
REMARK    3  A    between atoms: C_6  and  C_14
REMARK    4  A    between atoms: C_7  and  C_8
REMARK                            x       y       z     vdW  Elec       q    Type
REMARK                         _______ _______ _______ _____ _____    ______ ____
ROOT
ATOM      1  C   UNL     1       3.317   6.796  18.256  0.00  0.00    +0.000 C 
ATOM      2  C   UNL     1       4.419   7.106  17.540  0.00  0.00    +0.000 C 
ENDROOT
BRANCH   1   7
ATOM      3  C   UNL     1       0.532  11.028  20.658  0.00  0.00    +0.000 C 
ATOM      4  N   UNL     1       0.677   9.753  19.954  0.00  0.00    +0.000 NA
ATOM      5  C   UNL     1       1.448   8.795  20.779  0.00  0.00    +0.000 C 
ATOM      6  C   UNL     1       1.719   7.455  20.053  0.00  0.00    +0.000 C 
ATOM      7  N   UNL     1       2.403   7.710  18.769  0.00  0.00    +0.000 N 
ATOM      8  C   UNL     1       1.619   8.613  17.910  0.00  0.00    +0.000 C 
ATOM      9  C   UNL     1       1.371   9.946  18.658  0.00  0.00    +0.000 C 
ENDBRANCH   1   7
BRANCH   2  10
ATOM     10  C   UNL     1       5.340   6.131  16.928  0.00  0.00    +0.000 A 
ATOM     11  C   UNL     1       5.105   5.679  15.623  0.00  0.00    +0.000 A 
ATOM     12  C   UNL     1       5.957   4.742  15.031  0.00  0.00    +0.000 A 
ATOM     13  C   UNL     1       7.050   4.248  15.740  0.00  0.00    +0.000 A 
ATOM     14  C   UNL     1       7.289   4.687  17.042  0.00  0.00    +0.000 A 
ATOM     15  C   UNL     1       6.436   5.623  17.635  0.00  0.00    +0.000 A 
ENDBRANCH   2  10
BRANCH   1  16
ATOM     16  C   UNL     1       2.998   5.382  18.543  0.00  0.00    +0.000 A 
ATOM     17  C   UNL     1       3.661   4.712  19.580  0.00  0.00    +0.000 A 
ATOM     18  C   UNL     1       3.442   3.351  19.791  0.00  0.00    +0.000 A 
ATOM     19  C   UNL     1       2.550   2.654  18.975  0.00  0.00    +0.000 A 
ATOM     20  C   UNL     1       1.864   3.320  17.960  0.00  0.00    +0.000 A 
ATOM     21  C   UNL     1       2.085   4.682  17.746  0.00  0.00    +0.000 A 
ENDBRANCH   1  16
TORSDOF 3
ENDMDL
MODEL 5
REMARK VINA RESULT:      -7.2      0.715      1.275
REMARK  Name = 
REMARK  4 active torsions:
REMARK  status: ('A' for Active; 'I' for Inactive)
REMARK    1  A    between atoms: C_1  and  N_2
REMARK    2  A    between atoms: N_5  and  C_6
REMARK    3  A    between atoms: C_6  and  C_14
REMARK    4  A    between atoms: C_7  and  C_8
REMARK                            x       y       z     vdW  Elec       q    Type
REMARK                         _______ _______ _______ _____ _____    ______ ____
ROOT
ATOM      1  C   UNL     1       3.149   7.040  18.276  0.00  0.00    +0.000 C 
ATOM      2  C   UNL     1       4.283   7.240  17.571  0.00  0.00    +0.000 C 
ENDROOT
BRANCH   1   7
ATOM      3  C   UNL     1      -1.173  10.391  19.511  0.00  0.00    +0.000 C 
ATOM      4  N   UNL     1       0.235   9.997  19.442  0.00  0.00    +0.000 NA
ATOM      5  C   UNL     1       0.640   9.779  18.034  0.00  0.00    +0.000 C 
ATOM      6  C   UNL     1       2.094   9.267  17.897  0.00  0.00    +0.000 C 
ATOM      7  N   UNL     1       2.270   8.034  18.690  0.00  0.00    +0.000 N 
ATOM      8  C   UNL     1       1.930   8.251  20.107  0.00  0.00    +0.000 C 
ATOM      9  C   UNL     1       0.470   8.753  20.214  0.00  0.00    +0.000 C 
ENDBRANCH   1   7
BRANCH   2  10
ATOM     10  C   UNL     1       5.169   6.176  17.063  0.00  0.00    +0.000 A 
ATOM     11  C   UNL     1       6.216   5.704  17.865  0.00  0.00    +0.000 A 
ATOM     12  C   UNL     1       7.077   4.708  17.396  0.00  0.00    +0.000 A 
ATOM     13  C   UNL     1       6.899   4.177  16.120  0.00  0.00    +0.000 A 
ATOM     14  C   UNL     1       5.864   4.644  15.312  0.00  0.00    +0.000 A 
ATOM     15  C   UNL     1       5.003   5.642  15.780  0.00  0.00    +0.000 A 
ENDBRANCH   2  10
BRANCH   1  16
ATOM     16  C   UNL     1       2.751   5.670  18.660  0.00  0.00    +0.000 A 
ATOM     17  C   UNL     1       1.895   4.932  17.831  0.00  0.00    +0.000 A 
ATOM     18  C   UNL     1       1.432   3.679  18.236  0.00  0.00    +0.000 A 
ATOM     19  C   UNL     1       1.830   3.153  19.465  0.00  0.00    +0.000 A 
ATOM     20  C   UNL     1       2.705   3.869  20.282  0.00  0.00    +0.000 A 
ATOM     21  C   UNL     1       3.167   5.123  19.879  0.00  0.00    +0.000 A 
ENDBRANCH   1  16
TORSDOF 3
ENDMDL
MODEL 6
REMARK VINA RESULT:      -7.1      0.687      1.640
REMARK  Name = 
REMARK  4 active torsions:
REMARK  status: ('A' for Active; 'I' for Inactive)
REMARK    1  A    between atoms: C_1  and  N_2
REMARK    2  A    between atoms: N_5  and  C_6
REMARK    3  A    between atoms: C_6  and  C_14
REMARK    4  A    between atoms: C_7  and  C_8
REMARK                            x       y       z     vdW  Elec       q    Type
REMARK                         _______ _______ _______ _____ _____    ______ ____
ROOT
ATOM      1  C   UNL     1       3.145   7.034  18.281  0.00  0.00    +0.000 C 
ATOM      2  C   UNL     1       4.286   7.230  17.586  0.00  0.00    +0.000 C 
ENDROOT
BRANCH   1   7
ATOM      3  C   UNL     1      -1.164  10.405  19.509  0.00  0.00    +0.000 C 
ATOM      4  N   UNL     1       0.242  10.005  19.443  0.00  0.00    +0.000 NA
ATOM      5  C   UNL     1       0.649   9.786  18.035  0.00  0.00    +0.000 C 
ATOM      6  C   UNL     1       2.101   9.267  17.901  0.00  0.00    +0.000 C 
ATOM      7  N   UNL     1       2.269   8.033  18.694  0.00  0.00    +0.000 N 
ATOM      8  C   UNL     1       1.928   8.250  20.110  0.00  0.00    +0.000 C 
ATOM      9  C   UNL     1       0.469   8.759  20.214  0.00  0.00    +0.000 C 
ENDBRANCH   1   7
BRANCH   2  10
ATOM     10  C   UNL     1       5.168   6.163  17.079  0.00  0.00    +0.000 A 
ATOM     11  C   UNL     1       6.260   5.741  17.849  0.00  0.00    +0.000 A 
ATOM     12  C   UNL     1       7.118   4.743  17.380  0.00  0.00    +0.000 A 
ATOM     13  C   UNL     1       6.892   4.159  16.135  0.00  0.00    +0.000 A 
ATOM     14  C   UNL     1       5.811   4.575  15.359  0.00  0.00    +0.000 A 
ATOM     15  C   UNL     1       4.954   5.576  15.827  0.00  0.00    +0.000 A 
ENDBRANCH   2  10
BRANCH   1  16
ATOM     16  C   UNL     1       2.734   5.665  18.655  0.00  0.00    +0.000 A 
ATOM     17  C   UNL     1       3.269   5.063  19.802  0.00  0.00    +0.000 A 
ATOM     18  C   UNL     1       2.967   3.735  20.105  0.00  0.00    +0.000 A 
ATOM     19  C   UNL     1       2.120   3.006  19.270  0.00  0.00    +0.000 A 
ATOM     20  C   UNL     1       1.561   3.607  18.143  0.00  0.00    +0.000 A 
ATOM     21  C   UNL     1       1.864   4.934  17.838  0.00  0.00    +0.000 A 
ENDBRANCH   1  16
TORSDOF 3
ENDMDL
MODEL 7
REMARK VINA RESULT:      -7.1      0.672      1.945
REMARK  Name = 
REMARK  4 active torsions:
REMARK  status: ('A' for Active; 'I' for Inactive)
REMARK    1  A    between atoms: C_1  and  N_2
REMARK    2  A    between atoms: N_5  and  C_6
REMARK    3  A    between atoms: C_6  and  C_14
REMARK    4  A    between atoms: C_7  and  C_8
REMARK                            x       y       z     vdW  Elec       q    Type
REMARK                         _______ _______ _______ _____ _____    ______ ____
ROOT
ATOM      1  C   UNL     1       3.179   7.023  18.263  0.00  0.00    +0.000 C 
ATOM      2  C   UNL     1       4.317   7.233  17.568  0.00  0.00    +0.000 C 
ENDROOT
BRANCH   1   7
ATOM      3  C   UNL     1      -1.157  10.352  19.513  0.00  0.00    +0.000 C 
ATOM      4  N   UNL     1       0.253   9.962  19.446  0.00  0.00    +0.000 NA
ATOM      5  C   UNL     1       0.663   9.758  18.037  0.00  0.00    +0.000 C 
ATOM      6  C   UNL     1       2.119   9.251  17.901  0.00  0.00    +0.000 C 
ATOM      7  N   UNL     1       2.295   8.012  18.684  0.00  0.00    +0.000 N 
ATOM      8  C   UNL     1       1.950   8.215  20.101  0.00  0.00    +0.000 C 
ATOM      9  C   UNL     1       0.488   8.712  20.207  0.00  0.00    +0.000 C 
ENDBRANCH   1   7
BRANCH   2  10
ATOM     10  C   UNL     1       5.208   6.177  17.054  0.00  0.00    +0.000 A 
ATOM     11  C   UNL     1       4.961   5.612  15.796  0.00  0.00    +0.000 A 
ATOM     12  C   UNL     1       5.783   4.599  15.297  0.00  0.00    +0.000 A 
ATOM     13  C   UNL     1       6.860   4.139  16.054  0.00  0.00    +0.000 A 
ATOM     14  C   UNL     1       7.111   4.690  17.309  0.00  0.00    +0.000 A 
ATOM     15  C   UNL     1       6.287   5.704  17.810  0.00  0.00    +0.000 A 
ENDBRANCH   2  10
BRANCH   1  16
ATOM     16  C   UNL     1       2.781   5.648  18.630  0.00  0.00    +0.000 A 
ATOM     17  C   UNL     1       3.346   5.033  19.754  0.00  0.00    +0.000 A 
ATOM     18  C   UNL     1       3.054   3.700  20.047  0.00  0.00    +0.000 A 
ATOM     19  C   UNL     1       2.188   2.980  19.226  0.00  0.00    +0.000 A 
ATOM     20  C   UNL     1       1.598   3.594  18.121  0.00  0.00    +0.000 A 
ATOM     21  C   UNL     1       1.892   4.926  17.825  0.00  0.00    +0.000 A 
ENDBRANCH   1  16
TORSDOF 3
ENDMDL
MODEL 8
REMARK VINA RESULT:      -7.1      0.722      1.656
REMARK  Name = 
REMARK  4 active torsions:
REMARK  status: ('A' for Active; 'I' for Inactive)
REMARK    1  A    between atoms: C_1  and  N_2
REMARK    2  A    between atoms: N_5  and  C_6
REMARK    3  A    between atoms: C_6  and  C_14
REMARK    4  A    between atoms: C_7  and  C_8
REMARK                            x       y       z     vdW  Elec       q    Type
REMARK                         _______ _______ _______ _____ _____    ______ ____
ROOT
ATOM      1  C   UNL     1       3.157   7.054  18.284  0.00  0.00    +0.000 C 
ATOM      2  C   UNL     1       4.298   7.262  17.595  0.00  0.00    +0.000 C 
ENDROOT
BRANCH   1   7
ATOM      3  C   UNL     1      -1.195  10.374  19.500  0.00  0.00    +0.000 C 
ATOM      4  N   UNL     1       0.216   9.992  19.434  0.00  0.00    +0.000 NA
ATOM      5  C   UNL     1       0.624   9.771  18.027  0.00  0.00    +0.000 C 
ATOM      6  C   UNL     1       2.083   9.271  17.894  0.00  0.00    +0.000 C 
ATOM      7  N   UNL     1       2.269   8.043  18.693  0.00  0.00    +0.000 N 
ATOM      8  C   UNL     1       1.926   8.264  20.108  0.00  0.00    +0.000 C 
ATOM      9  C   UNL     1       0.461   8.754  20.212  0.00  0.00    +0.000 C 
ENDBRANCH   1   7
BRANCH   2  10
ATOM     10  C   UNL     1       5.195   6.205  17.092  0.00  0.00    +0.000 A 
ATOM     11  C   UNL     1       4.987   5.668  15.815  0.00  0.00    +0.000 A 
ATOM     12  C   UNL     1       5.815   4.654  15.327  0.00  0.00    +0.000 A 
ATOM     13  C   UNL     1       6.857   4.166  16.112  0.00  0.00    +0.000 A 
ATOM     14  C   UNL     1       7.069   4.690  17.387  0.00  0.00    +0.000 A 
ATOM     15  C   UNL     1       6.239   5.704  17.877  0.00  0.00    +0.000 A 
ENDBRANCH   2  10
BRANCH   1  16
ATOM     16  C   UNL     1       2.760   5.681  18.657  0.00  0.00    +0.000 A 
ATOM     17  C   UNL     1       1.884   4.959  17.836  0.00  0.00    +0.000 A 
ATOM     18  C   UNL     1       1.423   3.703  18.232  0.00  0.00    +0.000 A 
ATOM     19  C   UNL     1       1.843   3.157  19.445  0.00  0.00    +0.000 A 
ATOM     20  C   UNL     1       2.738   3.857  20.254  0.00  0.00    +0.000 A 
ATOM     21  C   UNL     1       3.198   5.114  19.860  0.00  0.00    +0.000 A 
ENDBRANCH   1  16
TORSDOF 3
ENDMDL
MODEL 9
REMARK VINA RESULT:      -6.7      1.912      6.030
REMARK  Name = 
REMARK  4 active torsions:
REMARK  status: ('A' for Active; 'I' for Inactive)
REMARK    1  A    between atoms: C_1  and  N_2
REMARK    2  A    between atoms: N_5  and  C_6
REMARK    3  A    between atoms: C_6  and  C_14
REMARK    4  A    between atoms: C_7  and  C_8
REMARK                            x       y       z     vdW  Elec       q    Type
REMARK                         _______ _______ _______ _____ _____    ______ ____
ROOT
ATOM      1  C   UNL     1       3.210   6.372  18.058  0.00  0.00    +0.000 C 
ATOM      2  C   UNL     1       2.886   7.682  18.105  0.00  0.00    +0.000 C 
ENDROOT
BRANCH   1   7
ATOM      3  C   UNL     1       6.374   3.826  14.192  0.00  0.00    +0.000 C 
ATOM      4  N   UNL     1       6.108   4.541  15.441  0.00  0.00    +0.000 NA
ATOM      5  C   UNL     1       5.189   3.756  16.298  0.00  0.00    +0.000 C 
ATOM      6  C   UNL     1       4.792   4.500  17.595  0.00  0.00    +0.000 C 
ATOM      7  N   UNL     1       4.204   5.813  17.261  0.00  0.00    +0.000 N 
ATOM      8  C   UNL     1       5.130   6.631  16.461  0.00  0.00    +0.000 C 
ATOM      9  C   UNL     1       5.503   5.868  15.167  0.00  0.00    +0.000 C 
ENDBRANCH   1   7
BRANCH   2  10
ATOM     10  C   UNL     1       1.888   8.280  19.011  0.00  0.00    +0.000 A 
ATOM     11  C   UNL     1       1.009   9.257  18.526  0.00  0.00    +0.000 A 
ATOM     12  C   UNL     1       0.067   9.849  19.372  0.00  0.00    +0.000 A 
ATOM     13  C   UNL     1      -0.002   9.470  20.711  0.00  0.00    +0.000 A 
ATOM     14  C   UNL     1       0.872   8.503  21.205  0.00  0.00    +0.000 A 
ATOM     15  C   UNL     1       1.816   7.912  20.359  0.00  0.00    +0.000 A 
ENDBRANCH   2  10
BRANCH   1  16
ATOM     16  C   UNL     1       2.490   5.403  18.910  0.00  0.00    +0.000 A 
ATOM     17  C   UNL     1       2.869   5.231  20.248  0.00  0.00    +0.000 A 
ATOM     18  C   UNL     1       2.264   4.246  21.029  0.00  0.00    +0.000 A 
ATOM     19  C   UNL     1       1.270   3.435  20.481  0.00  0.00    +0.000 A 
ATOM     20  C   UNL     1       0.867   3.619  19.159  0.00  0.00    +0.000 A 
ATOM     21  C   UNL     1       1.473   4.603  18.376  0.00  0.00    +0.000 A 
ENDBRANCH   1  16
TORSDOF 3
ENDMDL
