MODEL 1
REMARK VINA RESULT:      -9.3      0.000      0.000
REMARK  Name = 
REMARK  6 active torsions:
REMARK  status: ('A' for Active; 'I' for Inactive)
REMARK    1  A    between atoms: C_2  and  O_3
REMARK    2  A    between atoms: C_2  and  C_4
REMARK    3  A    between atoms: C_6  and  N_7
REMARK    4  A    between atoms: C_8  and  C_10
REMARK    5  A    between atoms: C_17  and  C_18
REMARK    6  A    between atoms: C_21  and  C_22
REMARK                            x       y       z     vdW  Elec       q    Type
REMARK                         _______ _______ _______ _____ _____    ______ ____
ROOT
ATOM      1  C   UNL     1       2.471   4.143  20.339  0.00  0.00    +0.000 A 
ATOM      2  C   UNL     1       3.182   3.884  19.165  0.00  0.00    +0.000 A 
ATOM      3  C   UNL     1       3.375   4.892  18.220  0.00  0.00    +0.000 A 
ATOM      4  C   UNL     1       2.845   6.165  18.469  0.00  0.00    +0.000 A 
ATOM      5  C   UNL     1       2.105   6.449  19.638  0.00  0.00    +0.000 A 
ATOM      6  C   UNL     1       1.907   5.402  20.552  0.00  0.00    +0.000 A 
ENDROOT
BRANCH   5   7
ATOM      7  C   UNL     1       1.662   7.825  19.943  0.00  0.00    +0.000 A 
ATOM      8  C   UNL     1       1.102   8.178  21.179  0.00  0.00    +0.000 A 
ATOM      9  C   UNL     1       0.504   9.431  21.377  0.00  0.00    +0.000 A 
ATOM     10  C   UNL     1       0.466  10.393  20.358  0.00  0.00    +0.000 A 
ATOM     11  C   UNL     1       1.101  10.066  19.152  0.00  0.00    +0.000 A 
ATOM     12  C   UNL     1       1.689   8.815  18.954  0.00  0.00    +0.000 A 
BRANCH  10  13
ATOM     13  C   UNL     1      -0.350  11.682  20.466  0.00  0.00    +0.000 C 
ATOM     14  C   UNL     1      -1.730  11.633  19.775  0.00  0.00    +0.000 C 
ATOM     15  C   UNL     1      -1.602  11.730  18.256  0.00  0.00    +0.000 C 
ATOM     16  N   UNL     1      -0.913  12.956  17.850  0.00  0.00    +0.000 NA
ATOM     17  C   UNL     1       0.410  13.061  18.467  0.00  0.00    +0.000 C 
ATOM     18  C   UNL     1       0.346  12.973  19.993  0.00  0.00    +0.000 C 
ATOM     19  H   UNL     1      -1.476  13.760  18.128  0.00  0.00    +0.000 HD
ENDBRANCH  10  13
ENDBRANCH   5   7
BRANCH   3  20
ATOM     20  N   UNL     1       4.113   4.710  17.024  0.00  0.00    +0.000 N 
ATOM     21  C   UNL     1       5.495   4.757  16.919  0.00  0.00    +0.000 C 
ATOM     22  O   UNL     1       6.280   4.916  17.846  0.00  0.00    +0.000 OA
ATOM     23  H   UNL     1       3.586   4.436  16.205  0.00  0.00    +0.000 HD
BRANCH  21  24
ATOM     24  C   UNL     1       6.072   4.571  15.573  0.00  0.00    +0.000 A 
ATOM     25  C   UNL     1       5.502   3.772  14.579  0.00  0.00    +0.000 A 
ATOM     26  C   UNL     1       6.089   3.749  13.313  0.00  0.00    +0.000 A 
ATOM     27  C   UNL     1       7.223   4.517  13.091  0.00  0.00    +0.000 A 
ATOM     28  N   UNL     1       7.800   5.289  14.034  0.00  0.00    +0.000 NA
ATOM     29  C   UNL     1       7.206   5.308  15.250  0.00  0.00    +0.000 A 
ENDBRANCH  21  24
ENDBRANCH   3  20
BRANCH   1  31
ATOM     30  O   UNL     1       1.271   2.998  22.037  0.00  0.00    +0.000 OA
ATOM     31  C   UNL     1       2.303   3.115  21.393  0.00  0.00    +0.000 C 
BRANCH  31  32
ATOM     32  O   UNL     1       3.409   2.386  21.638  0.00  0.00    +0.000 OA
ATOM     33  H   UNL     1       4.209   2.655  21.150  0.00  0.00    +0.000 HD
ENDBRANCH  31  32
ENDBRANCH   1  31
TORSDOF 6
ENDMDL
MODEL 2
REMARK VINA RESULT:      -9.2      1.305      1.747
REMARK  Name = 
REMARK  6 active torsions:
REMARK  status: ('A' for Active; 'I' for Inactive)
REMARK    1  A    between atoms: C_2  and  O_3
REMARK    2  A    between atoms: C_2  and  C_4
REMARK    3  A    between atoms: C_6  and  N_7
REMARK    4  A    between atoms: C_8  and  C_10
REMARK    5  A    between atoms: C_17  and  C_18
REMARK    6  A    between atoms: C_21  and  C_22
REMARK                            x       y       z     vdW  Elec       q    Type
REMARK                         _______ _______ _______ _____ _____    ______ ____
ROOT
ATOM      1  C   UNL     1       3.254   3.859  19.845  0.00  0.00    +0.000 A 
ATOM      2  C   UNL     1       3.888   3.520  18.648  0.00  0.00    +0.000 A 
ATOM      3  C   UNL     1       3.945   4.434  17.596  0.00  0.00    +0.000 A 
ATOM      4  C   UNL     1       3.358   5.695  17.761  0.00  0.00    +0.000 A 
ATOM      5  C   UNL     1       2.694   6.057  18.953  0.00  0.00    +0.000 A 
ATOM      6  C   UNL     1       2.631   5.101  19.979  0.00  0.00    +0.000 A 
ENDROOT
BRANCH   5   7
ATOM      7  C   UNL     1       2.192   7.432  19.158  0.00  0.00    +0.000 A 
ATOM      8  C   UNL     1       1.605   7.848  20.361  0.00  0.00    +0.000 A 
ATOM      9  C   UNL     1       0.954   9.086  20.466  0.00  0.00    +0.000 A 
ATOM     10  C   UNL     1       0.886   9.971  19.381  0.00  0.00    +0.000 A 
ATOM     11  C   UNL     1       1.546   9.586  18.206  0.00  0.00    +0.000 A 
ATOM     12  C   UNL     1       2.187   8.350  18.100  0.00  0.00    +0.000 A 
BRANCH  10  13
ATOM     13  C   UNL     1       0.016  11.229  19.391  0.00  0.00    +0.000 C 
ATOM     14  C   UNL     1       0.797  12.555  19.282  0.00  0.00    +0.000 C 
ATOM     15  C   UNL     1       1.491  12.910  20.596  0.00  0.00    +0.000 C 
ATOM     16  N   UNL     1       0.534  13.014  21.699  0.00  0.00    +0.000 NA
ATOM     17  C   UNL     1      -0.238  11.781  21.862  0.00  0.00    +0.000 C 
ATOM     18  C   UNL     1      -0.959  11.375  20.575  0.00  0.00    +0.000 C 
ATOM     19  H   UNL     1      -0.106  13.786  21.511  0.00  0.00    +0.000 HD
ENDBRANCH  10  13
ENDBRANCH   5   7
BRANCH   3  20
ATOM     20  N   UNL     1       4.600   4.169  16.367  0.00  0.00    +0.000 N 
ATOM     21  C   UNL     1       5.486   5.025  15.729  0.00  0.00    +0.000 C 
ATOM     22  O   UNL     1       5.868   6.109  16.153  0.00  0.00    +0.000 OA
ATOM     23  H   UNL     1       4.473   3.244  15.977  0.00  0.00    +0.000 HD
BRANCH  21  24
ATOM     24  C   UNL     1       6.040   4.575  14.436  0.00  0.00    +0.000 A 
ATOM     25  C   UNL     1       5.407   3.663  13.588  0.00  0.00    +0.000 A 
ATOM     26  C   UNL     1       5.983   3.386  12.347  0.00  0.00    +0.000 A 
ATOM     27  C   UNL     1       7.168   4.023  12.005  0.00  0.00    +0.000 A 
ATOM     28  N   UNL     1       7.804   4.900  12.808  0.00  0.00    +0.000 NA
ATOM     29  C   UNL     1       7.221   5.165  14.001  0.00  0.00    +0.000 A 
ENDBRANCH  21  24
ENDBRANCH   3  20
BRANCH   1  31
ATOM     30  O   UNL     1       2.361   2.985  21.863  0.00  0.00    +0.000 OA
ATOM     31  C   UNL     1       3.231   2.937  21.005  0.00  0.00    +0.000 C 
BRANCH  31  32
ATOM     32  O   UNL     1       4.292   2.110  21.078  0.00  0.00    +0.000 OA
ATOM     33  H   UNL     1       4.092   1.187  21.321  0.00  0.00    +0.000 HD
ENDBRANCH  31  32
ENDBRANCH   1  31
TORSDOF 6
ENDMDL
MODEL 3
REMARK VINA RESULT:      -9.1      0.952      1.264
REMARK  Name = 
REMARK  6 active torsions:
REMARK  status: ('A' for Active; 'I' for Inactive)
REMARK    1  A    between atoms: C_2  and  O_3
REMARK    2  A    between atoms: C_2  and  C_4
REMARK    3  A    between atoms: C_6  and  N_7
REMARK    4  A    between atoms: C_8  and  C_10
REMARK    5  A    between atoms: C_17  and  C_18
REMARK    6  A    between atoms: C_21  and  C_22
REMARK                            x       y       z     vdW  Elec       q    Type
REMARK                         _______ _______ _______ _____ _____    ______ ____
ROOT
ATOM      1  C   UNL     1       2.103   4.489  20.409  0.00  0.00    +0.000 A 
ATOM      2  C   UNL     1       2.884   4.245  19.278  0.00  0.00    +0.000 A 
ATOM      3  C   UNL     1       3.184   5.279  18.390  0.00  0.00    +0.000 A 
ATOM      4  C   UNL     1       2.690   6.563  18.655  0.00  0.00    +0.000 A 
ATOM      5  C   UNL     1       1.882   6.833  19.781  0.00  0.00    +0.000 A 
ATOM      6  C   UNL     1       1.577   5.762  20.635  0.00  0.00    +0.000 A 
ENDROOT
BRANCH   5   7
ATOM      7  C   UNL     1       1.475   8.214  20.113  0.00  0.00    +0.000 A 
ATOM      8  C   UNL     1       1.058   8.588  21.398  0.00  0.00    +0.000 A 
ATOM      9  C   UNL     1       0.484   9.845  21.642  0.00  0.00    +0.000 A 
ATOM     10  C   UNL     1       0.330  10.790  20.618  0.00  0.00    +0.000 A 
ATOM     11  C   UNL     1       0.824  10.442  19.354  0.00  0.00    +0.000 A 
ATOM     12  C   UNL     1       1.387   9.189  19.110  0.00  0.00    +0.000 A 
BRANCH  10  13
ATOM     13  C   UNL     1      -0.470  12.081  20.797  0.00  0.00    +0.000 C 
ATOM     14  C   UNL     1      -0.787  12.832  19.486  0.00  0.00    +0.000 C 
ATOM     15  C   UNL     1       0.442  13.557  18.942  0.00  0.00    +0.000 C 
ATOM     16  N   UNL     1       0.978  14.511  19.914  0.00  0.00    +0.000 NA
ATOM     17  C   UNL     1       1.308  13.860  21.183  0.00  0.00    +0.000 C 
ATOM     18  C   UNL     1       0.112  13.116  21.779  0.00  0.00    +0.000 C 
ATOM     19  H   UNL     1       0.284  15.239  20.083  0.00  0.00    +0.000 HD
ENDBRANCH  10  13
ENDBRANCH   5   7
BRANCH   3  20
ATOM     20  N   UNL     1       3.997   5.111  17.242  0.00  0.00    +0.000 N 
ATOM     21  C   UNL     1       5.325   4.711  17.250  0.00  0.00    +0.000 C 
ATOM     22  O   UNL     1       5.975   4.399  18.241  0.00  0.00    +0.000 OA
ATOM     23  H   UNL     1       3.538   5.207  16.345  0.00  0.00    +0.000 HD
BRANCH  21  24
ATOM     24  C   UNL     1       6.007   4.625  15.943  0.00  0.00    +0.000 A 
ATOM     25  C   UNL     1       5.546   3.864  14.867  0.00  0.00    +0.000 A 
ATOM     26  C   UNL     1       6.226   3.936  13.650  0.00  0.00    +0.000 A 
ATOM     27  C   UNL     1       7.340   4.757  13.558  0.00  0.00    +0.000 A 
ATOM     28  N   UNL     1       7.813   5.495  14.583  0.00  0.00    +0.000 NA
ATOM     29  C   UNL     1       7.130   5.421  15.750  0.00  0.00    +0.000 A 
ENDBRANCH  21  24
ENDBRANCH   3  20
BRANCH   1  31
ATOM     30  O   UNL     1       2.592   3.159  22.313  0.00  0.00    +0.000 OA
ATOM     31  C   UNL     1       1.819   3.429  21.405  0.00  0.00    +0.000 C 
BRANCH  31  32
ATOM     32  O   UNL     1       0.689   2.734  21.171  0.00  0.00    +0.000 OA
ATOM     33  H   UNL     1      -0.140   3.245  21.225  0.00  0.00    +0.000 HD
ENDBRANCH  31  32
ENDBRANCH   1  31
TORSDOF 6
ENDMDL
MODEL 4
REMARK VINA RESULT:      -9.0      1.106      1.440
REMARK  Name = 
REMARK  6 active torsions:
REMARK  status: ('A' for Active; 'I' for Inactive)
REMARK    1  A    between atoms: C_2  and  O_3
REMARK    2  A    between atoms: C_2  and  C_4
REMARK    3  A    between atoms: C_6  and  N_7
REMARK    4  A    between atoms: C_8  and  C_10
REMARK    5  A    between atoms: C_17  and  C_18
REMARK    6  A    between atoms: C_21  and  C_22
REMARK                            x       y       z     vdW  Elec       q    Type
REMARK                         _______ _______ _______ _____ _____    ______ ____
ROOT
ATOM      1  C   UNL     1       3.627   3.644  19.753  0.00  0.00    +0.000 A 
ATOM      2  C   UNL     1       4.196   3.480  18.488  0.00  0.00    +0.000 A 
ATOM      3  C   UNL     1       4.108   4.496  17.536  0.00  0.00    +0.000 A 
ATOM      4  C   UNL     1       3.442   5.682  17.872  0.00  0.00    +0.000 A 
ATOM      5  C   UNL     1       2.841   5.868  19.136  0.00  0.00    +0.000 A 
ATOM      6  C   UNL     1       2.924   4.812  20.057  0.00  0.00    +0.000 A 
ENDROOT
BRANCH   5   7
ATOM      7  C   UNL     1       2.253   7.169  19.517  0.00  0.00    +0.000 A 
ATOM      8  C   UNL     1       1.718   7.410  20.790  0.00  0.00    +0.000 A 
ATOM      9  C   UNL     1       0.985   8.573  21.065  0.00  0.00    +0.000 A 
ATOM     10  C   UNL     1       0.782   9.558  20.088  0.00  0.00    +0.000 A 
ATOM     11  C   UNL     1       1.389   9.351  18.842  0.00  0.00    +0.000 A 
ATOM     12  C   UNL     1       2.111   8.188  18.567  0.00  0.00    +0.000 A 
BRANCH  10  13
ATOM     13  C   UNL     1      -0.176  10.735  20.285  0.00  0.00    +0.000 C 
ATOM     14  C   UNL     1      -1.430  10.704  19.386  0.00  0.00    +0.000 C 
ATOM     15  C   UNL     1      -1.100  11.091  17.946  0.00  0.00    +0.000 C 
ATOM     16  N   UNL     1      -0.497  12.423  17.871  0.00  0.00    +0.000 NA
ATOM     17  C   UNL     1       0.706  12.518  18.698  0.00  0.00    +0.000 C 
ATOM     18  C   UNL     1       0.437  12.143  20.156  0.00  0.00    +0.000 C 
ATOM     19  H   UNL     1      -1.178  13.113  18.190  0.00  0.00    +0.000 HD
ENDBRANCH  10  13
ENDBRANCH   5   7
BRANCH   3  20
ATOM     20  N   UNL     1       4.689   4.410  16.247  0.00  0.00    +0.000 N 
ATOM     21  C   UNL     1       5.983   4.791  15.923  0.00  0.00    +0.000 C 
ATOM     22  O   UNL     1       6.826   5.211  16.708  0.00  0.00    +0.000 OA
ATOM     23  H   UNL     1       4.139   3.952  15.532  0.00  0.00    +0.000 HD
BRANCH  21  24
ATOM     24  C   UNL     1       6.390   4.650  14.511  0.00  0.00    +0.000 A 
ATOM     25  C   UNL     1       7.462   5.333  13.932  0.00  0.00    +0.000 A 
ATOM     26  C   UNL     1       7.810   5.047  12.611  0.00  0.00    +0.000 A 
ATOM     27  C   UNL     1       7.072   4.097  11.920  0.00  0.00    +0.000 A 
ATOM     28  N   UNL     1       6.028   3.429  12.450  0.00  0.00    +0.000 NA
ATOM     29  C   UNL     1       5.716   3.712  13.737  0.00  0.00    +0.000 A 
ENDBRANCH  21  24
ENDBRANCH   3  20
BRANCH   1  31
ATOM     30  O   UNL     1       2.963   2.515  21.732  0.00  0.00    +0.000 OA
ATOM     31  C   UNL     1       3.758   2.612  20.808  0.00  0.00    +0.000 C 
BRANCH  31  32
ATOM     32  O   UNL     1       4.868   1.856  20.710  0.00  0.00    +0.000 OA
ATOM     33  H   UNL     1       5.433   2.032  19.935  0.00  0.00    +0.000 HD
ENDBRANCH  31  32
ENDBRANCH   1  31
TORSDOF 6
ENDMDL
MODEL 5
REMARK VINA RESULT:      -9.0      1.516      1.980
REMARK  Name = 
REMARK  6 active torsions:
REMARK  status: ('A' for Active; 'I' for Inactive)
REMARK    1  A    between atoms: C_2  and  O_3
REMARK    2  A    between atoms: C_2  and  C_4
REMARK    3  A    between atoms: C_6  and  N_7
REMARK    4  A    between atoms: C_8  and  C_10
REMARK    5  A    between atoms: C_17  and  C_18
REMARK    6  A    between atoms: C_21  and  C_22
REMARK                            x       y       z     vdW  Elec       q    Type
REMARK                         _______ _______ _______ _____ _____    ______ ____
ROOT
ATOM      1  C   UNL     1       2.154   4.731  20.435  0.00  0.00    +0.000 A 
ATOM      2  C   UNL     1       3.068   4.560  19.393  0.00  0.00    +0.000 A 
ATOM      3  C   UNL     1       3.381   5.623  18.546  0.00  0.00    +0.000 A 
ATOM      4  C   UNL     1       2.766   6.864  18.760  0.00  0.00    +0.000 A 
ATOM      5  C   UNL     1       1.824   7.059  19.794  0.00  0.00    +0.000 A 
ATOM      6  C   UNL     1       1.512   5.958  20.607  0.00  0.00    +0.000 A 
ENDROOT
BRANCH   5   7
ATOM      7  C   UNL     1       1.280   8.402  20.085  0.00  0.00    +0.000 A 
ATOM      8  C   UNL     1       0.677   8.721  21.310  0.00  0.00    +0.000 A 
ATOM      9  C   UNL     1      -0.011   9.930  21.491  0.00  0.00    +0.000 A 
ATOM     10  C   UNL     1      -0.101  10.882  20.465  0.00  0.00    +0.000 A 
ATOM     11  C   UNL     1       0.574  10.594  19.271  0.00  0.00    +0.000 A 
ATOM     12  C   UNL     1       1.252   9.387  19.089  0.00  0.00    +0.000 A 
BRANCH  10  13
ATOM     13  C   UNL     1      -1.008  12.110  20.553  0.00  0.00    +0.000 C 
ATOM     14  C   UNL     1      -0.277  13.463  20.425  0.00  0.00    +0.000 C 
ATOM     15  C   UNL     1       0.481  13.816  21.704  0.00  0.00    +0.000 C 
ATOM     16  N   UNL     1      -0.411  13.868  22.862  0.00  0.00    +0.000 NA
ATOM     17  C   UNL     1      -1.133  12.608  23.045  0.00  0.00    +0.000 C 
ATOM     18  C   UNL     1      -1.915  12.202  21.795  0.00  0.00    +0.000 C 
ATOM     19  H   UNL     1      -1.085  14.622  22.728  0.00  0.00    +0.000 HD
ENDBRANCH  10  13
ENDBRANCH   5   7
BRANCH   3  20
ATOM     20  N   UNL     1       4.322   5.530  17.490  0.00  0.00    +0.000 N 
ATOM     21  C   UNL     1       4.482   4.435  16.653  0.00  0.00    +0.000 C 
ATOM     22  O   UNL     1       3.808   3.412  16.672  0.00  0.00    +0.000 OA
ATOM     23  H   UNL     1       4.852   6.366  17.282  0.00  0.00    +0.000 HD
BRANCH  21  24
ATOM     24  C   UNL     1       5.543   4.524  15.630  0.00  0.00    +0.000 A 
ATOM     25  C   UNL     1       5.470   3.922  14.371  0.00  0.00    +0.000 A 
ATOM     26  C   UNL     1       6.494   4.155  13.452  0.00  0.00    +0.000 A 
ATOM     27  C   UNL     1       7.551   4.972  13.826  0.00  0.00    +0.000 A 
ATOM     28  N   UNL     1       7.652   5.558  15.036  0.00  0.00    +0.000 NA
ATOM     29  C   UNL     1       6.641   5.331  15.908  0.00  0.00    +0.000 A 
ENDBRANCH  21  24
ENDBRANCH   3  20
BRANCH   1  31
ATOM     30  O   UNL     1       2.587   3.360  22.323  0.00  0.00    +0.000 OA
ATOM     31  C   UNL     1       1.848   3.642  21.391  0.00  0.00    +0.000 C 
BRANCH  31  32
ATOM     32  O   UNL     1       0.740   2.937  21.093  0.00  0.00    +0.000 OA
ATOM     33  H   UNL     1       0.802   2.362  20.308  0.00  0.00    +0.000 HD
ENDBRANCH  31  32
ENDBRANCH   1  31
TORSDOF 6
ENDMDL
MODEL 6
REMARK VINA RESULT:      -9.0      1.252      1.690
REMARK  Name = 
REMARK  6 active torsions:
REMARK  status: ('A' for Active; 'I' for Inactive)
REMARK    1  A    between atoms: C_2  and  O_3
REMARK    2  A    between atoms: C_2  and  C_4
REMARK    3  A    between atoms: C_6  and  N_7
REMARK    4  A    between atoms: C_8  and  C_10
REMARK    5  A    between atoms: C_17  and  C_18
REMARK    6  A    between atoms: C_21  and  C_22
REMARK                            x       y       z     vdW  Elec       q    Type
REMARK                         _______ _______ _______ _____ _____    ______ ____
ROOT
ATOM      1  C   UNL     1       2.172   4.662  20.493  0.00  0.00    +0.000 A 
ATOM      2  C   UNL     1       3.092   4.494  19.457  0.00  0.00    +0.000 A 
ATOM      3  C   UNL     1       3.411   5.560  18.616  0.00  0.00    +0.000 A 
ATOM      4  C   UNL     1       2.795   6.800  18.831  0.00  0.00    +0.000 A 
ATOM      5  C   UNL     1       1.847   6.993  19.859  0.00  0.00    +0.000 A 
ATOM      6  C   UNL     1       1.529   5.889  20.666  0.00  0.00    +0.000 A 
ENDROOT
BRANCH   5   7
ATOM      7  C   UNL     1       1.302   8.335  20.151  0.00  0.00    +0.000 A 
ATOM      8  C   UNL     1       1.250   9.352  19.187  0.00  0.00    +0.000 A 
ATOM      9  C   UNL     1       0.923  10.671  19.536  0.00  0.00    +0.000 A 
ATOM     10  C   UNL     1       0.604  11.021  20.855  0.00  0.00    +0.000 A 
ATOM     11  C   UNL     1       0.575   9.985  21.798  0.00  0.00    +0.000 A 
ATOM     12  C   UNL     1       0.910   8.674  21.452  0.00  0.00    +0.000 A 
BRANCH  10  13
ATOM     13  C   UNL     1       0.442  12.472  21.311  0.00  0.00    +0.000 C 
ATOM     14  C   UNL     1      -0.825  12.750  22.146  0.00  0.00    +0.000 C 
ATOM     15  C   UNL     1      -2.078  12.786  21.273  0.00  0.00    +0.000 C 
ATOM     16  N   UNL     1      -1.973  13.799  20.222  0.00  0.00    +0.000 NA
ATOM     17  C   UNL     1      -0.791  13.588  19.385  0.00  0.00    +0.000 C 
ATOM     18  C   UNL     1       0.499  13.545  20.206  0.00  0.00    +0.000 C 
ATOM     19  H   UNL     1      -1.916  14.721  20.655  0.00  0.00    +0.000 HD
ENDBRANCH  10  13
ENDBRANCH   5   7
BRANCH   3  20
ATOM     20  N   UNL     1       4.359   5.470  17.566  0.00  0.00    +0.000 N 
ATOM     21  C   UNL     1       4.405   4.465  16.612  0.00  0.00    +0.000 C 
ATOM     22  O   UNL     1       3.611   3.538  16.506  0.00  0.00    +0.000 OA
ATOM     23  H   UNL     1       4.992   6.252  17.460  0.00  0.00    +0.000 HD
BRANCH  21  24
ATOM     24  C   UNL     1       5.494   4.535  15.616  0.00  0.00    +0.000 A 
ATOM     25  C   UNL     1       5.454   3.912  14.366  0.00  0.00    +0.000 A 
ATOM     26  C   UNL     1       6.503   4.129  13.472  0.00  0.00    +0.000 A 
ATOM     27  C   UNL     1       7.550   4.952  13.860  0.00  0.00    +0.000 A 
ATOM     28  N   UNL     1       7.619   5.559  15.062  0.00  0.00    +0.000 NA
ATOM     29  C   UNL     1       6.584   5.346  15.910  0.00  0.00    +0.000 A 
ENDBRANCH  21  24
ENDBRANCH   3  20
BRANCH   1  31
ATOM     30  O   UNL     1       2.593   3.282  22.378  0.00  0.00    +0.000 OA
ATOM     31  C   UNL     1       1.858   3.569  21.444  0.00  0.00    +0.000 C 
BRANCH  31  32
ATOM     32  O   UNL     1       0.749   2.868  21.139  0.00  0.00    +0.000 OA
ATOM     33  H   UNL     1       0.524   2.824  20.191  0.00  0.00    +0.000 HD
ENDBRANCH  31  32
ENDBRANCH   1  31
TORSDOF 6
ENDMDL
MODEL 7
REMARK VINA RESULT:      -9.0      0.795      1.260
REMARK  Name = 
REMARK  6 active torsions:
REMARK  status: ('A' for Active; 'I' for Inactive)
REMARK    1  A    between atoms: C_2  and  O_3
REMARK    2  A    between atoms: C_2  and  C_4
REMARK    3  A    between atoms: C_6  and  N_7
REMARK    4  A    between atoms: C_8  and  C_10
REMARK    5  A    between atoms: C_17  and  C_18
REMARK    6  A    between atoms: C_21  and  C_22
REMARK                            x       y       z     vdW  Elec       q    Type
REMARK                         _______ _______ _______ _____ _____    ______ ____
ROOT
ATOM      1  C   UNL     1       3.043   4.032  19.949  0.00  0.00    +0.000 A 
ATOM      2  C   UNL     1       3.720   3.785  18.753  0.00  0.00    +0.000 A 
ATOM      3  C   UNL     1       3.754   4.753  17.748  0.00  0.00    +0.000 A 
ATOM      4  C   UNL     1       3.100   5.973  17.961  0.00  0.00    +0.000 A 
ATOM      5  C   UNL     1       2.392   6.242  19.153  0.00  0.00    +0.000 A 
ATOM      6  C   UNL     1       2.355   5.233  20.129  0.00  0.00    +0.000 A 
ENDROOT
BRANCH   5   7
ATOM      7  C   UNL     1       1.816   7.577  19.412  0.00  0.00    +0.000 A 
ATOM      8  C   UNL     1       1.768   8.580  18.433  0.00  0.00    +0.000 A 
ATOM      9  C   UNL     1       1.408   9.897  18.755  0.00  0.00    +0.000 A 
ATOM     10  C   UNL     1       1.052  10.260  20.061  0.00  0.00    +0.000 A 
ATOM     11  C   UNL     1       1.021   9.237  21.018  0.00  0.00    +0.000 A 
ATOM     12  C   UNL     1       1.387   7.928  20.699  0.00  0.00    +0.000 A 
BRANCH  10  13
ATOM     13  C   UNL     1       0.854  11.714  20.491  0.00  0.00    +0.000 C 
ATOM     14  C   UNL     1      -0.447  11.984  21.276  0.00  0.00    +0.000 C 
ATOM     15  C   UNL     1      -1.668  11.991  20.357  0.00  0.00    +0.000 C 
ATOM     16  N   UNL     1      -1.538  12.992  19.298  0.00  0.00    +0.000 NA
ATOM     17  C   UNL     1      -0.323  12.788  18.507  0.00  0.00    +0.000 C 
ATOM     18  C   UNL     1       0.936  12.774  19.375  0.00  0.00    +0.000 C 
ATOM     19  H   UNL     1      -1.510  13.920  19.720  0.00  0.00    +0.000 HD
ENDBRANCH  10  13
ENDBRANCH   5   7
BRANCH   3  20
ATOM     20  N   UNL     1       4.448   4.583  16.525  0.00  0.00    +0.000 N 
ATOM     21  C   UNL     1       5.803   4.809  16.333  0.00  0.00    +0.000 C 
ATOM     22  O   UNL     1       6.605   5.142  17.197  0.00  0.00    +0.000 OA
ATOM     23  H   UNL     1       3.923   4.180  15.759  0.00  0.00    +0.000 HD
BRANCH  21  24
ATOM     24  C   UNL     1       6.331   4.603  14.969  0.00  0.00    +0.000 A 
ATOM     25  C   UNL     1       5.765   3.735  14.033  0.00  0.00    +0.000 A 
ATOM     26  C   UNL     1       6.297   3.694  12.743  0.00  0.00    +0.000 A 
ATOM     27  C   UNL     1       7.373   4.516  12.441  0.00  0.00    +0.000 A 
ATOM     28  N   UNL     1       7.945   5.357  13.327  0.00  0.00    +0.000 NA
ATOM     29  C   UNL     1       7.404   5.390  14.568  0.00  0.00    +0.000 A 
ENDBRANCH  21  24
ENDBRANCH   3  20
BRANCH   1  31
ATOM     30  O   UNL     1       2.155   3.018  21.903  0.00  0.00    +0.000 OA
ATOM     31  C   UNL     1       3.041   3.053  21.062  0.00  0.00    +0.000 C 
BRANCH  31  32
ATOM     32  O   UNL     1       4.138   2.272  21.116  0.00  0.00    +0.000 OA
ATOM     33  H   UNL     1       4.917   2.603  20.631  0.00  0.00    +0.000 HD
ENDBRANCH  31  32
ENDBRANCH   1  31
TORSDOF 6
ENDMDL
MODEL 8
REMARK VINA RESULT:      -8.8      3.717      9.454
REMARK  Name = 
REMARK  6 active torsions:
REMARK  status: ('A' for Active; 'I' for Inactive)
REMARK    1  A    between atoms: C_2  and  O_3
REMARK    2  A    between atoms: C_2  and  C_4
REMARK    3  A    between atoms: C_6  and  N_7
REMARK    4  A    between atoms: C_8  and  C_10
REMARK    5  A    between atoms: C_17  and  C_18
REMARK    6  A    between atoms: C_21  and  C_22
REMARK                            x       y       z     vdW  Elec       q    Type
REMARK                         _______ _______ _______ _____ _____    ______ ____
ROOT
ATOM      1  C   UNL     1      -0.197  10.824  21.791  0.00  0.00    +0.000 A 
ATOM      2  C   UNL     1      -0.220  12.074  21.169  0.00  0.00    +0.000 A 
ATOM      3  C   UNL     1       0.416  12.263  19.941  0.00  0.00    +0.000 A 
ATOM      4  C   UNL     1       1.073  11.179  19.345  0.00  0.00    +0.000 A 
ATOM      5  C   UNL     1       1.127   9.910  19.961  0.00  0.00    +0.000 A 
ATOM      6  C   UNL     1       0.502   9.765  21.209  0.00  0.00    +0.000 A 
ENDROOT
BRANCH   5   7
ATOM      7  C   UNL     1       1.715   8.748  19.262  0.00  0.00    +0.000 A 
ATOM      8  C   UNL     1       1.999   7.540  19.916  0.00  0.00    +0.000 A 
ATOM      9  C   UNL     1       2.740   6.528  19.289  0.00  0.00    +0.000 A 
ATOM     10  C   UNL     1       3.202   6.668  17.973  0.00  0.00    +0.000 A 
ATOM     11  C   UNL     1       2.844   7.842  17.296  0.00  0.00    +0.000 A 
ATOM     12  C   UNL     1       2.114   8.852  17.924  0.00  0.00    +0.000 A 
BRANCH  10  13
ATOM     13  C   UNL     1       4.180   5.683  17.329  0.00  0.00    +0.000 C 
ATOM     14  C   UNL     1       3.766   4.200  17.434  0.00  0.00    +0.000 C 
ATOM     15  C   UNL     1       3.992   3.651  18.842  0.00  0.00    +0.000 C 
ATOM     16  N   UNL     1       5.391   3.782  19.252  0.00  0.00    +0.000 NA
ATOM     17  C   UNL     1       5.847   5.171  19.181  0.00  0.00    +0.000 C 
ATOM     18  C   UNL     1       5.647   5.776  17.791  0.00  0.00    +0.000 C 
ATOM     19  H   UNL     1       5.971   3.209  18.639  0.00  0.00    +0.000 HD
ENDBRANCH  10  13
ENDBRANCH   5   7
BRANCH   3  20
ATOM     20  N   UNL     1       0.406  13.493  19.238  0.00  0.00    +0.000 N 
ATOM     21  C   UNL     1       1.045  14.655  19.647  0.00  0.00    +0.000 C 
ATOM     22  O   UNL     1       1.746  14.777  20.644  0.00  0.00    +0.000 OA
ATOM     23  H   UNL     1      -0.028  13.489  18.325  0.00  0.00    +0.000 HD
BRANCH  21  24
ATOM     24  C   UNL     1       0.888  15.845  18.785  0.00  0.00    +0.000 A 
ATOM     25  C   UNL     1      -0.345  16.392  18.421  0.00  0.00    +0.000 A 
ATOM     26  C   UNL     1      -0.365  17.574  17.679  0.00  0.00    +0.000 A 
ATOM     27  C   UNL     1       0.842  18.159  17.326  0.00  0.00    +0.000 A 
ATOM     28  N   UNL     1       2.046  17.649  17.656  0.00  0.00    +0.000 NA
ATOM     29  C   UNL     1       2.043  16.509  18.388  0.00  0.00    +0.000 A 
ENDBRANCH  21  24
ENDBRANCH   3  20
BRANCH   1  31
ATOM     30  O   UNL     1      -1.927  11.184  23.376  0.00  0.00    +0.000 OA
ATOM     31  C   UNL     1      -0.916  10.572  23.062  0.00  0.00    +0.000 C 
BRANCH  31  32
ATOM     32  O   UNL     1      -0.313   9.683  23.875  0.00  0.00    +0.000 OA
ATOM     33  H   UNL     1      -0.079  10.013  24.762  0.00  0.00    +0.000 HD
ENDBRANCH  31  32
ENDBRANCH   1  31
TORSDOF 6
ENDMDL
MODEL 9
REMARK VINA RESULT:      -8.8      1.148      1.877
REMARK  Name = 
REMARK  6 active torsions:
REMARK  status: ('A' for Active; 'I' for Inactive)
REMARK    1  A    between atoms: C_2  and  O_3
REMARK    2  A    between atoms: C_2  and  C_4
REMARK    3  A    between atoms: C_6  and  N_7
REMARK    4  A    between atoms: C_8  and  C_10
REMARK    5  A    between atoms: C_17  and  C_18
REMARK    6  A    between atoms: C_21  and  C_22
REMARK                            x       y       z     vdW  Elec       q    Type
REMARK                         _______ _______ _______ _____ _____    ______ ____
ROOT
ATOM      1  C   UNL     1       3.702   3.627  19.607  0.00  0.00    +0.000 A 
ATOM      2  C   UNL     1       4.295   3.512  18.349  0.00  0.00    +0.000 A 
ATOM      3  C   UNL     1       4.140   4.523  17.399  0.00  0.00    +0.000 A 
ATOM      4  C   UNL     1       3.382   5.653  17.732  0.00  0.00    +0.000 A 
ATOM      5  C   UNL     1       2.755   5.787  18.990  0.00  0.00    +0.000 A 
ATOM      6  C   UNL     1       2.909   4.736  19.908  0.00  0.00    +0.000 A 
ENDROOT
BRANCH   5   7
ATOM      7  C   UNL     1       2.066   7.038  19.369  0.00  0.00    +0.000 A 
ATOM      8  C   UNL     1       1.944   8.125  18.492  0.00  0.00    +0.000 A 
ATOM      9  C   UNL     1       1.471   9.369  18.935  0.00  0.00    +0.000 A 
ATOM     10  C   UNL     1       1.073   9.570  20.264  0.00  0.00    +0.000 A 
ATOM     11  C   UNL     1       1.117   8.457  21.114  0.00  0.00    +0.000 A 
ATOM     12  C   UNL     1       1.596   7.222  20.675  0.00  0.00    +0.000 A 
BRANCH  10  13
ATOM     13  C   UNL     1       0.748  10.953  20.831  0.00  0.00    +0.000 C 
ATOM     14  C   UNL     1      -0.756  11.229  21.039  0.00  0.00    +0.000 C 
ATOM     15  C   UNL     1      -1.466  11.502  19.714  0.00  0.00    +0.000 C 
ATOM     16  N   UNL     1      -0.869  12.637  19.008  0.00  0.00    +0.000 NA
ATOM     17  C   UNL     1       0.561  12.435  18.772  0.00  0.00    +0.000 C 
ATOM     18  C   UNL     1       1.327  12.158  20.066  0.00  0.00    +0.000 C 
ATOM     19  H   UNL     1      -1.000  13.481  19.566  0.00  0.00    +0.000 HD
ENDBRANCH  10  13
ENDBRANCH   5   7
BRANCH   3  20
ATOM     20  N   UNL     1       4.740   4.487  16.116  0.00  0.00    +0.000 N 
ATOM     21  C   UNL     1       6.097   4.623  15.861  0.00  0.00    +0.000 C 
ATOM     22  O   UNL     1       6.977   4.746  16.704  0.00  0.00    +0.000 OA
ATOM     23  H   UNL     1       4.134   4.256  15.340  0.00  0.00    +0.000 HD
BRANCH  21  24
ATOM     24  C   UNL     1       6.520   4.588  14.446  0.00  0.00    +0.000 A 
ATOM     25  C   UNL     1       7.559   5.358  13.920  0.00  0.00    +0.000 A 
ATOM     26  C   UNL     1       7.930   5.169  12.587  0.00  0.00    +0.000 A 
ATOM     27  C   UNL     1       7.246   4.226  11.834  0.00  0.00    +0.000 A 
ATOM     28  N   UNL     1       6.234   3.475  12.313  0.00  0.00    +0.000 NA
ATOM     29  C   UNL     1       5.900   3.664  13.612  0.00  0.00    +0.000 A 
ENDBRANCH  21  24
ENDBRANCH   3  20
BRANCH   1  31
ATOM     30  O   UNL     1       4.868   1.857  20.676  0.00  0.00    +0.000 OA
ATOM     31  C   UNL     1       3.899   2.603  20.660  0.00  0.00    +0.000 C 
BRANCH  31  32
ATOM     32  O   UNL     1       2.882   2.507  21.539  0.00  0.00    +0.000 OA
ATOM     33  H   UNL     1       2.066   2.098  21.197  0.00  0.00    +0.000 HD
ENDBRANCH  31  32
ENDBRANCH   1  31
TORSDOF 6
ENDMDL
