MODEL 1
REMARK VINA RESULT:      -8.4      0.000      0.000
REMARK  Name = 
REMARK  7 active torsions:
REMARK  status: ('A' for Active; 'I' for Inactive)
REMARK    1  A    between atoms: C_1  and  C_2
REMARK    2  A    between atoms: C_7  and  C_8
REMARK    3  A    between atoms: C_11  and  C_12
REMARK    4  A    between atoms: C_15  and  C_16
REMARK    5  A    between atoms: C_19  and  N_20
REMARK    6  A    between atoms: N_20  and  C_21
REMARK    7  A    between atoms: N_20  and  C_22
REMARK                            x       y       z     vdW  Elec       q    Type
REMARK                         _______ _______ _______ _____ _____    ______ ____
ROOT
ATOM      1  C   UNL     1       1.848   8.257  19.039  0.00  0.00    +0.000 A 
ATOM      2  C   UNL     1       1.338   9.349  18.335  0.00  0.00    +0.000 A 
ATOM      3  C   UNL     1       0.557  10.302  18.986  0.00  0.00    +0.000 A 
ATOM      4  C   UNL     1       0.236  10.180  20.349  0.00  0.00    +0.000 A 
ATOM      5  C   UNL     1       0.745   9.071  21.043  0.00  0.00    +0.000 A 
ATOM      6  C   UNL     1       1.541   8.122  20.397  0.00  0.00    +0.000 A 
ENDROOT
BRANCH   1  13
ATOM      7  C   UNL     1       6.660   4.263  15.174  0.00  0.00    +0.000 C 
ATOM      8  C   UNL     1       5.525   4.608  16.088  0.00  0.00    +0.000 A 
ATOM      9  C   UNL     1       4.752   3.600  16.690  0.00  0.00    +0.000 A 
ATOM     10  C   UNL     1       3.689   3.904  17.548  0.00  0.00    +0.000 A 
ATOM     11  C   UNL     1       3.440   5.258  17.772  0.00  0.00    +0.000 A 
ATOM     12  N   UNL     1       2.510   5.908  18.530  0.00  0.00    +0.000 N 
ATOM     13  C   UNL     1       2.695   7.264  18.388  0.00  0.00    +0.000 A 
ATOM     14  N   UNL     1       3.696   7.509  17.568  0.00  0.00    +0.000 NA
ATOM     15  C   UNL     1       4.176   6.281  17.188  0.00  0.00    +0.000 A 
ATOM     16  C   UNL     1       5.237   5.960  16.338  0.00  0.00    +0.000 A 
ATOM     17  H   UNL     1       1.787   5.471  19.078  0.00  0.00    +0.000 HD
ENDBRANCH   1  13
BRANCH   4  18
ATOM     18  C   UNL     1      -0.622  11.180  21.009  0.00  0.00    +0.000 A 
ATOM     19  C   UNL     1      -1.231  12.199  20.267  0.00  0.00    +0.000 A 
ATOM     20  C   UNL     1      -2.017  13.174  20.881  0.00  0.00    +0.000 A 
ATOM     21  C   UNL     1      -2.271  13.148  22.259  0.00  0.00    +0.000 A 
ATOM     22  C   UNL     1      -1.680  12.116  23.001  0.00  0.00    +0.000 A 
ATOM     23  C   UNL     1      -0.862  11.158  22.390  0.00  0.00    +0.000 A 
BRANCH  21  24
ATOM     24  C   UNL     1      -3.128  14.175  22.879  0.00  0.00    +0.000 A 
ATOM     25  C   UNL     1      -4.112  14.839  22.137  0.00  0.00    +0.000 A 
ATOM     26  C   UNL     1      -4.886  15.860  22.691  0.00  0.00    +0.000 A 
ATOM     27  C   UNL     1      -4.760  16.252  24.031  0.00  0.00    +0.000 A 
ATOM     28  C   UNL     1      -3.793  15.565  24.775  0.00  0.00    +0.000 A 
ATOM     29  C   UNL     1      -2.987  14.559  24.216  0.00  0.00    +0.000 A 
BRANCH  27  30
ATOM     30  N   UNL     1      -5.518  17.292  24.547  0.00  0.00    +0.000 N 
ATOM     31  C   UNL     1      -4.993  18.144  25.614  0.00  0.00    +0.000 C 
ATOM     32  C   UNL     1      -6.669  17.841  23.839  0.00  0.00    +0.000 C 
ENDBRANCH  27  30
ENDBRANCH  21  24
ENDBRANCH   4  18
TORSDOF 4
ENDMDL
MODEL 2
REMARK VINA RESULT:      -8.4      0.568      1.038
REMARK  Name = 
REMARK  7 active torsions:
REMARK  status: ('A' for Active; 'I' for Inactive)
REMARK    1  A    between atoms: C_1  and  C_2
REMARK    2  A    between atoms: C_7  and  C_8
REMARK    3  A    between atoms: C_11  and  C_12
REMARK    4  A    between atoms: C_15  and  C_16
REMARK    5  A    between atoms: C_19  and  N_20
REMARK    6  A    between atoms: N_20  and  C_21
REMARK    7  A    between atoms: N_20  and  C_22
REMARK                            x       y       z     vdW  Elec       q    Type
REMARK                         _______ _______ _______ _____ _____    ______ ____
ROOT
ATOM      1  C   UNL     1       2.083   8.165  18.869  0.00  0.00    +0.000 A 
ATOM      2  C   UNL     1       1.709   7.987  20.202  0.00  0.00    +0.000 A 
ATOM      3  C   UNL     1       0.876   8.914  20.827  0.00  0.00    +0.000 A 
ATOM      4  C   UNL     1       0.416  10.059  20.153  0.00  0.00    +0.000 A 
ATOM      5  C   UNL     1       0.809  10.231  18.817  0.00  0.00    +0.000 A 
ATOM      6  C   UNL     1       1.632   9.297  18.183  0.00  0.00    +0.000 A 
ENDROOT
BRANCH   1  13
ATOM      7  C   UNL     1       6.812   4.286  14.791  0.00  0.00    +0.000 C 
ATOM      8  C   UNL     1       5.715   4.604  15.759  0.00  0.00    +0.000 A 
ATOM      9  C   UNL     1       5.005   3.579  16.406  0.00  0.00    +0.000 A 
ATOM     10  C   UNL     1       3.978   3.858  17.315  0.00  0.00    +0.000 A 
ATOM     11  C   UNL     1       3.700   5.205  17.542  0.00  0.00    +0.000 A 
ATOM     12  N   UNL     1       2.790   5.834  18.343  0.00  0.00    +0.000 N 
ATOM     13  C   UNL     1       2.926   7.193  18.183  0.00  0.00    +0.000 A 
ATOM     14  N   UNL     1       3.877   7.461  17.311  0.00  0.00    +0.000 NA
ATOM     15  C   UNL     1       4.373   6.245  16.915  0.00  0.00    +0.000 A 
ATOM     16  C   UNL     1       5.400   5.949  16.014  0.00  0.00    +0.000 A 
ATOM     17  H   UNL     1       2.110   5.379  18.929  0.00  0.00    +0.000 HD
ENDBRANCH   1  13
BRANCH   4  18
ATOM     18  C   UNL     1      -0.434  11.043  20.844  0.00  0.00    +0.000 A 
ATOM     19  C   UNL     1      -1.247  11.922  20.117  0.00  0.00    +0.000 A 
ATOM     20  C   UNL     1      -2.031  12.882  20.755  0.00  0.00    +0.000 A 
ATOM     21  C   UNL     1      -2.076  12.979  22.152  0.00  0.00    +0.000 A 
ATOM     22  C   UNL     1      -1.280  12.087  22.884  0.00  0.00    +0.000 A 
ATOM     23  C   UNL     1      -0.466  11.145  22.243  0.00  0.00    +0.000 A 
BRANCH  21  24
ATOM     24  C   UNL     1      -2.935  13.986  22.803  0.00  0.00    +0.000 A 
ATOM     25  C   UNL     1      -4.309  13.768  22.965  0.00  0.00    +0.000 A 
ATOM     26  C   UNL     1      -5.147  14.738  23.518  0.00  0.00    +0.000 A 
ATOM     27  C   UNL     1      -4.662  15.967  23.985  0.00  0.00    +0.000 A 
ATOM     28  C   UNL     1      -3.283  16.168  23.845  0.00  0.00    +0.000 A 
ATOM     29  C   UNL     1      -2.438  15.210  23.260  0.00  0.00    +0.000 A 
BRANCH  27  30
ATOM     30  N   UNL     1      -5.520  16.927  24.499  0.00  0.00    +0.000 N 
ATOM     31  C   UNL     1      -5.054  17.894  25.492  0.00  0.00    +0.000 C 
ATOM     32  C   UNL     1      -6.770  17.286  23.838  0.00  0.00    +0.000 C 
ENDBRANCH  27  30
ENDBRANCH  21  24
ENDBRANCH   4  18
TORSDOF 4
ENDMDL
MODEL 3
REMARK VINA RESULT:      -8.2      1.626     12.694
REMARK  Name = 
REMARK  7 active torsions:
REMARK  status: ('A' for Active; 'I' for Inactive)
REMARK    1  A    between atoms: C_1  and  C_2
REMARK    2  A    between atoms: C_7  and  C_8
REMARK    3  A    between atoms: C_11  and  C_12
REMARK    4  A    between atoms: C_15  and  C_16
REMARK    5  A    between atoms: C_19  and  N_20
REMARK    6  A    between atoms: N_20  and  C_21
REMARK    7  A    between atoms: N_20  and  C_22
REMARK                            x       y       z     vdW  Elec       q    Type
REMARK                         _______ _______ _______ _____ _____    ______ ____
ROOT
ATOM      1  C   UNL     1      -2.035  12.646  21.718  0.00  0.00    +0.000 A 
ATOM      2  C   UNL     1      -1.861  12.629  20.333  0.00  0.00    +0.000 A 
ATOM      3  C   UNL     1      -1.022  11.685  19.742  0.00  0.00    +0.000 A 
ATOM      4  C   UNL     1      -0.310  10.751  20.515  0.00  0.00    +0.000 A 
ATOM      5  C   UNL     1      -0.485  10.787  21.907  0.00  0.00    +0.000 A 
ATOM      6  C   UNL     1      -1.337  11.721  22.501  0.00  0.00    +0.000 A 
ENDROOT
BRANCH   1  13
ATOM      7  C   UNL     1      -5.484  17.991  25.402  0.00  0.00    +0.000 C 
ATOM      8  C   UNL     1      -5.266  16.764  24.571  0.00  0.00    +0.000 A 
ATOM      9  C   UNL     1      -6.352  16.002  24.112  0.00  0.00    +0.000 A 
ATOM     10  C   UNL     1      -6.167  14.854  23.333  0.00  0.00    +0.000 A 
ATOM     11  C   UNL     1      -4.848  14.510  23.040  0.00  0.00    +0.000 A 
ATOM     12  N   UNL     1      -4.303  13.483  22.325  0.00  0.00    +0.000 N 
ATOM     13  C   UNL     1      -2.933  13.601  22.357  0.00  0.00    +0.000 A 
ATOM     14  N   UNL     1      -2.578  14.653  23.065  0.00  0.00    +0.000 NA
ATOM     15  C   UNL     1      -3.748  15.233  23.484  0.00  0.00    +0.000 A 
ATOM     16  C   UNL     1      -3.952  16.380  24.256  0.00  0.00    +0.000 A 
ATOM     17  H   UNL     1      -4.815  12.742  21.875  0.00  0.00    +0.000 HD
ENDBRANCH   1  13
BRANCH   4  18
ATOM     18  C   UNL     1       0.599   9.786  19.873  0.00  0.00    +0.000 A 
ATOM     19  C   UNL     1       0.975   9.942  18.532  0.00  0.00    +0.000 A 
ATOM     20  C   UNL     1       1.807   9.018  17.900  0.00  0.00    +0.000 A 
ATOM     21  C   UNL     1       2.341   7.922  18.590  0.00  0.00    +0.000 A 
ATOM     22  C   UNL     1       1.985   7.776  19.938  0.00  0.00    +0.000 A 
ATOM     23  C   UNL     1       1.121   8.683  20.564  0.00  0.00    +0.000 A 
BRANCH  21  24
ATOM     24  C   UNL     1       3.241   6.975  17.905  0.00  0.00    +0.000 A 
ATOM     25  C   UNL     1       4.346   7.429  17.174  0.00  0.00    +0.000 A 
ATOM     26  C   UNL     1       5.168   6.551  16.465  0.00  0.00    +0.000 A 
ATOM     27  C   UNL     1       4.968   5.164  16.475  0.00  0.00    +0.000 A 
ATOM     28  C   UNL     1       3.876   4.715  17.230  0.00  0.00    +0.000 A 
ATOM     29  C   UNL     1       3.025   5.594  17.920  0.00  0.00    +0.000 A 
BRANCH  27  30
ATOM     30  N   UNL     1       5.778   4.318  15.735  0.00  0.00    +0.000 N 
ATOM     31  C   UNL     1       5.413   3.932  14.373  0.00  0.00    +0.000 C 
ATOM     32  C   UNL     1       7.174   4.078  16.083  0.00  0.00    +0.000 C 
ENDBRANCH  27  30
ENDBRANCH  21  24
ENDBRANCH   4  18
TORSDOF 4
ENDMDL
MODEL 4
REMARK VINA RESULT:      -8.1      1.559     12.743
REMARK  Name = 
REMARK  7 active torsions:
REMARK  status: ('A' for Active; 'I' for Inactive)
REMARK    1  A    between atoms: C_1  and  C_2
REMARK    2  A    between atoms: C_7  and  C_8
REMARK    3  A    between atoms: C_11  and  C_12
REMARK    4  A    between atoms: C_15  and  C_16
REMARK    5  A    between atoms: C_19  and  N_20
REMARK    6  A    between atoms: N_20  and  C_21
REMARK    7  A    between atoms: N_20  and  C_22
REMARK                            x       y       z     vdW  Elec       q    Type
REMARK                         _______ _______ _______ _____ _____    ______ ____
ROOT
ATOM      1  C   UNL     1      -2.331  12.776  21.685  0.00  0.00    +0.000 A 
ATOM      2  C   UNL     1      -1.508  12.005  22.507  0.00  0.00    +0.000 A 
ATOM      3  C   UNL     1      -0.595  11.112  21.948  0.00  0.00    +0.000 A 
ATOM      4  C   UNL     1      -0.495  10.940  20.556  0.00  0.00    +0.000 A 
ATOM      5  C   UNL     1      -1.337  11.714  19.742  0.00  0.00    +0.000 A 
ATOM      6  C   UNL     1      -2.243  12.620  20.298  0.00  0.00    +0.000 A 
ENDROOT
BRANCH   1  13
ATOM      7  C   UNL     1      -7.711  17.482  23.404  0.00  0.00    +0.000 C 
ATOM      8  C   UNL     1      -6.436  16.701  23.497  0.00  0.00    +0.000 A 
ATOM      9  C   UNL     1      -5.562  16.876  24.582  0.00  0.00    +0.000 A 
ATOM     10  C   UNL     1      -4.368  16.153  24.687  0.00  0.00    +0.000 A 
ATOM     11  C   UNL     1      -4.095  15.254  23.656  0.00  0.00    +0.000 A 
ATOM     12  N   UNL     1      -3.052  14.402  23.431  0.00  0.00    +0.000 N 
ATOM     13  C   UNL     1      -3.271  13.741  22.245  0.00  0.00    +0.000 A 
ATOM     14  N   UNL     1      -4.402  14.136  21.699  0.00  0.00    +0.000 NA
ATOM     15  C   UNL     1      -4.930  15.061  22.563  0.00  0.00    +0.000 A 
ATOM     16  C   UNL     1      -6.121  15.787  22.477  0.00  0.00    +0.000 A 
ATOM     17  H   UNL     1      -2.241  14.297  24.018  0.00  0.00    +0.000 HD
ENDBRANCH   1  13
BRANCH   4  18
ATOM     18  C   UNL     1       0.451   9.965  19.988  0.00  0.00    +0.000 A 
ATOM     19  C   UNL     1       0.923  10.108  18.677  0.00  0.00    +0.000 A 
ATOM     20  C   UNL     1       1.793   9.174  18.113  0.00  0.00    +0.000 A 
ATOM     21  C   UNL     1       2.269   8.081  18.848  0.00  0.00    +0.000 A 
ATOM     22  C   UNL     1       1.816   7.947  20.169  0.00  0.00    +0.000 A 
ATOM     23  C   UNL     1       0.915   8.864  20.723  0.00  0.00    +0.000 A 
BRANCH  21  24
ATOM     24  C   UNL     1       3.209   7.123  18.237  0.00  0.00    +0.000 A 
ATOM     25  C   UNL     1       3.331   5.817  18.728  0.00  0.00    +0.000 A 
ATOM     26  C   UNL     1       4.263   4.919  18.205  0.00  0.00    +0.000 A 
ATOM     27  C   UNL     1       5.101   5.250  17.131  0.00  0.00    +0.000 A 
ATOM     28  C   UNL     1       4.955   6.550  16.628  0.00  0.00    +0.000 A 
ATOM     29  C   UNL     1       4.042   7.469  17.170  0.00  0.00    +0.000 A 
BRANCH  27  30
ATOM     30  N   UNL     1       6.041   4.352  16.653  0.00  0.00    +0.000 N 
ATOM     31  C   UNL     1       5.783   3.568  15.445  0.00  0.00    +0.000 C 
ATOM     32  C   UNL     1       7.442   4.404  17.057  0.00  0.00    +0.000 C 
ENDBRANCH  27  30
ENDBRANCH  21  24
ENDBRANCH   4  18
TORSDOF 4
ENDMDL
MODEL 5
REMARK VINA RESULT:      -8.0      1.694     12.711
REMARK  Name = 
REMARK  7 active torsions:
REMARK  status: ('A' for Active; 'I' for Inactive)
REMARK    1  A    between atoms: C_1  and  C_2
REMARK    2  A    between atoms: C_7  and  C_8
REMARK    3  A    between atoms: C_11  and  C_12
REMARK    4  A    between atoms: C_15  and  C_16
REMARK    5  A    between atoms: C_19  and  N_20
REMARK    6  A    between atoms: N_20  and  C_21
REMARK    7  A    between atoms: N_20  and  C_22
REMARK                            x       y       z     vdW  Elec       q    Type
REMARK                         _______ _______ _______ _____ _____    ______ ____
ROOT
ATOM      1  C   UNL     1      -2.471  12.590  21.407  0.00  0.00    +0.000 A 
ATOM      2  C   UNL     1      -1.549  11.932  22.222  0.00  0.00    +0.000 A 
ATOM      3  C   UNL     1      -0.617  11.059  21.664  0.00  0.00    +0.000 A 
ATOM      4  C   UNL     1      -0.594  10.794  20.283  0.00  0.00    +0.000 A 
ATOM      5  C   UNL     1      -1.534  11.454  19.477  0.00  0.00    +0.000 A 
ATOM      6  C   UNL     1      -2.460  12.341  20.030  0.00  0.00    +0.000 A 
ENDROOT
BRANCH   1  13
ATOM      7  C   UNL     1      -6.386  18.209  24.081  0.00  0.00    +0.000 C 
ATOM      8  C   UNL     1      -6.013  16.817  23.672  0.00  0.00    +0.000 A 
ATOM      9  C   UNL     1      -6.896  15.745  23.878  0.00  0.00    +0.000 A 
ATOM     10  C   UNL     1      -6.566  14.438  23.500  0.00  0.00    +0.000 A 
ATOM     11  C   UNL     1      -5.314  14.261  22.912  0.00  0.00    +0.000 A 
ATOM     12  N   UNL     1      -4.672  13.156  22.431  0.00  0.00    +0.000 N 
ATOM     13  C   UNL     1      -3.435  13.534  21.962  0.00  0.00    +0.000 A 
ATOM     14  N   UNL     1      -3.256  14.828  22.127  0.00  0.00    +0.000 NA
ATOM     15  C   UNL     1      -4.411  15.295  22.701  0.00  0.00    +0.000 A 
ATOM     16  C   UNL     1      -4.759  16.594  23.079  0.00  0.00    +0.000 A 
ATOM     17  H   UNL     1      -5.029  12.215  22.446  0.00  0.00    +0.000 HD
ENDBRANCH   1  13
BRANCH   4  18
ATOM     18  C   UNL     1       0.377   9.840  19.720  0.00  0.00    +0.000 A 
ATOM     19  C   UNL     1       0.738   9.902  18.368  0.00  0.00    +0.000 A 
ATOM     20  C   UNL     1       1.629   8.985  17.812  0.00  0.00    +0.000 A 
ATOM     21  C   UNL     1       2.239   7.993  18.591  0.00  0.00    +0.000 A 
ATOM     22  C   UNL     1       1.897   7.942  19.950  0.00  0.00    +0.000 A 
ATOM     23  C   UNL     1       0.975   8.840  20.501  0.00  0.00    +0.000 A 
BRANCH  21  24
ATOM     24  C   UNL     1       3.199   7.052  17.984  0.00  0.00    +0.000 A 
ATOM     25  C   UNL     1       4.337   7.515  17.313  0.00  0.00    +0.000 A 
ATOM     26  C   UNL     1       5.220   6.642  16.675  0.00  0.00    +0.000 A 
ATOM     27  C   UNL     1       5.050   5.251  16.705  0.00  0.00    +0.000 A 
ATOM     28  C   UNL     1       3.924   4.794  17.402  0.00  0.00    +0.000 A 
ATOM     29  C   UNL     1       3.013   5.668  18.018  0.00  0.00    +0.000 A 
BRANCH  27  30
ATOM     30  N   UNL     1       5.922   4.408  16.035  0.00  0.00    +0.000 N 
ATOM     31  C   UNL     1       5.604   3.908  14.698  0.00  0.00    +0.000 C 
ATOM     32  C   UNL     1       7.325   4.280  16.416  0.00  0.00    +0.000 C 
ENDBRANCH  27  30
ENDBRANCH  21  24
ENDBRANCH   4  18
TORSDOF 4
ENDMDL
MODEL 6
REMARK VINA RESULT:      -8.0      0.307      1.249
REMARK  Name = 
REMARK  7 active torsions:
REMARK  status: ('A' for Active; 'I' for Inactive)
REMARK    1  A    between atoms: C_1  and  C_2
REMARK    2  A    between atoms: C_7  and  C_8
REMARK    3  A    between atoms: C_11  and  C_12
REMARK    4  A    between atoms: C_15  and  C_16
REMARK    5  A    between atoms: C_19  and  N_20
REMARK    6  A    between atoms: N_20  and  C_21
REMARK    7  A    between atoms: N_20  and  C_22
REMARK                            x       y       z     vdW  Elec       q    Type
REMARK                         _______ _______ _______ _____ _____    ______ ____
ROOT
ATOM      1  C   UNL     1       1.897   8.272  18.843  0.00  0.00    +0.000 A 
ATOM      2  C   UNL     1       1.403   9.328  18.076  0.00  0.00    +0.000 A 
ATOM      3  C   UNL     1       0.637  10.329  18.671  0.00  0.00    +0.000 A 
ATOM      4  C   UNL     1       0.317  10.292  20.040  0.00  0.00    +0.000 A 
ATOM      5  C   UNL     1       0.811   9.219  20.797  0.00  0.00    +0.000 A 
ATOM      6  C   UNL     1       1.591   8.221  20.207  0.00  0.00    +0.000 A 
ENDROOT
BRANCH   1  13
ATOM      7  C   UNL     1       6.670   3.990  15.246  0.00  0.00    +0.000 C 
ATOM      8  C   UNL     1       5.527   4.404  16.120  0.00  0.00    +0.000 A 
ATOM      9  C   UNL     1       4.713   3.444  16.744  0.00  0.00    +0.000 A 
ATOM     10  C   UNL     1       3.641   3.812  17.567  0.00  0.00    +0.000 A 
ATOM     11  C   UNL     1       3.428   5.180  17.731  0.00  0.00    +0.000 A 
ATOM     12  N   UNL     1       2.501   5.887  18.442  0.00  0.00    +0.000 N 
ATOM     13  C   UNL     1       2.729   7.230  18.251  0.00  0.00    +0.000 A 
ATOM     14  N   UNL     1       3.754   7.413  17.444  0.00  0.00    +0.000 NA
ATOM     15  C   UNL     1       4.205   6.158  17.123  0.00  0.00    +0.000 A 
ATOM     16  C   UNL     1       5.274   5.773  16.310  0.00  0.00    +0.000 A 
ATOM     17  H   UNL     1       1.755   5.493  18.991  0.00  0.00    +0.000 HD
ENDBRANCH   1  13
BRANCH   4  18
ATOM     18  C   UNL     1      -0.524  11.342  20.641  0.00  0.00    +0.000 A 
ATOM     19  C   UNL     1      -0.785  11.348  22.017  0.00  0.00    +0.000 A 
ATOM     20  C   UNL     1      -1.607  12.315  22.595  0.00  0.00    +0.000 A 
ATOM     21  C   UNL     1      -2.169  13.348  21.834  0.00  0.00    +0.000 A 
ATOM     22  C   UNL     1      -1.893  13.357  20.459  0.00  0.00    +0.000 A 
ATOM     23  C   UNL     1      -1.096  12.366  19.872  0.00  0.00    +0.000 A 
BRANCH  21  24
ATOM     24  C   UNL     1      -3.013  14.374  22.475  0.00  0.00    +0.000 A 
ATOM     25  C   UNL     1      -2.857  14.694  23.829  0.00  0.00    +0.000 A 
ATOM     26  C   UNL     1      -3.692  15.613  24.467  0.00  0.00    +0.000 A 
ATOM     27  C   UNL     1      -4.704  16.304  23.787  0.00  0.00    +0.000 A 
ATOM     28  C   UNL     1      -4.836  15.998  22.426  0.00  0.00    +0.000 A 
ATOM     29  C   UNL     1      -4.022  15.051  21.784  0.00  0.00    +0.000 A 
BRANCH  27  30
ATOM     30  N   UNL     1      -5.541  17.186  24.451  0.00  0.00    +0.000 N 
ATOM     31  C   UNL     1      -5.053  17.974  25.583  0.00  0.00    +0.000 C 
ATOM     32  C   UNL     1      -6.785  17.670  23.863  0.00  0.00    +0.000 C 
ENDBRANCH  27  30
ENDBRANCH  21  24
ENDBRANCH   4  18
TORSDOF 4
ENDMDL
MODEL 7
REMARK VINA RESULT:      -7.9      0.516      1.141
REMARK  Name = 
REMARK  7 active torsions:
REMARK  status: ('A' for Active; 'I' for Inactive)
REMARK    1  A    between atoms: C_1  and  C_2
REMARK    2  A    between atoms: C_7  and  C_8
REMARK    3  A    between atoms: C_11  and  C_12
REMARK    4  A    between atoms: C_15  and  C_16
REMARK    5  A    between atoms: C_19  and  N_20
REMARK    6  A    between atoms: N_20  and  C_21
REMARK    7  A    between atoms: N_20  and  C_22
REMARK                            x       y       z     vdW  Elec       q    Type
REMARK                         _______ _______ _______ _____ _____    ______ ____
ROOT
ATOM      1  C   UNL     1       1.865   8.415  18.879  0.00  0.00    +0.000 A 
ATOM      2  C   UNL     1       1.450   9.530  18.149  0.00  0.00    +0.000 A 
ATOM      3  C   UNL     1       0.686  10.523  18.758  0.00  0.00    +0.000 A 
ATOM      4  C   UNL     1       0.288  10.422  20.103  0.00  0.00    +0.000 A 
ATOM      5  C   UNL     1       0.702   9.290  20.822  0.00  0.00    +0.000 A 
ATOM      6  C   UNL     1       1.481   8.300  20.219  0.00  0.00    +0.000 A 
ENDROOT
BRANCH   1  13
ATOM      7  C   UNL     1       6.612   4.163  15.213  0.00  0.00    +0.000 C 
ATOM      8  C   UNL     1       5.476   4.570  16.101  0.00  0.00    +0.000 A 
ATOM      9  C   UNL     1       4.671   3.605  16.729  0.00  0.00    +0.000 A 
ATOM     10  C   UNL     1       3.608   3.966  17.564  0.00  0.00    +0.000 A 
ATOM     11  C   UNL     1       3.392   5.333  17.737  0.00  0.00    +0.000 A 
ATOM     12  N   UNL     1       2.471   6.034  18.461  0.00  0.00    +0.000 N 
ATOM     13  C   UNL     1       2.693   7.379  18.273  0.00  0.00    +0.000 A 
ATOM     14  N   UNL     1       3.709   7.568  17.457  0.00  0.00    +0.000 NA
ATOM     15  C   UNL     1       4.160   6.315  17.126  0.00  0.00    +0.000 A 
ATOM     16  C   UNL     1       5.222   5.937  16.299  0.00  0.00    +0.000 A 
ATOM     17  H   UNL     1       1.732   5.635  19.016  0.00  0.00    +0.000 HD
ENDBRANCH   1  13
BRANCH   4  18
ATOM     18  C   UNL     1      -0.550  11.467  20.717  0.00  0.00    +0.000 A 
ATOM     19  C   UNL     1      -0.336  11.867  22.042  0.00  0.00    +0.000 A 
ATOM     20  C   UNL     1      -1.143  12.830  22.648  0.00  0.00    +0.000 A 
ATOM     21  C   UNL     1      -2.171  13.472  21.944  0.00  0.00    +0.000 A 
ATOM     22  C   UNL     1      -2.374  13.088  20.611  0.00  0.00    +0.000 A 
ATOM     23  C   UNL     1      -1.587  12.097  20.013  0.00  0.00    +0.000 A 
BRANCH  21  24
ATOM     24  C   UNL     1      -2.992  14.506  22.601  0.00  0.00    +0.000 A 
ATOM     25  C   UNL     1      -4.384  14.526  22.449  0.00  0.00    +0.000 A 
ATOM     26  C   UNL     1      -5.169  15.537  23.008  0.00  0.00    +0.000 A 
ATOM     27  C   UNL     1      -4.623  16.563  23.790  0.00  0.00    +0.000 A 
ATOM     28  C   UNL     1      -3.233  16.521  23.960  0.00  0.00    +0.000 A 
ATOM     29  C   UNL     1      -2.432  15.527  23.374  0.00  0.00    +0.000 A 
BRANCH  27  30
ATOM     30  N   UNL     1      -5.420  17.573  24.305  0.00  0.00    +0.000 N 
ATOM     31  C   UNL     1      -6.741  17.847  23.741  0.00  0.00    +0.000 C 
ATOM     32  C   UNL     1      -5.192  18.145  25.628  0.00  0.00    +0.000 C 
ENDBRANCH  27  30
ENDBRANCH  21  24
ENDBRANCH   4  18
TORSDOF 4
ENDMDL
MODEL 8
REMARK VINA RESULT:      -7.9      1.634     12.752
REMARK  Name = 
REMARK  7 active torsions:
REMARK  status: ('A' for Active; 'I' for Inactive)
REMARK    1  A    between atoms: C_1  and  C_2
REMARK    2  A    between atoms: C_7  and  C_8
REMARK    3  A    between atoms: C_11  and  C_12
REMARK    4  A    between atoms: C_15  and  C_16
REMARK    5  A    between atoms: C_19  and  N_20
REMARK    6  A    between atoms: N_20  and  C_21
REMARK    7  A    between atoms: N_20  and  C_22
REMARK                            x       y       z     vdW  Elec       q    Type
REMARK                         _______ _______ _______ _____ _____    ______ ____
ROOT
ATOM      1  C   UNL     1      -2.127  12.680  21.654  0.00  0.00    +0.000 A 
ATOM      2  C   UNL     1      -1.514  11.658  22.380  0.00  0.00    +0.000 A 
ATOM      3  C   UNL     1      -0.630  10.783  21.752  0.00  0.00    +0.000 A 
ATOM      4  C   UNL     1      -0.352  10.883  20.377  0.00  0.00    +0.000 A 
ATOM      5  C   UNL     1      -0.983  11.908  19.657  0.00  0.00    +0.000 A 
ATOM      6  C   UNL     1      -1.859  12.796  20.286  0.00  0.00    +0.000 A 
ENDROOT
BRANCH   1  13
ATOM      7  C   UNL     1      -5.608  18.089  25.215  0.00  0.00    +0.000 C 
ATOM      8  C   UNL     1      -5.377  16.815  24.462  0.00  0.00    +0.000 A 
ATOM      9  C   UNL     1      -6.446  15.955  24.155  0.00  0.00    +0.000 A 
ATOM     10  C   UNL     1      -6.250  14.762  23.451  0.00  0.00    +0.000 A 
ATOM     11  C   UNL     1      -4.939  14.474  23.072  0.00  0.00    +0.000 A 
ATOM     12  N   UNL     1      -4.388  13.427  22.391  0.00  0.00    +0.000 N 
ATOM     13  C   UNL     1      -3.030  13.629  22.295  0.00  0.00    +0.000 A 
ATOM     14  N   UNL     1      -2.689  14.753  22.891  0.00  0.00    +0.000 NA
ATOM     15  C   UNL     1      -3.857  15.294  23.364  0.00  0.00    +0.000 A 
ATOM     16  C   UNL     1      -4.071  16.484  24.064  0.00  0.00    +0.000 A 
ATOM     17  H   UNL     1      -4.885  12.624  22.043  0.00  0.00    +0.000 HD
ENDBRANCH   1  13
BRANCH   4  18
ATOM     18  C   UNL     1       0.559   9.925  19.726  0.00  0.00    +0.000 A 
ATOM     19  C   UNL     1       1.032   8.804  20.420  0.00  0.00    +0.000 A 
ATOM     20  C   UNL     1       1.921   7.906  19.830  0.00  0.00    +0.000 A 
ATOM     21  C   UNL     1       2.343   8.061  18.503  0.00  0.00    +0.000 A 
ATOM     22  C   UNL     1       1.854   9.170  17.798  0.00  0.00    +0.000 A 
ATOM     23  C   UNL     1       0.989  10.091  18.402  0.00  0.00    +0.000 A 
BRANCH  21  24
ATOM     24  C   UNL     1       3.263   7.083  17.893  0.00  0.00    +0.000 A 
ATOM     25  C   UNL     1       4.420   7.500  17.223  0.00  0.00    +0.000 A 
ATOM     26  C   UNL     1       5.266   6.592  16.583  0.00  0.00    +0.000 A 
ATOM     27  C   UNL     1       5.038   5.210  16.609  0.00  0.00    +0.000 A 
ATOM     28  C   UNL     1       3.893   4.798  17.304  0.00  0.00    +0.000 A 
ATOM     29  C   UNL     1       3.019   5.707  17.922  0.00  0.00    +0.000 A 
BRANCH  27  30
ATOM     30  N   UNL     1       5.874   4.333  15.937  0.00  0.00    +0.000 N 
ATOM     31  C   UNL     1       5.529   3.840  14.604  0.00  0.00    +0.000 C 
ATOM     32  C   UNL     1       7.273   4.154  16.309  0.00  0.00    +0.000 C 
ENDBRANCH  27  30
ENDBRANCH  21  24
ENDBRANCH   4  18
TORSDOF 4
ENDMDL
MODEL 9
REMARK VINA RESULT:      -7.9      1.564     12.774
REMARK  Name = 
REMARK  7 active torsions:
REMARK  status: ('A' for Active; 'I' for Inactive)
REMARK    1  A    between atoms: C_1  and  C_2
REMARK    2  A    between atoms: C_7  and  C_8
REMARK    3  A    between atoms: C_11  and  C_12
REMARK    4  A    between atoms: C_15  and  C_16
REMARK    5  A    between atoms: C_19  and  N_20
REMARK    6  A    between atoms: N_20  and  C_21
REMARK    7  A    between atoms: N_20  and  C_22
REMARK                            x       y       z     vdW  Elec       q    Type
REMARK                         _______ _______ _______ _____ _____    ______ ____
ROOT
ATOM      1  C   UNL     1      -2.386  12.855  21.527  0.00  0.00    +0.000 A 
ATOM      2  C   UNL     1      -1.660  11.954  22.308  0.00  0.00    +0.000 A 
ATOM      3  C   UNL     1      -0.755  11.078  21.711  0.00  0.00    +0.000 A 
ATOM      4  C   UNL     1      -0.566  11.054  20.318  0.00  0.00    +0.000 A 
ATOM      5  C   UNL     1      -1.311  11.958  19.544  0.00  0.00    +0.000 A 
ATOM      6  C   UNL     1      -2.208  12.846  20.140  0.00  0.00    +0.000 A 
ENDROOT
BRANCH   1  13
ATOM      7  C   UNL     1      -7.790  17.421  23.527  0.00  0.00    +0.000 C 
ATOM      8  C   UNL     1      -6.483  16.689  23.541  0.00  0.00    +0.000 A 
ATOM      9  C   UNL     1      -5.533  16.930  24.548  0.00  0.00    +0.000 A 
ATOM     10  C   UNL     1      -4.308  16.254  24.578  0.00  0.00    +0.000 A 
ATOM     11  C   UNL     1      -4.083  15.332  23.557  0.00  0.00    +0.000 A 
ATOM     12  N   UNL     1      -3.029  14.511  23.275  0.00  0.00    +0.000 N 
ATOM     13  C   UNL     1      -3.315  13.803  22.130  0.00  0.00    +0.000 A 
ATOM     14  N   UNL     1      -4.500  14.140  21.665  0.00  0.00    +0.000 NA
ATOM     15  C   UNL     1      -4.993  15.074  22.540  0.00  0.00    +0.000 A 
ATOM     16  C   UNL     1      -6.214  15.754  22.528  0.00  0.00    +0.000 A 
ATOM     17  H   UNL     1      -2.171  14.454  23.799  0.00  0.00    +0.000 HD
ENDBRANCH   1  13
BRANCH   4  18
ATOM     18  C   UNL     1       0.370  10.096  19.705  0.00  0.00    +0.000 A 
ATOM     19  C   UNL     1       0.927   9.058  20.463  0.00  0.00    +0.000 A 
ATOM     20  C   UNL     1       1.841   8.163  19.907  0.00  0.00    +0.000 A 
ATOM     21  C   UNL     1       2.205   8.235  18.556  0.00  0.00    +0.000 A 
ATOM     22  C   UNL     1       1.632   9.259  17.789  0.00  0.00    +0.000 A 
ATOM     23  C   UNL     1       0.741  10.179  18.356  0.00  0.00    +0.000 A 
BRANCH  21  24
ATOM     24  C   UNL     1       3.153   7.259  17.986  0.00  0.00    +0.000 A 
ATOM     25  C   UNL     1       4.236   7.678  17.202  0.00  0.00    +0.000 A 
ATOM     26  C   UNL     1       5.103   6.765  16.600  0.00  0.00    +0.000 A 
ATOM     27  C   UNL     1       4.974   5.381  16.777  0.00  0.00    +0.000 A 
ATOM     28  C   UNL     1       3.905   4.971  17.584  0.00  0.00    +0.000 A 
ATOM     29  C   UNL     1       3.009   5.881  18.167  0.00  0.00    +0.000 A 
BRANCH  27  30
ATOM     30  N   UNL     1       5.828   4.495  16.140  0.00  0.00    +0.000 N 
ATOM     31  C   UNL     1       5.561   4.047  14.774  0.00  0.00    +0.000 C 
ATOM     32  C   UNL     1       7.192   4.262  16.602  0.00  0.00    +0.000 C 
ENDBRANCH  27  30
ENDBRANCH  21  24
ENDBRANCH   4  18
TORSDOF 4
ENDMDL
