MODEL 1
REMARK VINA RESULT:      -8.2      0.000      0.000
REMARK  Name = 
REMARK  8 active torsions:
REMARK  status: ('A' for Active; 'I' for Inactive)
REMARK    1  A    between atoms: C_2  and  C_3
REMARK    2  A    between atoms: C_3  and  C_4
REMARK    3  A    between atoms: C_4  and  C_5
REMARK    4  A    between atoms: C_5  and  C_6
REMARK    5  A    between atoms: C_6  and  C_7
REMARK    6  A    between atoms: C_7  and  N_8
REMARK    7  A    between atoms: N_20  and  C_21
REMARK    8  A    between atoms: C_24  and  O_25
REMARK                            x       y       z     vdW  Elec       q    Type
REMARK                         _______ _______ _______ _____ _____    ______ ____
ROOT
ATOM      1  C   UNL     1       5.748   6.736  16.838  0.00  0.00    +0.000 C 
ENDROOT
BRANCH   1   2
ATOM      2  C   UNL     1       7.237   6.424  16.969  0.00  0.00    +0.000 C 
BRANCH   2   3
ATOM      3  C   UNL     1       7.822   7.013  18.255  0.00  0.00    +0.000 C 
BRANCH   3   5
ATOM      4  O   UNL     1       7.661   9.161  17.190  0.00  0.00    +0.000 OA
ATOM      5  C   UNL     1       8.135   8.492  18.103  0.00  0.00    +0.000 C 
ATOM      6  N   UNL     1       9.008   8.952  19.079  0.00  0.00    +0.000 N 
ATOM      7  H   UNL     1       9.479   8.253  19.642  0.00  0.00    +0.000 HD
BRANCH   6   8
ATOM      8  C   UNL     1       9.439  10.287  19.239  0.00  0.00    +0.000 A 
ATOM      9  C   UNL     1       9.946  11.055  18.186  0.00  0.00    +0.000 A 
ATOM     10  C   UNL     1      10.421  12.349  18.407  0.00  0.00    +0.000 A 
ATOM     11  C   UNL     1      10.379  12.883  19.687  0.00  0.00    +0.000 A 
ATOM     12  C   UNL     1       9.835  12.156  20.738  0.00  0.00    +0.000 A 
ATOM     13  C   UNL     1       9.354  10.862  20.513  0.00  0.00    +0.000 A 
BRANCH  11  14
ATOM     14  O   UNL     1      10.870  14.127  19.951  0.00  0.00    +0.000 OA
ATOM     15  H   UNL     1      11.402  14.078  20.764  0.00  0.00    +0.000 HD
ENDBRANCH  11  14
ENDBRANCH   6   8
ENDBRANCH   3   5
ENDBRANCH   2   3
ENDBRANCH   1   2
BRANCH   1  16
ATOM     16  C   UNL     1       5.017   5.663  16.027  0.00  0.00    +0.000 C 
BRANCH  16  17
ATOM     17  C   UNL     1       5.236   4.281  16.637  0.00  0.00    +0.000 C 
BRANCH  17  18
ATOM     18  N   UNL     1       4.203   3.992  17.629  0.00  0.00    +0.000 N 
ATOM     19  C   UNL     1       2.903   3.504  17.370  0.00  0.00    +0.000 C 
ATOM     20  O   UNL     1       2.440   3.266  16.272  0.00  0.00    +0.000 OA
ATOM     21  C   UNL     1       2.197   3.314  18.652  0.00  0.00    +0.000 A 
ATOM     22  C   UNL     1       0.905   2.844  18.816  0.00  0.00    +0.000 A 
ATOM     23  C   UNL     1       0.408   2.729  20.119  0.00  0.00    +0.000 A 
ATOM     24  C   UNL     1       1.199   3.081  21.228  0.00  0.00    +0.000 A 
ATOM     25  C   UNL     1       2.503   3.552  21.054  0.00  0.00    +0.000 A 
ATOM     26  C   UNL     1       2.968   3.654  19.757  0.00  0.00    +0.000 A 
ATOM     27  S   UNL     1       4.544   4.201  19.263  0.00  0.00    +0.000 S 
ATOM     28  O   UNL     1       5.521   3.219  19.673  0.00  0.00    +0.000 OA
ATOM     29  O   UNL     1       4.656   5.609  19.556  0.00  0.00    +0.000 OA
ENDBRANCH  17  18
ENDBRANCH  16  17
ENDBRANCH   1  16
TORSDOF 8
ENDMDL
MODEL 2
REMARK VINA RESULT:      -8.1      1.855      2.641
REMARK  Name = 
REMARK  8 active torsions:
REMARK  status: ('A' for Active; 'I' for Inactive)
REMARK    1  A    between atoms: C_2  and  C_3
REMARK    2  A    between atoms: C_3  and  C_4
REMARK    3  A    between atoms: C_4  and  C_5
REMARK    4  A    between atoms: C_5  and  C_6
REMARK    5  A    between atoms: C_6  and  C_7
REMARK    6  A    between atoms: C_7  and  N_8
REMARK    7  A    between atoms: N_20  and  C_21
REMARK    8  A    between atoms: C_24  and  O_25
REMARK                            x       y       z     vdW  Elec       q    Type
REMARK                         _______ _______ _______ _____ _____    ______ ____
ROOT
ATOM      1  C   UNL     1       7.716   7.390  16.986  0.00  0.00    +0.000 C 
ENDROOT
BRANCH   1   2
ATOM      2  C   UNL     1       7.662   8.723  17.729  0.00  0.00    +0.000 C 
BRANCH   2   3
ATOM      3  C   UNL     1       8.710   8.786  18.844  0.00  0.00    +0.000 C 
BRANCH   3   5
ATOM      4  O   UNL     1       9.290  10.692  20.188  0.00  0.00    +0.000 OA
ATOM      5  C   UNL     1       9.209  10.204  19.065  0.00  0.00    +0.000 C 
ATOM      6  N   UNL     1       9.523  10.846  17.875  0.00  0.00    +0.000 N 
ATOM      7  H   UNL     1       9.215  10.403  17.017  0.00  0.00    +0.000 HD
BRANCH   6   8
ATOM      8  C   UNL     1      10.064  12.144  17.755  0.00  0.00    +0.000 A 
ATOM      9  C   UNL     1       9.304  13.305  17.927  0.00  0.00    +0.000 A 
ATOM     10  C   UNL     1       9.869  14.568  17.734  0.00  0.00    +0.000 A 
ATOM     11  C   UNL     1      11.206  14.670  17.377  0.00  0.00    +0.000 A 
ATOM     12  C   UNL     1      11.993  13.531  17.249  0.00  0.00    +0.000 A 
ATOM     13  C   UNL     1      11.425  12.268  17.449  0.00  0.00    +0.000 A 
BRANCH  11  14
ATOM     14  O   UNL     1      11.785  15.880  17.140  0.00  0.00    +0.000 OA
ATOM     15  H   UNL     1      11.867  15.996  16.178  0.00  0.00    +0.000 HD
ENDBRANCH  11  14
ENDBRANCH   6   8
ENDBRANCH   3   5
ENDBRANCH   2   3
ENDBRANCH   1   2
BRANCH   1  16
ATOM     16  C   UNL     1       6.810   6.344  17.639  0.00  0.00    +0.000 C 
BRANCH  16  17
ATOM     17  C   UNL     1       5.340   6.669  17.389  0.00  0.00    +0.000 C 
BRANCH  17  18
ATOM     18  N   UNL     1       4.482   5.797  18.188  0.00  0.00    +0.000 N 
ATOM     19  C   UNL     1       3.265   6.157  18.809  0.00  0.00    +0.000 C 
ATOM     20  O   UNL     1       2.754   7.259  18.786  0.00  0.00    +0.000 OA
ATOM     21  C   UNL     1       2.702   4.970  19.483  0.00  0.00    +0.000 A 
ATOM     22  C   UNL     1       1.515   4.917  20.196  0.00  0.00    +0.000 A 
ATOM     23  C   UNL     1       1.144   3.693  20.763  0.00  0.00    +0.000 A 
ATOM     24  C   UNL     1       1.954   2.551  20.613  0.00  0.00    +0.000 A 
ATOM     25  C   UNL     1       3.147   2.614  19.890  0.00  0.00    +0.000 A 
ATOM     26  C   UNL     1       3.489   3.835  19.340  0.00  0.00    +0.000 A 
ATOM     27  S   UNL     1       4.906   4.183  18.395  0.00  0.00    +0.000 S 
ATOM     28  O   UNL     1       4.794   3.498  17.128  0.00  0.00    +0.000 OA
ATOM     29  O   UNL     1       6.064   4.094  19.250  0.00  0.00    +0.000 OA
ENDBRANCH  17  18
ENDBRANCH  16  17
ENDBRANCH   1  16
TORSDOF 8
ENDMDL
MODEL 3
REMARK VINA RESULT:      -8.0      0.720      1.295
REMARK  Name = 
REMARK  8 active torsions:
REMARK  status: ('A' for Active; 'I' for Inactive)
REMARK    1  A    between atoms: C_2  and  C_3
REMARK    2  A    between atoms: C_3  and  C_4
REMARK    3  A    between atoms: C_4  and  C_5
REMARK    4  A    between atoms: C_5  and  C_6
REMARK    5  A    between atoms: C_6  and  C_7
REMARK    6  A    between atoms: C_7  and  N_8
REMARK    7  A    between atoms: N_20  and  C_21
REMARK    8  A    between atoms: C_24  and  O_25
REMARK                            x       y       z     vdW  Elec       q    Type
REMARK                         _______ _______ _______ _____ _____    ______ ____
ROOT
ATOM      1  C   UNL     1       7.320   5.008  16.388  0.00  0.00    +0.000 C 
ENDROOT
BRANCH   1   2
ATOM      2  C   UNL     1       7.018   6.464  16.737  0.00  0.00    +0.000 C 
BRANCH   2   3
ATOM      3  C   UNL     1       7.805   6.919  17.969  0.00  0.00    +0.000 C 
BRANCH   3   5
ATOM      4  O   UNL     1       7.285   9.166  17.293  0.00  0.00    +0.000 OA
ATOM      5  C   UNL     1       7.958   8.431  18.009  0.00  0.00    +0.000 C 
ATOM      6  N   UNL     1       8.933   8.841  18.907  0.00  0.00    +0.000 N 
ATOM      7  H   UNL     1       9.549   8.126  19.278  0.00  0.00    +0.000 HD
BRANCH   6   8
ATOM      8  C   UNL     1       9.265  10.179  19.212  0.00  0.00    +0.000 A 
ATOM      9  C   UNL     1       9.255  10.688  20.515  0.00  0.00    +0.000 A 
ATOM     10  C   UNL     1       9.529  12.036  20.759  0.00  0.00    +0.000 A 
ATOM     11  C   UNL     1       9.825  12.876  19.696  0.00  0.00    +0.000 A 
ATOM     12  C   UNL     1       9.889  12.381  18.399  0.00  0.00    +0.000 A 
ATOM     13  C   UNL     1       9.620  11.029  18.157  0.00  0.00    +0.000 A 
BRANCH  11  14
ATOM     14  O   UNL     1      10.058  14.205  19.887  0.00  0.00    +0.000 OA
ATOM     15  H   UNL     1      10.262  14.347  20.828  0.00  0.00    +0.000 HD
ENDBRANCH  11  14
ENDBRANCH   6   8
ENDBRANCH   3   5
ENDBRANCH   2   3
ENDBRANCH   1   2
BRANCH   1  16
ATOM     16  C   UNL     1       6.041   4.174  16.297  0.00  0.00    +0.000 C 
BRANCH  16  17
ATOM     17  C   UNL     1       4.805   5.065  16.393  0.00  0.00    +0.000 C 
BRANCH  17  18
ATOM     18  N   UNL     1       3.959   4.647  17.508  0.00  0.00    +0.000 N 
ATOM     19  C   UNL     1       2.958   3.652  17.476  0.00  0.00    +0.000 C 
ATOM     20  O   UNL     1       2.636   3.000  16.502  0.00  0.00    +0.000 OA
ATOM     21  C   UNL     1       2.371   3.518  18.824  0.00  0.00    +0.000 A 
ATOM     22  C   UNL     1       1.366   2.641  19.198  0.00  0.00    +0.000 A 
ATOM     23  C   UNL     1       0.941   2.659  20.531  0.00  0.00    +0.000 A 
ATOM     24  C   UNL     1       1.520   3.542  21.462  0.00  0.00    +0.000 A 
ATOM     25  C   UNL     1       2.536   4.420  21.077  0.00  0.00    +0.000 A 
ATOM     26  C   UNL     1       2.936   4.380  19.754  0.00  0.00    +0.000 A 
ATOM     27  S   UNL     1       4.174   5.354  19.019  0.00  0.00    +0.000 S 
ATOM     28  O   UNL     1       5.455   4.951  19.553  0.00  0.00    +0.000 OA
ATOM     29  O   UNL     1       3.722   6.723  18.980  0.00  0.00    +0.000 OA
ENDBRANCH  17  18
ENDBRANCH  16  17
ENDBRANCH   1  16
TORSDOF 8
ENDMDL
MODEL 4
REMARK VINA RESULT:      -8.0      2.859     10.308
REMARK  Name = 
REMARK  8 active torsions:
REMARK  status: ('A' for Active; 'I' for Inactive)
REMARK    1  A    between atoms: C_2  and  C_3
REMARK    2  A    between atoms: C_3  and  C_4
REMARK    3  A    between atoms: C_4  and  C_5
REMARK    4  A    between atoms: C_5  and  C_6
REMARK    5  A    between atoms: C_6  and  C_7
REMARK    6  A    between atoms: C_7  and  N_8
REMARK    7  A    between atoms: N_20  and  C_21
REMARK    8  A    between atoms: C_24  and  O_25
REMARK                            x       y       z     vdW  Elec       q    Type
REMARK                         _______ _______ _______ _____ _____    ______ ____
ROOT
ATOM      1  C   UNL     1       7.737   8.447  17.533  0.00  0.00    +0.000 C 
ENDROOT
BRANCH   1   2
ATOM      2  C   UNL     1       8.188   7.373  18.521  0.00  0.00    +0.000 C 
BRANCH   2   3
ATOM      3  C   UNL     1       7.703   5.984  18.099  0.00  0.00    +0.000 C 
BRANCH   3   5
ATOM      4  O   UNL     1       6.892   5.245  20.237  0.00  0.00    +0.000 OA
ATOM      5  C   UNL     1       6.648   5.445  19.052  0.00  0.00    +0.000 C 
ATOM      6  N   UNL     1       5.439   5.200  18.418  0.00  0.00    +0.000 N 
ATOM      7  H   UNL     1       5.438   5.213  17.404  0.00  0.00    +0.000 HD
BRANCH   6   8
ATOM      8  C   UNL     1       4.254   4.753  19.043  0.00  0.00    +0.000 A 
ATOM      9  C   UNL     1       3.397   5.605  19.748  0.00  0.00    +0.000 A 
ATOM     10  C   UNL     1       2.271   5.104  20.405  0.00  0.00    +0.000 A 
ATOM     11  C   UNL     1       1.994   3.746  20.347  0.00  0.00    +0.000 A 
ATOM     12  C   UNL     1       2.804   2.890  19.612  0.00  0.00    +0.000 A 
ATOM     13  C   UNL     1       3.928   3.394  18.950  0.00  0.00    +0.000 A 
BRANCH  11  14
ATOM     14  O   UNL     1       0.927   3.212  21.007  0.00  0.00    +0.000 OA
ATOM     15  H   UNL     1       0.857   2.273  20.765  0.00  0.00    +0.000 HD
ENDBRANCH  11  14
ENDBRANCH   6   8
ENDBRANCH   3   5
ENDBRANCH   2   3
ENDBRANCH   1   2
BRANCH   1  16
ATOM     16  C   UNL     1       8.138   9.848  18.002  0.00  0.00    +0.000 C 
BRANCH  16  17
ATOM     17  C   UNL     1       9.149   9.768  19.143  0.00  0.00    +0.000 C 
BRANCH  17  18
ATOM     18  N   UNL     1       9.555  11.108  19.559  0.00  0.00    +0.000 N 
ATOM     19  C   UNL     1       9.237  11.740  20.782  0.00  0.00    +0.000 C 
ATOM     20  O   UNL     1       8.558  11.265  21.671  0.00  0.00    +0.000 OA
ATOM     21  C   UNL     1       9.875  13.071  20.815  0.00  0.00    +0.000 A 
ATOM     22  C   UNL     1       9.805  13.989  21.849  0.00  0.00    +0.000 A 
ATOM     23  C   UNL     1      10.485  15.203  21.697  0.00  0.00    +0.000 A 
ATOM     24  C   UNL     1      11.217  15.480  20.527  0.00  0.00    +0.000 A 
ATOM     25  C   UNL     1      11.285  14.546  19.490  0.00  0.00    +0.000 A 
ATOM     26  C   UNL     1      10.606  13.355  19.668  0.00  0.00    +0.000 A 
ATOM     27  S   UNL     1      10.531  12.029  18.546  0.00  0.00    +0.000 S 
ATOM     28  O   UNL     1      11.839  11.420  18.466  0.00  0.00    +0.000 OA
ATOM     29  O   UNL     1       9.773  12.444  17.391  0.00  0.00    +0.000 OA
ENDBRANCH  17  18
ENDBRANCH  16  17
ENDBRANCH   1  16
TORSDOF 8
ENDMDL
MODEL 5
REMARK VINA RESULT:      -7.9      2.323      3.512
REMARK  Name = 
REMARK  8 active torsions:
REMARK  status: ('A' for Active; 'I' for Inactive)
REMARK    1  A    between atoms: C_2  and  C_3
REMARK    2  A    between atoms: C_3  and  C_4
REMARK    3  A    between atoms: C_4  and  C_5
REMARK    4  A    between atoms: C_5  and  C_6
REMARK    5  A    between atoms: C_6  and  C_7
REMARK    6  A    between atoms: C_7  and  N_8
REMARK    7  A    between atoms: N_20  and  C_21
REMARK    8  A    between atoms: C_24  and  O_25
REMARK                            x       y       z     vdW  Elec       q    Type
REMARK                         _______ _______ _______ _____ _____    ______ ____
ROOT
ATOM      1  C   UNL     1       8.319   8.469  17.471  0.00  0.00    +0.000 C 
ENDROOT
BRANCH   1   2
ATOM      2  C   UNL     1       8.191   9.813  18.185  0.00  0.00    +0.000 C 
BRANCH   2   3
ATOM      3  C   UNL     1       9.269   9.982  19.258  0.00  0.00    +0.000 C 
BRANCH   3   5
ATOM      4  O   UNL     1      10.935  11.619  19.826  0.00  0.00    +0.000 OA
ATOM      5  C   UNL     1       9.924  11.352  19.185  0.00  0.00    +0.000 C 
ATOM      6  N   UNL     1       9.237  12.222  18.350  0.00  0.00    +0.000 N 
ATOM      7  H   UNL     1       8.312  11.939  18.049  0.00  0.00    +0.000 HD
BRANCH   6   8
ATOM      8  C   UNL     1       9.627  13.541  18.032  0.00  0.00    +0.000 A 
ATOM      9  C   UNL     1       8.931  14.670  18.477  0.00  0.00    +0.000 A 
ATOM     10  C   UNL     1       9.317  15.953  18.082  0.00  0.00    +0.000 A 
ATOM     11  C   UNL     1      10.413  16.108  17.246  0.00  0.00    +0.000 A 
ATOM     12  C   UNL     1      11.149  15.005  16.831  0.00  0.00    +0.000 A 
ATOM     13  C   UNL     1      10.763  13.721  17.233  0.00  0.00    +0.000 A 
BRANCH  11  14
ATOM     14  O   UNL     1      10.798  17.339  16.805  0.00  0.00    +0.000 OA
ATOM     15  H   UNL     1       9.998  17.859  16.616  0.00  0.00    +0.000 HD
ENDBRANCH  11  14
ENDBRANCH   6   8
ENDBRANCH   3   5
ENDBRANCH   2   3
ENDBRANCH   1   2
BRANCH   1  16
ATOM     16  C   UNL     1       7.219   7.496  17.901  0.00  0.00    +0.000 C 
BRANCH  16  17
ATOM     17  C   UNL     1       6.556   6.856  16.684  0.00  0.00    +0.000 C 
BRANCH  17  18
ATOM     18  N   UNL     1       5.484   5.955  17.101  0.00  0.00    +0.000 N 
ATOM     19  C   UNL     1       4.139   6.309  17.349  0.00  0.00    +0.000 C 
ATOM     20  O   UNL     1       3.672   7.428  17.268  0.00  0.00    +0.000 OA
ATOM     21  C   UNL     1       3.383   5.094  17.712  0.00  0.00    +0.000 A 
ATOM     22  C   UNL     1       2.034   5.028  18.018  0.00  0.00    +0.000 A 
ATOM     23  C   UNL     1       1.493   3.777  18.335  0.00  0.00    +0.000 A 
ATOM     24  C   UNL     1       2.297   2.622  18.341  0.00  0.00    +0.000 A 
ATOM     25  C   UNL     1       3.656   2.697  18.026  0.00  0.00    +0.000 A 
ATOM     26  C   UNL     1       4.163   3.945  17.717  0.00  0.00    +0.000 A 
ATOM     27  S   UNL     1       5.807   4.315  17.286  0.00  0.00    +0.000 S 
ATOM     28  O   UNL     1       6.084   3.738  15.991  0.00  0.00    +0.000 OA
ATOM     29  O   UNL     1       6.643   4.115  18.444  0.00  0.00    +0.000 OA
ENDBRANCH  17  18
ENDBRANCH  16  17
ENDBRANCH   1  16
TORSDOF 8
ENDMDL
MODEL 6
REMARK VINA RESULT:      -7.8      2.958     10.104
REMARK  Name = 
REMARK  8 active torsions:
REMARK  status: ('A' for Active; 'I' for Inactive)
REMARK    1  A    between atoms: C_2  and  C_3
REMARK    2  A    between atoms: C_3  and  C_4
REMARK    3  A    between atoms: C_4  and  C_5
REMARK    4  A    between atoms: C_5  and  C_6
REMARK    5  A    between atoms: C_6  and  C_7
REMARK    6  A    between atoms: C_7  and  N_8
REMARK    7  A    between atoms: N_20  and  C_21
REMARK    8  A    between atoms: C_24  and  O_25
REMARK                            x       y       z     vdW  Elec       q    Type
REMARK                         _______ _______ _______ _____ _____    ______ ____
ROOT
ATOM      1  C   UNL     1       8.341   8.356  18.290  0.00  0.00    +0.000 C 
ENDROOT
BRANCH   1   2
ATOM      2  C   UNL     1       7.317   7.541  17.503  0.00  0.00    +0.000 C 
BRANCH   2   3
ATOM      3  C   UNL     1       7.525   6.037  17.702  0.00  0.00    +0.000 C 
BRANCH   3   5
ATOM      4  O   UNL     1       6.975   5.432  19.962  0.00  0.00    +0.000 OA
ATOM      5  C   UNL     1       6.618   5.485  18.789  0.00  0.00    +0.000 C 
ATOM      6  N   UNL     1       5.399   5.047  18.290  0.00  0.00    +0.000 N 
ATOM      7  H   UNL     1       5.318   4.959  17.283  0.00  0.00    +0.000 HD
BRANCH   6   8
ATOM      8  C   UNL     1       4.327   4.539  19.055  0.00  0.00    +0.000 A 
ATOM      9  C   UNL     1       4.102   3.170  19.235  0.00  0.00    +0.000 A 
ATOM     10  C   UNL     1       2.990   2.715  19.948  0.00  0.00    +0.000 A 
ATOM     11  C   UNL     1       2.105   3.634  20.493  0.00  0.00    +0.000 A 
ATOM     12  C   UNL     1       2.336   4.998  20.368  0.00  0.00    +0.000 A 
ATOM     13  C   UNL     1       3.454   5.452  19.659  0.00  0.00    +0.000 A 
BRANCH  11  14
ATOM     14  O   UNL     1       0.987   3.230  21.160  0.00  0.00    +0.000 OA
ATOM     15  H   UNL     1       1.154   2.346  21.528  0.00  0.00    +0.000 HD
ENDBRANCH  11  14
ENDBRANCH   6   8
ENDBRANCH   3   5
ENDBRANCH   2   3
ENDBRANCH   1   2
BRANCH   1  16
ATOM     16  C   UNL     1       8.153   9.859  18.072  0.00  0.00    +0.000 C 
BRANCH  16  17
ATOM     17  C   UNL     1       9.494  10.586  18.133  0.00  0.00    +0.000 C 
BRANCH  17  18
ATOM     18  N   UNL     1       9.375  11.811  18.920  0.00  0.00    +0.000 N 
ATOM     19  C   UNL     1       8.745  13.010  18.518  0.00  0.00    +0.000 C 
ATOM     20  O   UNL     1       8.218  13.209  17.441  0.00  0.00    +0.000 OA
ATOM     21  C   UNL     1       8.816  13.984  19.625  0.00  0.00    +0.000 A 
ATOM     22  C   UNL     1       8.304  15.271  19.620  0.00  0.00    +0.000 A 
ATOM     23  C   UNL     1       8.467  16.047  20.773  0.00  0.00    +0.000 A 
ATOM     24  C   UNL     1       9.131  15.533  21.903  0.00  0.00    +0.000 A 
ATOM     25  C   UNL     1       9.641  14.232  21.900  0.00  0.00    +0.000 A 
ATOM     26  C   UNL     1       9.465  13.488  20.749  0.00  0.00    +0.000 A 
ATOM     27  S   UNL     1       9.992  11.852  20.484  0.00  0.00    +0.000 S 
ATOM     28  O   UNL     1       9.210  10.975  21.325  0.00  0.00    +0.000 OA
ATOM     29  O   UNL     1      11.433  11.835  20.435  0.00  0.00    +0.000 OA
ENDBRANCH  17  18
ENDBRANCH  16  17
ENDBRANCH   1  16
TORSDOF 8
ENDMDL
MODEL 7
REMARK VINA RESULT:      -7.8      3.528      7.126
REMARK  Name = 
REMARK  8 active torsions:
REMARK  status: ('A' for Active; 'I' for Inactive)
REMARK    1  A    between atoms: C_2  and  C_3
REMARK    2  A    between atoms: C_3  and  C_4
REMARK    3  A    between atoms: C_4  and  C_5
REMARK    4  A    between atoms: C_5  and  C_6
REMARK    5  A    between atoms: C_6  and  C_7
REMARK    6  A    between atoms: C_7  and  N_8
REMARK    7  A    between atoms: N_20  and  C_21
REMARK    8  A    between atoms: C_24  and  O_25
REMARK                            x       y       z     vdW  Elec       q    Type
REMARK                         _______ _______ _______ _____ _____    ______ ____
ROOT
ATOM      1  C   UNL     1       3.056   2.507  18.463  0.00  0.00    +0.000 C 
ENDROOT
BRANCH   1   2
ATOM      2  C   UNL     1       2.388   2.819  19.801  0.00  0.00    +0.000 C 
BRANCH   2   3
ATOM      3  C   UNL     1       2.966   4.088  20.433  0.00  0.00    +0.000 C 
BRANCH   3   5
ATOM      4  O   UNL     1       0.784   5.085  20.584  0.00  0.00    +0.000 OA
ATOM      5  C   UNL     1       1.982   5.244  20.369  0.00  0.00    +0.000 C 
ATOM      6  N   UNL     1       2.594   6.441  20.025  0.00  0.00    +0.000 N 
ATOM      7  H   UNL     1       3.545   6.390  19.676  0.00  0.00    +0.000 HD
BRANCH   6   8
ATOM      8  C   UNL     1       1.960   7.700  19.942  0.00  0.00    +0.000 A 
ATOM      9  C   UNL     1       1.319   8.303  21.029  0.00  0.00    +0.000 A 
ATOM     10  C   UNL     1       0.649   9.520  20.881  0.00  0.00    +0.000 A 
ATOM     11  C   UNL     1       0.628  10.141  19.641  0.00  0.00    +0.000 A 
ATOM     12  C   UNL     1       1.299   9.584  18.559  0.00  0.00    +0.000 A 
ATOM     13  C   UNL     1       1.975   8.368  18.711  0.00  0.00    +0.000 A 
BRANCH  11  14
ATOM     14  O   UNL     1      -0.048  11.308  19.445  0.00  0.00    +0.000 OA
ATOM     15  H   UNL     1      -1.001  11.116  19.468  0.00  0.00    +0.000 HD
ENDBRANCH  11  14
ENDBRANCH   6   8
ENDBRANCH   3   5
ENDBRANCH   2   3
ENDBRANCH   1   2
BRANCH   1  16
ATOM     16  C   UNL     1       2.944   3.682  17.490  0.00  0.00    +0.000 C 
BRANCH  16  17
ATOM     17  C   UNL     1       4.153   3.730  16.558  0.00  0.00    +0.000 C 
BRANCH  17  18
ATOM     18  N   UNL     1       5.120   4.719  17.029  0.00  0.00    +0.000 N 
ATOM     19  C   UNL     1       6.010   4.572  18.116  0.00  0.00    +0.000 C 
ATOM     20  O   UNL     1       6.094   3.599  18.839  0.00  0.00    +0.000 OA
ATOM     21  C   UNL     1       6.838   5.790  18.226  0.00  0.00    +0.000 A 
ATOM     22  C   UNL     1       7.831   6.024  19.162  0.00  0.00    +0.000 A 
ATOM     23  C   UNL     1       8.513   7.245  19.104  0.00  0.00    +0.000 A 
ATOM     24  C   UNL     1       8.197   8.204  18.123  0.00  0.00    +0.000 A 
ATOM     25  C   UNL     1       7.195   7.957  17.181  0.00  0.00    +0.000 A 
ATOM     26  C   UNL     1       6.539   6.743  17.261  0.00  0.00    +0.000 A 
ATOM     27  S   UNL     1       5.267   6.184  16.216  0.00  0.00    +0.000 S 
ATOM     28  O   UNL     1       5.821   5.944  14.904  0.00  0.00    +0.000 OA
ATOM     29  O   UNL     1       4.092   6.987  16.451  0.00  0.00    +0.000 OA
ENDBRANCH  17  18
ENDBRANCH  16  17
ENDBRANCH   1  16
TORSDOF 8
ENDMDL
MODEL 8
REMARK VINA RESULT:      -7.8      4.421      7.295
REMARK  Name = 
REMARK  8 active torsions:
REMARK  status: ('A' for Active; 'I' for Inactive)
REMARK    1  A    between atoms: C_2  and  C_3
REMARK    2  A    between atoms: C_3  and  C_4
REMARK    3  A    between atoms: C_4  and  C_5
REMARK    4  A    between atoms: C_5  and  C_6
REMARK    5  A    between atoms: C_6  and  C_7
REMARK    6  A    between atoms: C_7  and  N_8
REMARK    7  A    between atoms: N_20  and  C_21
REMARK    8  A    between atoms: C_24  and  O_25
REMARK                            x       y       z     vdW  Elec       q    Type
REMARK                         _______ _______ _______ _____ _____    ______ ____
ROOT
ATOM      1  C   UNL     1       1.885   4.479  18.055  0.00  0.00    +0.000 C 
ENDROOT
BRANCH   1   2
ATOM      2  C   UNL     1       1.772   5.024  19.477  0.00  0.00    +0.000 C 
BRANCH   2   3
ATOM      3  C   UNL     1       2.763   6.166  19.721  0.00  0.00    +0.000 C 
BRANCH   3   5
ATOM      4  O   UNL     1       1.937   8.228  18.804  0.00  0.00    +0.000 OA
ATOM      5  C   UNL     1       2.060   7.511  19.793  0.00  0.00    +0.000 C 
ATOM      6  N   UNL     1       1.620   7.811  21.074  0.00  0.00    +0.000 N 
ATOM      7  H   UNL     1       1.968   7.230  21.829  0.00  0.00    +0.000 HD
BRANCH   6   8
ATOM      8  C   UNL     1       0.885   8.957  21.448  0.00  0.00    +0.000 A 
ATOM      9  C   UNL     1       0.866  10.131  20.688  0.00  0.00    +0.000 A 
ATOM     10  C   UNL     1       0.176  11.261  21.132  0.00  0.00    +0.000 A 
ATOM     11  C   UNL     1      -0.508  11.213  22.338  0.00  0.00    +0.000 A 
ATOM     12  C   UNL     1      -0.543  10.042  23.085  0.00  0.00    +0.000 A 
ATOM     13  C   UNL     1       0.144   8.910  22.635  0.00  0.00    +0.000 A 
BRANCH  11  14
ATOM     14  O   UNL     1      -1.160  12.306  22.826  0.00  0.00    +0.000 OA
ATOM     15  H   UNL     1      -2.116  12.171  22.704  0.00  0.00    +0.000 HD
ENDBRANCH  11  14
ENDBRANCH   6   8
ENDBRANCH   3   5
ENDBRANCH   2   3
ENDBRANCH   1   2
BRANCH   1  16
ATOM     16  C   UNL     1       2.993   3.431  17.939  0.00  0.00    +0.000 C 
BRANCH  16  17
ATOM     17  C   UNL     1       3.932   3.760  16.781  0.00  0.00    +0.000 C 
BRANCH  17  18
ATOM     18  N   UNL     1       4.953   4.714  17.207  0.00  0.00    +0.000 N 
ATOM     19  C   UNL     1       5.834   4.567  18.301  0.00  0.00    +0.000 C 
ATOM     20  O   UNL     1       5.864   3.626  19.068  0.00  0.00    +0.000 OA
ATOM     21  C   UNL     1       6.729   5.740  18.356  0.00  0.00    +0.000 A 
ATOM     22  C   UNL     1       7.735   5.962  19.282  0.00  0.00    +0.000 A 
ATOM     23  C   UNL     1       8.484   7.138  19.168  0.00  0.00    +0.000 A 
ATOM     24  C   UNL     1       8.222   8.067  18.144  0.00  0.00    +0.000 A 
ATOM     25  C   UNL     1       7.207   7.833  17.213  0.00  0.00    +0.000 A 
ATOM     26  C   UNL     1       6.484   6.663  17.347  0.00  0.00    +0.000 A 
ATOM     27  S   UNL     1       5.181   6.129  16.327  0.00  0.00    +0.000 S 
ATOM     28  O   UNL     1       5.720   5.798  15.028  0.00  0.00    +0.000 OA
ATOM     29  O   UNL     1       4.053   7.006  16.523  0.00  0.00    +0.000 OA
ENDBRANCH  17  18
ENDBRANCH  16  17
ENDBRANCH   1  16
TORSDOF 8
ENDMDL
MODEL 9
REMARK VINA RESULT:      -7.7      5.124      7.261
REMARK  Name = 
REMARK  8 active torsions:
REMARK  status: ('A' for Active; 'I' for Inactive)
REMARK    1  A    between atoms: C_2  and  C_3
REMARK    2  A    between atoms: C_3  and  C_4
REMARK    3  A    between atoms: C_4  and  C_5
REMARK    4  A    between atoms: C_5  and  C_6
REMARK    5  A    between atoms: C_6  and  C_7
REMARK    6  A    between atoms: C_7  and  N_8
REMARK    7  A    between atoms: N_20  and  C_21
REMARK    8  A    between atoms: C_24  and  O_25
REMARK                            x       y       z     vdW  Elec       q    Type
REMARK                         _______ _______ _______ _____ _____    ______ ____
ROOT
ATOM      1  C   UNL     1       1.831   5.623  19.706  0.00  0.00    +0.000 C 
ENDROOT
BRANCH   1   2
ATOM      2  C   UNL     1       2.398   7.041  19.661  0.00  0.00    +0.000 C 
BRANCH   2   3
ATOM      3  C   UNL     1       2.409   7.596  18.234  0.00  0.00    +0.000 C 
BRANCH   3   5
ATOM      4  O   UNL     1       2.212   9.826  17.362  0.00  0.00    +0.000 OA
ATOM      5  C   UNL     1       1.817   8.994  18.172  0.00  0.00    +0.000 C 
ATOM      6  N   UNL     1       0.833   9.195  19.129  0.00  0.00    +0.000 N 
ATOM      7  H   UNL     1       0.752   8.499  19.861  0.00  0.00    +0.000 HD
BRANCH   6   8
ATOM      8  C   UNL     1       0.059  10.366  19.285  0.00  0.00    +0.000 A 
ATOM      9  C   UNL     1      -1.092  10.624  18.533  0.00  0.00    +0.000 A 
ATOM     10  C   UNL     1      -1.788  11.827  18.678  0.00  0.00    +0.000 A 
ATOM     11  C   UNL     1      -1.336  12.772  19.588  0.00  0.00    +0.000 A 
ATOM     12  C   UNL     1      -0.224  12.516  20.380  0.00  0.00    +0.000 A 
ATOM     13  C   UNL     1       0.468  11.308  20.238  0.00  0.00    +0.000 A 
BRANCH  11  14
ATOM     14  O   UNL     1      -1.963  13.973  19.730  0.00  0.00    +0.000 OA
ATOM     15  H   UNL     1      -1.283  14.667  19.789  0.00  0.00    +0.000 HD
ENDBRANCH  11  14
ENDBRANCH   6   8
ENDBRANCH   3   5
ENDBRANCH   2   3
ENDBRANCH   1   2
BRANCH   1  16
ATOM     16  C   UNL     1       2.500   4.784  20.796  0.00  0.00    +0.000 C 
BRANCH  16  17
ATOM     17  C   UNL     1       3.090   3.504  20.209  0.00  0.00    +0.000 C 
BRANCH  17  18
ATOM     18  N   UNL     1       3.879   3.807  19.017  0.00  0.00    +0.000 N 
ATOM     19  C   UNL     1       5.013   4.647  18.951  0.00  0.00    +0.000 C 
ATOM     20  O   UNL     1       5.497   5.261  19.881  0.00  0.00    +0.000 OA
ATOM     21  C   UNL     1       5.530   4.649  17.568  0.00  0.00    +0.000 A 
ATOM     22  C   UNL     1       6.634   5.344  17.106  0.00  0.00    +0.000 A 
ATOM     23  C   UNL     1       6.972   5.216  15.754  0.00  0.00    +0.000 A 
ATOM     24  C   UNL     1       6.211   4.404  14.892  0.00  0.00    +0.000 A 
ATOM     25  C   UNL     1       5.100   3.704  15.368  0.00  0.00    +0.000 A 
ATOM     26  C   UNL     1       4.790   3.848  16.707  0.00  0.00    +0.000 A 
ATOM     27  S   UNL     1       3.474   3.088  17.552  0.00  0.00    +0.000 S 
ATOM     28  O   UNL     1       3.736   1.669  17.632  0.00  0.00    +0.000 OA
ATOM     29  O   UNL     1       2.234   3.643  17.068  0.00  0.00    +0.000 OA
ENDBRANCH  17  18
ENDBRANCH  16  17
ENDBRANCH   1  16
TORSDOF 8
ENDMDL
