MODEL 1
REMARK VINA RESULT:      -9.1      0.000      0.000
REMARK  Name = 
REMARK  4 active torsions:
REMARK  status: ('A' for Active; 'I' for Inactive)
REMARK    1  A    between atoms: C_1  and  C_2
REMARK    2  A    between atoms: C_5  and  C_6
REMARK    3  A    between atoms: C_13  and  C_14
REMARK    4  A    between atoms: N_16  and  C_17
REMARK                            x       y       z     vdW  Elec       q    Type
REMARK                         _______ _______ _______ _____ _____    ______ ____
ROOT
ATOM      1  C   UNL     1       1.778   2.516  21.301  0.00  0.00    +0.000 C 
ATOM      2  C   UNL     1       2.982   2.976  20.584  0.00  0.00    +0.000 A 
ATOM      3  O   UNL     1       4.058   2.156  20.675  0.00  0.00    +0.000 OA
ATOM      4  N   UNL     1       5.111   2.686  19.974  0.00  0.00    +0.000 NA
ATOM      5  C   UNL     1       4.674   3.823  19.408  0.00  0.00    +0.000 A 
ATOM      6  C   UNL     1       3.303   4.054  19.786  0.00  0.00    +0.000 A 
ENDROOT
BRANCH   5   7
ATOM      7  C   UNL     1       5.588   4.684  18.637  0.00  0.00    +0.000 A 
ATOM      8  C   UNL     1       6.593   5.393  19.326  0.00  0.00    +0.000 A 
ATOM      9  C   UNL     1       7.523   6.190  18.651  0.00  0.00    +0.000 A 
ATOM     10  C   UNL     1       7.490   6.273  17.266  0.00  0.00    +0.000 A 
ATOM     11  C   UNL     1       6.510   5.580  16.560  0.00  0.00    +0.000 A 
ATOM     12  C   UNL     1       5.554   4.802  17.234  0.00  0.00    +0.000 A 
ATOM     13 CL   UNL     1       4.344   4.061  16.239  0.00  0.00    +0.000 Cl
ENDBRANCH   5   7
BRANCH   6  14
ATOM     14  C   UNL     1       2.444   5.139  19.356  0.00  0.00    +0.000 C 
ATOM     15  O   UNL     1       1.580   4.921  18.514  0.00  0.00    +0.000 OA
ATOM     16  N   UNL     1       2.746   6.388  19.887  0.00  0.00    +0.000 N 
ATOM     17  H   UNL     1       3.577   6.457  20.467  0.00  0.00    +0.000 HD
BRANCH  16  18
ATOM     18  C   UNL     1       2.139   7.616  19.501  0.00  0.00    +0.000 A 
ATOM     19  C   UNL     1       2.312   8.185  18.221  0.00  0.00    +0.000 A 
ATOM     20  C   UNL     1       1.778   9.436  17.896  0.00  0.00    +0.000 A 
ATOM     21  C   UNL     1       1.067  10.098  18.866  0.00  0.00    +0.000 A 
ATOM     22  C   UNL     1       0.859   9.544  20.106  0.00  0.00    +0.000 A 
ATOM     23  C   UNL     1       1.368   8.302  20.451  0.00  0.00    +0.000 A 
ATOM     24  O   UNL     1       0.135  10.365  20.915  0.00  0.00    +0.000 OA
ATOM     25  C   UNL     1      -0.026  11.520  20.061  0.00  0.00    +0.000 C 
ATOM     26  O   UNL     1       0.511  11.329  18.737  0.00  0.00    +0.000 OA
ENDBRANCH  16  18
ENDBRANCH   6  14
TORSDOF 3
ENDMDL
MODEL 2
REMARK VINA RESULT:      -9.1      1.111      1.547
REMARK  Name = 
REMARK  4 active torsions:
REMARK  status: ('A' for Active; 'I' for Inactive)
REMARK    1  A    between atoms: C_1  and  C_2
REMARK    2  A    between atoms: C_5  and  C_6
REMARK    3  A    between atoms: C_13  and  C_14
REMARK    4  A    between atoms: N_16  and  C_17
REMARK                            x       y       z     vdW  Elec       q    Type
REMARK                         _______ _______ _______ _____ _____    ______ ____
ROOT
ATOM      1  C   UNL     1       2.007   3.192  21.674  0.00  0.00    +0.000 C 
ATOM      2  C   UNL     1       3.049   3.302  20.636  0.00  0.00    +0.000 A 
ATOM      3  O   UNL     1       4.008   2.343  20.674  0.00  0.00    +0.000 OA
ATOM      4  N   UNL     1       4.917   2.550  19.668  0.00  0.00    +0.000 NA
ATOM      5  C   UNL     1       4.498   3.620  18.974  0.00  0.00    +0.000 A 
ATOM      6  C   UNL     1       3.297   4.145  19.573  0.00  0.00    +0.000 A 
ENDROOT
BRANCH   5   7
ATOM      7  C   UNL     1       5.297   4.157  17.858  0.00  0.00    +0.000 A 
ATOM      8  C   UNL     1       4.937   3.812  16.539  0.00  0.00    +0.000 A 
ATOM      9  C   UNL     1       5.621   4.324  15.433  0.00  0.00    +0.000 A 
ATOM     10  C   UNL     1       6.665   5.220  15.617  0.00  0.00    +0.000 A 
ATOM     11  C   UNL     1       7.040   5.581  16.909  0.00  0.00    +0.000 A 
ATOM     12  C   UNL     1       6.376   5.046  18.026  0.00  0.00    +0.000 A 
ATOM     13 CL   UNL     1       6.999   5.517  19.573  0.00  0.00    +0.000 Cl
ENDBRANCH   5   7
BRANCH   6  14
ATOM     14  C   UNL     1       2.499   5.261  19.108  0.00  0.00    +0.000 C 
ATOM     15  O   UNL     1       1.809   5.126  18.103  0.00  0.00    +0.000 OA
ATOM     16  N   UNL     1       2.662   6.449  19.812  0.00  0.00    +0.000 N 
ATOM     17  H   UNL     1       3.372   6.464  20.539  0.00  0.00    +0.000 HD
BRANCH  16  18
ATOM     18  C   UNL     1       2.099   7.705  19.451  0.00  0.00    +0.000 A 
ATOM     19  C   UNL     1       2.292   8.292  18.183  0.00  0.00    +0.000 A 
ATOM     20  C   UNL     1       1.803   9.568  17.883  0.00  0.00    +0.000 A 
ATOM     21  C   UNL     1       1.116  10.235  18.866  0.00  0.00    +0.000 A 
ATOM     22  C   UNL     1       0.887   9.665  20.095  0.00  0.00    +0.000 A 
ATOM     23  C   UNL     1       1.353   8.399  20.415  0.00  0.00    +0.000 A 
ATOM     24  O   UNL     1       0.193  10.495  20.921  0.00  0.00    +0.000 OA
ATOM     25  C   UNL     1       0.074  11.671  20.090  0.00  0.00    +0.000 C 
ATOM     26  O   UNL     1       0.603  11.488  18.762  0.00  0.00    +0.000 OA
ENDBRANCH  16  18
ENDBRANCH   6  14
TORSDOF 3
ENDMDL
MODEL 3
REMARK VINA RESULT:      -8.3      0.749      1.403
REMARK  Name = 
REMARK  4 active torsions:
REMARK  status: ('A' for Active; 'I' for Inactive)
REMARK    1  A    between atoms: C_1  and  C_2
REMARK    2  A    between atoms: C_5  and  C_6
REMARK    3  A    between atoms: C_13  and  C_14
REMARK    4  A    between atoms: N_16  and  C_17
REMARK                            x       y       z     vdW  Elec       q    Type
REMARK                         _______ _______ _______ _____ _____    ______ ____
ROOT
ATOM      1  C   UNL     1       1.636   2.727  21.213  0.00  0.00    +0.000 C 
ATOM      2  C   UNL     1       2.853   3.145  20.491  0.00  0.00    +0.000 A 
ATOM      3  O   UNL     1       3.850   2.227  20.458  0.00  0.00    +0.000 OA
ATOM      4  N   UNL     1       4.923   2.726  19.765  0.00  0.00    +0.000 NA
ATOM      5  C   UNL     1       4.576   3.948  19.329  0.00  0.00    +0.000 A 
ATOM      6  C   UNL     1       3.246   4.263  19.786  0.00  0.00    +0.000 A 
ENDROOT
BRANCH   5   7
ATOM      7  C   UNL     1       5.540   4.795  18.604  0.00  0.00    +0.000 A 
ATOM      8  C   UNL     1       6.537   5.468  19.340  0.00  0.00    +0.000 A 
ATOM      9  C   UNL     1       7.511   6.248  18.712  0.00  0.00    +0.000 A 
ATOM     10  C   UNL     1       7.531   6.352  17.327  0.00  0.00    +0.000 A 
ATOM     11  C   UNL     1       6.559   5.695  16.576  0.00  0.00    +0.000 A 
ATOM     12  C   UNL     1       5.559   4.933  17.203  0.00  0.00    +0.000 A 
ATOM     13 CL   UNL     1       4.368   4.239  16.154  0.00  0.00    +0.000 Cl
ENDBRANCH   5   7
BRANCH   6  14
ATOM     14  C   UNL     1       2.479   5.459  19.499  0.00  0.00    +0.000 C 
ATOM     15  O   UNL     1       2.159   5.700  18.340  0.00  0.00    +0.000 OA
ATOM     16  N   UNL     1       2.245   6.296  20.584  0.00  0.00    +0.000 N 
ATOM     17  H   UNL     1       2.686   6.048  21.465  0.00  0.00    +0.000 HD
BRANCH  16  18
ATOM     18  C   UNL     1       1.646   7.585  20.516  0.00  0.00    +0.000 A 
ATOM     19  C   UNL     1       0.803   8.090  21.528  0.00  0.00    +0.000 A 
ATOM     20  C   UNL     1       0.156   9.323  21.396  0.00  0.00    +0.000 A 
ATOM     21  C   UNL     1       0.374  10.038  20.245  0.00  0.00    +0.000 A 
ATOM     22  C   UNL     1       1.220   9.579  19.264  0.00  0.00    +0.000 A 
ATOM     23  C   UNL     1       1.880   8.365  19.374  0.00  0.00    +0.000 A 
ATOM     24  O   UNL     1       1.290  10.436  18.210  0.00  0.00    +0.000 OA
ATOM     25  C   UNL     1       0.341  11.448  18.615  0.00  0.00    +0.000 C 
ATOM     26  O   UNL     1      -0.195  11.232  19.936  0.00  0.00    +0.000 OA
ENDBRANCH  16  18
ENDBRANCH   6  14
TORSDOF 3
ENDMDL
MODEL 4
REMARK VINA RESULT:      -8.2      1.546      1.999
REMARK  Name = 
REMARK  4 active torsions:
REMARK  status: ('A' for Active; 'I' for Inactive)
REMARK    1  A    between atoms: C_1  and  C_2
REMARK    2  A    between atoms: C_5  and  C_6
REMARK    3  A    between atoms: C_13  and  C_14
REMARK    4  A    between atoms: N_16  and  C_17
REMARK                            x       y       z     vdW  Elec       q    Type
REMARK                         _______ _______ _______ _____ _____    ______ ____
ROOT
ATOM      1  C   UNL     1       1.106   2.728  18.575  0.00  0.00    +0.000 C 
ATOM      2  C   UNL     1       2.435   3.316  18.318  0.00  0.00    +0.000 A 
ATOM      3  O   UNL     1       3.219   2.621  17.457  0.00  0.00    +0.000 OA
ATOM      4  N   UNL     1       4.422   3.260  17.300  0.00  0.00    +0.000 NA
ATOM      5  C   UNL     1       4.370   4.382  18.035  0.00  0.00    +0.000 A 
ATOM      6  C   UNL     1       3.104   4.453  18.720  0.00  0.00    +0.000 A 
ENDROOT
BRANCH   5   7
ATOM      7  C   UNL     1       5.541   5.271  18.144  0.00  0.00    +0.000 A 
ATOM      8  C   UNL     1       6.433   5.086  19.220  0.00  0.00    +0.000 A 
ATOM      9  C   UNL     1       7.589   5.861  19.357  0.00  0.00    +0.000 A 
ATOM     10  C   UNL     1       7.897   6.822  18.402  0.00  0.00    +0.000 A 
ATOM     11  C   UNL     1       7.034   7.023  17.327  0.00  0.00    +0.000 A 
ATOM     12  C   UNL     1       5.856   6.267  17.201  0.00  0.00    +0.000 A 
ATOM     13 CL   UNL     1       4.836   6.679  15.862  0.00  0.00    +0.000 Cl
ENDBRANCH   5   7
BRANCH   6  14
ATOM     14  C   UNL     1       2.626   5.521  19.575  0.00  0.00    +0.000 C 
ATOM     15  O   UNL     1       2.302   5.264  20.729  0.00  0.00    +0.000 OA
ATOM     16  N   UNL     1       2.490   6.762  18.963  0.00  0.00    +0.000 N 
ATOM     17  H   UNL     1       2.660   6.808  17.963  0.00  0.00    +0.000 HD
BRANCH  16  18
ATOM     18  C   UNL     1       1.905   7.915  19.560  0.00  0.00    +0.000 A 
ATOM     19  C   UNL     1       1.564   7.977  20.928  0.00  0.00    +0.000 A 
ATOM     20  C   UNL     1       0.910   9.087  21.471  0.00  0.00    +0.000 A 
ATOM     21  C   UNL     1       0.613  10.128  20.627  0.00  0.00    +0.000 A 
ATOM     22  C   UNL     1       0.968  10.100  19.300  0.00  0.00    +0.000 A 
ATOM     23  C   UNL     1       1.626   9.017  18.739  0.00  0.00    +0.000 A 
ATOM     24  O   UNL     1       0.577  11.227  18.644  0.00  0.00    +0.000 OA
ATOM     25  C   UNL     1      -0.121  11.929  19.697  0.00  0.00    +0.000 C 
ATOM     26  O   UNL     1      -0.046  11.264  20.973  0.00  0.00    +0.000 OA
ENDBRANCH  16  18
ENDBRANCH   6  14
TORSDOF 3
ENDMDL
MODEL 5
REMARK VINA RESULT:      -8.2      1.279      2.053
REMARK  Name = 
REMARK  4 active torsions:
REMARK  status: ('A' for Active; 'I' for Inactive)
REMARK    1  A    between atoms: C_1  and  C_2
REMARK    2  A    between atoms: C_5  and  C_6
REMARK    3  A    between atoms: C_13  and  C_14
REMARK    4  A    between atoms: N_16  and  C_17
REMARK                            x       y       z     vdW  Elec       q    Type
REMARK                         _______ _______ _______ _____ _____    ______ ____
ROOT
ATOM      1  C   UNL     1       2.105   2.851  21.725  0.00  0.00    +0.000 C 
ATOM      2  C   UNL     1       3.072   3.075  20.634  0.00  0.00    +0.000 A 
ATOM      3  O   UNL     1       4.008   2.106  20.481  0.00  0.00    +0.000 OA
ATOM      4  N   UNL     1       4.846   2.424  19.443  0.00  0.00    +0.000 NA
ATOM      5  C   UNL     1       4.403   3.578  18.920  0.00  0.00    +0.000 A 
ATOM      6  C   UNL     1       3.261   4.040  19.668  0.00  0.00    +0.000 A 
ENDROOT
BRANCH   5   7
ATOM      7  C   UNL     1       5.131   4.239  17.822  0.00  0.00    +0.000 A 
ATOM      8  C   UNL     1       4.720   3.999  16.495  0.00  0.00    +0.000 A 
ATOM      9  C   UNL     1       5.334   4.630  15.410  0.00  0.00    +0.000 A 
ATOM     10  C   UNL     1       6.358   5.543  15.627  0.00  0.00    +0.000 A 
ATOM     11  C   UNL     1       6.782   5.802  16.929  0.00  0.00    +0.000 A 
ATOM     12  C   UNL     1       6.188   5.147  18.021  0.00  0.00    +0.000 A 
ATOM     13 CL   UNL     1       6.868   5.502  19.575  0.00  0.00    +0.000 Cl
ENDBRANCH   5   7
BRANCH   6  14
ATOM     14  C   UNL     1       2.457   5.217  19.405  0.00  0.00    +0.000 C 
ATOM     15  O   UNL     1       1.950   5.361  18.298  0.00  0.00    +0.000 OA
ATOM     16  N   UNL     1       2.406   6.150  20.435  0.00  0.00    +0.000 N 
ATOM     17  H   UNL     1       2.987   5.974  21.250  0.00  0.00    +0.000 HD
BRANCH  16  18
ATOM     18  C   UNL     1       1.805   7.437  20.352  0.00  0.00    +0.000 A 
ATOM     19  C   UNL     1       0.962   7.953  21.359  0.00  0.00    +0.000 A 
ATOM     20  C   UNL     1       0.313   9.183  21.213  0.00  0.00    +0.000 A 
ATOM     21  C   UNL     1       0.528   9.884  20.053  0.00  0.00    +0.000 A 
ATOM     22  C   UNL     1       1.372   9.414  19.077  0.00  0.00    +0.000 A 
ATOM     23  C   UNL     1       2.035   8.203  19.201  0.00  0.00    +0.000 A 
ATOM     24  O   UNL     1       1.439  10.258  18.011  0.00  0.00    +0.000 OA
ATOM     25  C   UNL     1       0.489  11.274  18.406  0.00  0.00    +0.000 C 
ATOM     26  O   UNL     1      -0.044  11.072  19.730  0.00  0.00    +0.000 OA
ENDBRANCH  16  18
ENDBRANCH   6  14
TORSDOF 3
ENDMDL
MODEL 6
REMARK VINA RESULT:      -8.1      1.565      3.665
REMARK  Name = 
REMARK  4 active torsions:
REMARK  status: ('A' for Active; 'I' for Inactive)
REMARK    1  A    between atoms: C_1  and  C_2
REMARK    2  A    between atoms: C_5  and  C_6
REMARK    3  A    between atoms: C_13  and  C_14
REMARK    4  A    between atoms: N_16  and  C_17
REMARK                            x       y       z     vdW  Elec       q    Type
REMARK                         _______ _______ _______ _____ _____    ______ ____
ROOT
ATOM      1  C   UNL     1       7.192   6.461  17.828  0.00  0.00    +0.000 C 
ATOM      2  C   UNL     1       6.173   5.537  18.362  0.00  0.00    +0.000 A 
ATOM      3  O   UNL     1       6.655   4.376  18.870  0.00  0.00    +0.000 OA
ATOM      4  N   UNL     1       5.621   3.602  19.332  0.00  0.00    +0.000 NA
ATOM      5  C   UNL     1       4.492   4.305  19.149  0.00  0.00    +0.000 A 
ATOM      6  C   UNL     1       4.803   5.561  18.513  0.00  0.00    +0.000 A 
ENDROOT
BRANCH   5   7
ATOM      7  C   UNL     1       3.178   3.724  19.476  0.00  0.00    +0.000 A 
ATOM      8  C   UNL     1       2.778   3.673  20.827  0.00  0.00    +0.000 A 
ATOM      9  C   UNL     1       1.525   3.180  21.204  0.00  0.00    +0.000 A 
ATOM     10  C   UNL     1       0.628   2.752  20.235  0.00  0.00    +0.000 A 
ATOM     11  C   UNL     1       0.997   2.793  18.892  0.00  0.00    +0.000 A 
ATOM     12  C   UNL     1       2.265   3.260  18.509  0.00  0.00    +0.000 A 
ATOM     13 CL   UNL     1       2.621   3.180  16.815  0.00  0.00    +0.000 Cl
ENDBRANCH   5   7
BRANCH   6  14
ATOM     14  C   UNL     1       3.882   6.629  18.182  0.00  0.00    +0.000 C 
ATOM     15  O   UNL     1       4.022   7.234  17.124  0.00  0.00    +0.000 OA
ATOM     16  N   UNL     1       2.948   6.940  19.164  0.00  0.00    +0.000 N 
ATOM     17  H   UNL     1       3.030   6.456  20.053  0.00  0.00    +0.000 HD
BRANCH  16  18
ATOM     18  C   UNL     1       2.044   8.039  19.123  0.00  0.00    +0.000 A 
ATOM     19  C   UNL     1       1.792   8.777  17.947  0.00  0.00    +0.000 A 
ATOM     20  C   UNL     1       0.969   9.908  17.953  0.00  0.00    +0.000 A 
ATOM     21  C   UNL     1       0.401  10.277  19.147  0.00  0.00    +0.000 A 
ATOM     22  C   UNL     1       0.606   9.550  20.294  0.00  0.00    +0.000 A 
ATOM     23  C   UNL     1       1.410   8.421  20.314  0.00  0.00    +0.000 A 
ATOM     24  O   UNL     1      -0.043  10.090  21.362  0.00  0.00    +0.000 OA
ATOM     25  C   UNL     1      -0.620  11.272  20.763  0.00  0.00    +0.000 C 
ATOM     26  O   UNL     1      -0.393  11.361  19.343  0.00  0.00    +0.000 OA
ENDBRANCH  16  18
ENDBRANCH   6  14
TORSDOF 3
ENDMDL
MODEL 7
REMARK VINA RESULT:      -8.1      1.532      1.625
REMARK  Name = 
REMARK  4 active torsions:
REMARK  status: ('A' for Active; 'I' for Inactive)
REMARK    1  A    between atoms: C_1  and  C_2
REMARK    2  A    between atoms: C_5  and  C_6
REMARK    3  A    between atoms: C_13  and  C_14
REMARK    4  A    between atoms: N_16  and  C_17
REMARK                            x       y       z     vdW  Elec       q    Type
REMARK                         _______ _______ _______ _____ _____    ______ ____
ROOT
ATOM      1  C   UNL     1       1.131   2.823  18.583  0.00  0.00    +0.000 C 
ATOM      2  C   UNL     1       2.486   3.365  18.366  0.00  0.00    +0.000 A 
ATOM      3  O   UNL     1       3.335   2.549  17.693  0.00  0.00    +0.000 OA
ATOM      4  N   UNL     1       4.557   3.156  17.555  0.00  0.00    +0.000 NA
ATOM      5  C   UNL     1       4.455   4.375  18.108  0.00  0.00    +0.000 A 
ATOM      6  C   UNL     1       3.133   4.548  18.655  0.00  0.00    +0.000 A 
ENDROOT
BRANCH   5   7
ATOM      7  C   UNL     1       5.624   5.268  18.192  0.00  0.00    +0.000 A 
ATOM      8  C   UNL     1       6.513   5.121  19.277  0.00  0.00    +0.000 A 
ATOM      9  C   UNL     1       7.666   5.901  19.392  0.00  0.00    +0.000 A 
ATOM     10  C   UNL     1       7.977   6.830  18.408  0.00  0.00    +0.000 A 
ATOM     11  C   UNL     1       7.118   6.994  17.324  0.00  0.00    +0.000 A 
ATOM     12  C   UNL     1       5.942   6.234  17.218  0.00  0.00    +0.000 A 
ATOM     13 CL   UNL     1       4.926   6.599  15.862  0.00  0.00    +0.000 Cl
ENDBRANCH   5   7
BRANCH   6  14
ATOM     14  C   UNL     1       2.595   5.731  19.295  0.00  0.00    +0.000 C 
ATOM     15  O   UNL     1       2.156   5.647  20.438  0.00  0.00    +0.000 OA
ATOM     16  N   UNL     1       2.543   6.871  18.500  0.00  0.00    +0.000 N 
ATOM     17  H   UNL     1       2.809   6.769  17.526  0.00  0.00    +0.000 HD
BRANCH  16  18
ATOM     18  C   UNL     1       1.925   8.101  18.864  0.00  0.00    +0.000 A 
ATOM     19  C   UNL     1       1.804   9.187  17.971  0.00  0.00    +0.000 A 
ATOM     20  C   UNL     1       1.274  10.415  18.378  0.00  0.00    +0.000 A 
ATOM     21  C   UNL     1       0.865  10.532  19.684  0.00  0.00    +0.000 A 
ATOM     22  C   UNL     1       0.943   9.475  20.557  0.00  0.00    +0.000 A 
ATOM     23  C   UNL     1       1.455   8.245  20.176  0.00  0.00    +0.000 A 
ATOM     24  O   UNL     1       0.490   9.804  21.798  0.00  0.00    +0.000 OA
ATOM     25  C   UNL     1       0.184  11.205  21.614  0.00  0.00    +0.000 C 
ATOM     26  O   UNL     1       0.361  11.655  20.257  0.00  0.00    +0.000 OA
ENDBRANCH  16  18
ENDBRANCH   6  14
TORSDOF 3
ENDMDL
MODEL 8
REMARK VINA RESULT:      -7.8      1.418      1.834
REMARK  Name = 
REMARK  4 active torsions:
REMARK  status: ('A' for Active; 'I' for Inactive)
REMARK    1  A    between atoms: C_1  and  C_2
REMARK    2  A    between atoms: C_5  and  C_6
REMARK    3  A    between atoms: C_13  and  C_14
REMARK    4  A    between atoms: N_16  and  C_17
REMARK                            x       y       z     vdW  Elec       q    Type
REMARK                         _______ _______ _______ _____ _____    ______ ____
ROOT
ATOM      1  C   UNL     1       1.149   2.152  19.866  0.00  0.00    +0.000 C 
ATOM      2  C   UNL     1       2.337   2.530  19.078  0.00  0.00    +0.000 A 
ATOM      3  O   UNL     1       3.247   1.542  18.892  0.00  0.00    +0.000 OA
ATOM      4  N   UNL     1       4.302   2.010  18.151  0.00  0.00    +0.000 NA
ATOM      5  C   UNL     1       4.026   3.286  17.838  0.00  0.00    +0.000 A 
ATOM      6  C   UNL     1       2.768   3.667  18.427  0.00  0.00    +0.000 A 
ENDROOT
BRANCH   5   7
ATOM      7  C   UNL     1       5.000   4.111  17.099  0.00  0.00    +0.000 A 
ATOM      8  C   UNL     1       5.043   4.011  15.693  0.00  0.00    +0.000 A 
ATOM      9  C   UNL     1       5.908   4.799  14.928  0.00  0.00    +0.000 A 
ATOM     10  C   UNL     1       6.730   5.730  15.548  0.00  0.00    +0.000 A 
ATOM     11  C   UNL     1       6.706   5.851  16.935  0.00  0.00    +0.000 A 
ATOM     12  C   UNL     1       5.860   5.041  17.712  0.00  0.00    +0.000 A 
ATOM     13 CL   UNL     1       5.992   5.241  19.429  0.00  0.00    +0.000 Cl
ENDBRANCH   5   7
BRANCH   6  14
ATOM     14  C   UNL     1       2.085   4.939  18.295  0.00  0.00    +0.000 C 
ATOM     15  O   UNL     1       1.185   5.052  17.469  0.00  0.00    +0.000 OA
ATOM     16  N   UNL     1       2.587   5.972  19.078  0.00  0.00    +0.000 N 
ATOM     17  H   UNL     1       3.427   5.781  19.616  0.00  0.00    +0.000 HD
BRANCH  16  18
ATOM     18  C   UNL     1       2.176   7.333  19.008  0.00  0.00    +0.000 A 
ATOM     19  C   UNL     1       2.359   8.129  17.857  0.00  0.00    +0.000 A 
ATOM     20  C   UNL     1       2.027   9.487  17.844  0.00  0.00    +0.000 A 
ATOM     21  C   UNL     1       1.506  10.028  18.993  0.00  0.00    +0.000 A 
ATOM     22  C   UNL     1       1.288   9.261  20.112  0.00  0.00    +0.000 A 
ATOM     23  C   UNL     1       1.598   7.911  20.148  0.00  0.00    +0.000 A 
ATOM     24  O   UNL     1       0.770   9.991  21.137  0.00  0.00    +0.000 OA
ATOM     25  C   UNL     1       0.754  11.313  20.551  0.00  0.00    +0.000 C 
ATOM     26  O   UNL     1       1.161  11.329  19.169  0.00  0.00    +0.000 OA
ENDBRANCH  16  18
ENDBRANCH   6  14
TORSDOF 3
ENDMDL
MODEL 9
REMARK VINA RESULT:      -7.7      1.796      3.880
REMARK  Name = 
REMARK  4 active torsions:
REMARK  status: ('A' for Active; 'I' for Inactive)
REMARK    1  A    between atoms: C_1  and  C_2
REMARK    2  A    between atoms: C_5  and  C_6
REMARK    3  A    between atoms: C_13  and  C_14
REMARK    4  A    between atoms: N_16  and  C_17
REMARK                            x       y       z     vdW  Elec       q    Type
REMARK                         _______ _______ _______ _____ _____    ______ ____
ROOT
ATOM      1  C   UNL     1       6.410   7.097  17.262  0.00  0.00    +0.000 C 
ATOM      2  C   UNL     1       5.641   6.043  17.951  0.00  0.00    +0.000 A 
ATOM      3  O   UNL     1       6.320   4.894  18.190  0.00  0.00    +0.000 OA
ATOM      4  N   UNL     1       5.506   3.994  18.829  0.00  0.00    +0.000 NA
ATOM      5  C   UNL     1       4.325   4.603  19.026  0.00  0.00    +0.000 A 
ATOM      6  C   UNL     1       4.366   5.929  18.463  0.00  0.00    +0.000 A 
ENDROOT
BRANCH   5   7
ATOM      7  C   UNL     1       3.193   3.879  19.631  0.00  0.00    +0.000 A 
ATOM      8  C   UNL     1       3.010   3.952  21.027  0.00  0.00    +0.000 A 
ATOM      9  C   UNL     1       1.930   3.330  21.660  0.00  0.00    +0.000 A 
ATOM     10  C   UNL     1       0.987   2.643  20.908  0.00  0.00    +0.000 A 
ATOM     11  C   UNL     1       1.141   2.557  19.526  0.00  0.00    +0.000 A 
ATOM     12  C   UNL     1       2.241   3.155  18.888  0.00  0.00    +0.000 A 
ATOM     13 CL   UNL     1       2.352   2.901  17.177  0.00  0.00    +0.000 Cl
ENDBRANCH   5   7
BRANCH   6  14
ATOM     14  C   UNL     1       3.320   6.931  18.501  0.00  0.00    +0.000 C 
ATOM     15  O   UNL     1       3.093   7.598  17.497  0.00  0.00    +0.000 OA
ATOM     16  N   UNL     1       2.709   7.113  19.737  0.00  0.00    +0.000 N 
ATOM     17  H   UNL     1       3.088   6.594  20.523  0.00  0.00    +0.000 HD
BRANCH  16  18
ATOM     18  C   UNL     1       1.766   8.133  20.048  0.00  0.00    +0.000 A 
ATOM     19  C   UNL     1       1.382   9.126  19.121  0.00  0.00    +0.000 A 
ATOM     20  C   UNL     1       0.522  10.169  19.479  0.00  0.00    +0.000 A 
ATOM     21  C   UNL     1       0.051  10.195  20.768  0.00  0.00    +0.000 A 
ATOM     22  C   UNL     1       0.386   9.217  21.673  0.00  0.00    +0.000 A 
ATOM     23  C   UNL     1       1.228   8.167  21.342  0.00  0.00    +0.000 A 
ATOM     24  O   UNL     1      -0.183   9.433  22.890  0.00  0.00    +0.000 OA
ATOM     25  C   UNL     1      -0.855  10.692  22.659  0.00  0.00    +0.000 C 
ATOM     26  O   UNL     1      -0.761  11.147  21.295  0.00  0.00    +0.000 OA
ENDBRANCH  16  18
ENDBRANCH   6  14
TORSDOF 3
ENDMDL
