MODEL 1
REMARK VINA RESULT:      -7.8      0.000      0.000
REMARK  Name = 
REMARK  3 active torsions:
REMARK  status: ('A' for Active; 'I' for Inactive)
REMARK    1  A    between atoms: C_1  and  C_2
REMARK    2  A    between atoms: C_7  and  C_9
REMARK    3  A    between atoms: C_9  and  C_10
REMARK                            x       y       z     vdW  Elec       q    Type
REMARK                         _______ _______ _______ _____ _____    ______ ____
ROOT
ATOM      1  C   UNL     1       2.463   7.606  17.878  0.00  0.00    +0.000 C 
ENDROOT
BRANCH   1   8
ATOM      2  C   UNL     1      -1.514  11.309  23.149  0.00  0.00    +0.000 C 
ATOM      3  C   UNL     1      -0.534  10.497  22.383  0.00  0.00    +0.000 A 
ATOM      4  C   UNL     1       0.341   9.535  22.844  0.00  0.00    +0.000 A 
ATOM      5  N   UNL     1       1.084   8.895  21.877  0.00  0.00    +0.000 NA
ATOM      6  C   UNL     1       0.790   9.382  20.700  0.00  0.00    +0.000 A 
ATOM      7  N   UNL     1       1.260   9.005  19.470  0.00  0.00    +0.000 N 
ATOM      8  C   UNL     1       2.040   7.874  19.320  0.00  0.00    +0.000 C 
ATOM      9  O   UNL     1       2.378   7.098  20.211  0.00  0.00    +0.000 OA
ATOM     10  S   UNL     1      -0.355  10.653  20.680  0.00  0.00    +0.000 S 
ATOM     11  H   UNL     1       0.966   9.554  18.676  0.00  0.00    +0.000 HD
ENDBRANCH   1   8
BRANCH   1  12
ATOM     12  C   UNL     1       3.451   6.463  17.747  0.00  0.00    +0.000 A 
ATOM     13  C   UNL     1       4.810   6.803  17.580  0.00  0.00    +0.000 A 
ATOM     14  C   UNL     1       5.783   5.826  17.416  0.00  0.00    +0.000 A 
ATOM     15  C   UNL     1       5.419   4.486  17.407  0.00  0.00    +0.000 A 
ATOM     16  C   UNL     1       4.084   4.104  17.591  0.00  0.00    +0.000 A 
ATOM     17  C   UNL     1       3.751   2.740  17.578  0.00  0.00    +0.000 A 
ATOM     18  C   UNL     1       2.443   2.317  17.793  0.00  0.00    +0.000 A 
ATOM     19  C   UNL     1       1.453   3.255  18.043  0.00  0.00    +0.000 A 
ATOM     20  C   UNL     1       1.765   4.618  18.044  0.00  0.00    +0.000 A 
ATOM     21  C   UNL     1       3.078   5.087  17.795  0.00  0.00    +0.000 A 
ENDBRANCH   1  12
TORSDOF 2
ENDMDL
MODEL 2
REMARK VINA RESULT:      -7.7      4.954      6.572
REMARK  Name = 
REMARK  3 active torsions:
REMARK  status: ('A' for Active; 'I' for Inactive)
REMARK    1  A    between atoms: C_1  and  C_2
REMARK    2  A    between atoms: C_7  and  C_9
REMARK    3  A    between atoms: C_9  and  C_10
REMARK                            x       y       z     vdW  Elec       q    Type
REMARK                         _______ _______ _______ _____ _____    ______ ____
ROOT
ATOM      1  C   UNL     1       7.823   6.219  18.507  0.00  0.00    +0.000 C 
ENDROOT
BRANCH   1   8
ATOM      2  C   UNL     1      10.491  13.265  19.238  0.00  0.00    +0.000 C 
ATOM      3  C   UNL     1       9.728  12.037  18.899  0.00  0.00    +0.000 A 
ATOM      4  C   UNL     1       8.853  11.821  17.855  0.00  0.00    +0.000 A 
ATOM      5  N   UNL     1       8.347  10.544  17.756  0.00  0.00    +0.000 NA
ATOM      6  C   UNL     1       8.818   9.807  18.727  0.00  0.00    +0.000 A 
ATOM      7  N   UNL     1       8.610   8.476  18.976  0.00  0.00    +0.000 N 
ATOM      8  C   UNL     1       7.953   7.674  18.064  0.00  0.00    +0.000 C 
ATOM      9  O   UNL     1       7.512   8.022  16.971  0.00  0.00    +0.000 OA
ATOM     10  S   UNL     1       9.856  10.598  19.833  0.00  0.00    +0.000 S 
ATOM     11  H   UNL     1       9.007   8.098  19.824  0.00  0.00    +0.000 HD
ENDBRANCH   1   8
BRANCH   1  12
ATOM     12  C   UNL     1       6.838   5.424  17.670  0.00  0.00    +0.000 A 
ATOM     13  C   UNL     1       7.314   4.881  16.459  0.00  0.00    +0.000 A 
ATOM     14  C   UNL     1       6.478   4.169  15.609  0.00  0.00    +0.000 A 
ATOM     15  C   UNL     1       5.143   3.989  15.948  0.00  0.00    +0.000 A 
ATOM     16  C   UNL     1       4.635   4.492  17.153  0.00  0.00    +0.000 A 
ATOM     17  C   UNL     1       3.281   4.292  17.465  0.00  0.00    +0.000 A 
ATOM     18  C   UNL     1       2.745   4.744  18.668  0.00  0.00    +0.000 A 
ATOM     19  C   UNL     1       3.565   5.389  19.582  0.00  0.00    +0.000 A 
ATOM     20  C   UNL     1       4.912   5.611  19.279  0.00  0.00    +0.000 A 
ATOM     21  C   UNL     1       5.483   5.195  18.052  0.00  0.00    +0.000 A 
ENDBRANCH   1  12
TORSDOF 2
ENDMDL
MODEL 3
REMARK VINA RESULT:      -7.6      2.043      3.360
REMARK  Name = 
REMARK  3 active torsions:
REMARK  status: ('A' for Active; 'I' for Inactive)
REMARK    1  A    between atoms: C_1  and  C_2
REMARK    2  A    between atoms: C_7  and  C_9
REMARK    3  A    between atoms: C_9  and  C_10
REMARK                            x       y       z     vdW  Elec       q    Type
REMARK                         _______ _______ _______ _____ _____    ______ ____
ROOT
ATOM      1  C   UNL     1       3.333   4.657  18.396  0.00  0.00    +0.000 C 
ENDROOT
BRANCH   1   8
ATOM      2  C   UNL     1       0.323  11.575  19.020  0.00  0.00    +0.000 C 
ATOM      3  C   UNL     1       0.936  10.240  19.242  0.00  0.00    +0.000 A 
ATOM      4  C   UNL     1       0.973   9.484  20.396  0.00  0.00    +0.000 A 
ATOM      5  N   UNL     1       1.556   8.243  20.276  0.00  0.00    +0.000 NA
ATOM      6  C   UNL     1       1.974   8.069  19.050  0.00  0.00    +0.000 A 
ATOM      7  N   UNL     1       2.568   6.968  18.491  0.00  0.00    +0.000 N 
ATOM      8  C   UNL     1       2.649   5.774  19.180  0.00  0.00    +0.000 C 
ATOM      9  O   UNL     1       2.213   5.551  20.307  0.00  0.00    +0.000 OA
ATOM     10  S   UNL     1       1.735   9.384  17.982  0.00  0.00    +0.000 S 
ATOM     11  H   UNL     1       2.888   7.051  17.537  0.00  0.00    +0.000 HD
ENDBRANCH   1   8
BRANCH   1  12
ATOM     12  C   UNL     1       4.815   4.897  18.180  0.00  0.00    +0.000 A 
ATOM     13  C   UNL     1       5.582   5.246  19.310  0.00  0.00    +0.000 A 
ATOM     14  C   UNL     1       6.940   5.519  19.205  0.00  0.00    +0.000 A 
ATOM     15  C   UNL     1       7.560   5.459  17.964  0.00  0.00    +0.000 A 
ATOM     16  C   UNL     1       6.840   5.095  16.819  0.00  0.00    +0.000 A 
ATOM     17  C   UNL     1       7.498   5.043  15.580  0.00  0.00    +0.000 A 
ATOM     18  C   UNL     1       6.827   4.652  14.425  0.00  0.00    +0.000 A 
ATOM     19  C   UNL     1       5.491   4.290  14.500  0.00  0.00    +0.000 A 
ATOM     20  C   UNL     1       4.816   4.352  15.723  0.00  0.00    +0.000 A 
ATOM     21  C   UNL     1       5.457   4.778  16.912  0.00  0.00    +0.000 A 
ENDBRANCH   1  12
TORSDOF 2
ENDMDL
MODEL 4
REMARK VINA RESULT:      -7.6      0.670      2.537
REMARK  Name = 
REMARK  3 active torsions:
REMARK  status: ('A' for Active; 'I' for Inactive)
REMARK    1  A    between atoms: C_1  and  C_2
REMARK    2  A    between atoms: C_7  and  C_9
REMARK    3  A    between atoms: C_9  and  C_10
REMARK                            x       y       z     vdW  Elec       q    Type
REMARK                         _______ _______ _______ _____ _____    ______ ____
ROOT
ATOM      1  C   UNL     1       2.516   7.635  17.997  0.00  0.00    +0.000 C 
ENDROOT
BRANCH   1   8
ATOM      2  C   UNL     1      -1.577  11.335  23.180  0.00  0.00    +0.000 C 
ATOM      3  C   UNL     1      -0.595  10.504  22.438  0.00  0.00    +0.000 A 
ATOM      4  C   UNL     1       0.205   9.482  22.908  0.00  0.00    +0.000 A 
ATOM      5  N   UNL     1       0.971   8.842  21.960  0.00  0.00    +0.000 NA
ATOM      6  C   UNL     1       0.769   9.387  20.789  0.00  0.00    +0.000 A 
ATOM      7  N   UNL     1       1.292   9.033  19.574  0.00  0.00    +0.000 N 
ATOM      8  C   UNL     1       2.023   7.870  19.423  0.00  0.00    +0.000 C 
ATOM      9  O   UNL     1       2.271   7.046  20.299  0.00  0.00    +0.000 OA
ATOM     10  S   UNL     1      -0.310  10.714  20.756  0.00  0.00    +0.000 S 
ATOM     11  H   UNL     1       1.071   9.625  18.786  0.00  0.00    +0.000 HD
ENDBRANCH   1   8
BRANCH   1  12
ATOM     12  C   UNL     1       3.020   6.223  17.763  0.00  0.00    +0.000 A 
ATOM     13  C   UNL     1       2.073   5.181  17.836  0.00  0.00    +0.000 A 
ATOM     14  C   UNL     1       2.445   3.854  17.671  0.00  0.00    +0.000 A 
ATOM     15  C   UNL     1       3.777   3.537  17.437  0.00  0.00    +0.000 A 
ATOM     16  C   UNL     1       4.747   4.543  17.335  0.00  0.00    +0.000 A 
ATOM     17  C   UNL     1       6.084   4.187  17.097  0.00  0.00    +0.000 A 
ATOM     18  C   UNL     1       7.072   5.158  16.954  0.00  0.00    +0.000 A 
ATOM     19  C   UNL     1       6.729   6.499  17.029  0.00  0.00    +0.000 A 
ATOM     20  C   UNL     1       5.404   6.870  17.282  0.00  0.00    +0.000 A 
ATOM     21  C   UNL     1       4.379   5.910  17.467  0.00  0.00    +0.000 A 
ENDBRANCH   1  12
TORSDOF 2
ENDMDL
MODEL 5
REMARK VINA RESULT:      -7.5      1.287      2.795
REMARK  Name = 
REMARK  3 active torsions:
REMARK  status: ('A' for Active; 'I' for Inactive)
REMARK    1  A    between atoms: C_1  and  C_2
REMARK    2  A    between atoms: C_7  and  C_9
REMARK    3  A    between atoms: C_9  and  C_10
REMARK                            x       y       z     vdW  Elec       q    Type
REMARK                         _______ _______ _______ _____ _____    ______ ____
ROOT
ATOM      1  C   UNL     1       2.922   6.126  20.266  0.00  0.00    +0.000 C 
ENDROOT
BRANCH   1   8
ATOM      2  C   UNL     1      -1.291  11.883  22.800  0.00  0.00    +0.000 C 
ATOM      3  C   UNL     1      -0.625  10.820  22.004  0.00  0.00    +0.000 A 
ATOM      4  C   UNL     1      -0.492  10.718  20.634  0.00  0.00    +0.000 A 
ATOM      5  N   UNL     1       0.246   9.646  20.187  0.00  0.00    +0.000 NA
ATOM      6  C   UNL     1       0.650   8.933  21.205  0.00  0.00    +0.000 A 
ATOM      7  N   UNL     1       1.441   7.814  21.213  0.00  0.00    +0.000 N 
ATOM      8  C   UNL     1       2.075   7.381  20.064  0.00  0.00    +0.000 C 
ATOM      9  O   UNL     1       2.029   7.916  18.959  0.00  0.00    +0.000 OA
ATOM     10  S   UNL     1       0.143   9.473  22.747  0.00  0.00    +0.000 S 
ATOM     11  H   UNL     1       1.586   7.358  22.102  0.00  0.00    +0.000 HD
ENDBRANCH   1   8
BRANCH   1  12
ATOM     12  C   UNL     1       2.892   5.186  19.075  0.00  0.00    +0.000 A 
ATOM     13  C   UNL     1       1.786   4.318  18.969  0.00  0.00    +0.000 A 
ATOM     14  C   UNL     1       1.687   3.397  17.934  0.00  0.00    +0.000 A 
ATOM     15  C   UNL     1       2.698   3.319  16.985  0.00  0.00    +0.000 A 
ATOM     16  C   UNL     1       3.803   4.177  17.040  0.00  0.00    +0.000 A 
ATOM     17  C   UNL     1       4.806   4.071  16.064  0.00  0.00    +0.000 A 
ATOM     18  C   UNL     1       5.903   4.929  16.063  0.00  0.00    +0.000 A 
ATOM     19  C   UNL     1       5.999   5.917  17.031  0.00  0.00    +0.000 A 
ATOM     20  C   UNL     1       5.016   6.026  18.020  0.00  0.00    +0.000 A 
ATOM     21  C   UNL     1       3.905   5.150  18.073  0.00  0.00    +0.000 A 
ENDBRANCH   1  12
TORSDOF 2
ENDMDL
MODEL 6
REMARK VINA RESULT:      -7.5      4.877      7.726
REMARK  Name = 
REMARK  3 active torsions:
REMARK  status: ('A' for Active; 'I' for Inactive)
REMARK    1  A    between atoms: C_1  and  C_2
REMARK    2  A    between atoms: C_7  and  C_9
REMARK    3  A    between atoms: C_9  and  C_10
REMARK                            x       y       z     vdW  Elec       q    Type
REMARK                         _______ _______ _______ _____ _____    ______ ____
ROOT
ATOM      1  C   UNL     1       6.051   5.565  18.333  0.00  0.00    +0.000 C 
ENDROOT
BRANCH   1   8
ATOM      2  C   UNL     1       7.005   3.871  11.017  0.00  0.00    +0.000 C 
ATOM      3  C   UNL     1       7.140   4.325  12.424  0.00  0.00    +0.000 A 
ATOM      4  C   UNL     1       8.020   5.244  12.957  0.00  0.00    +0.000 A 
ATOM      5  N   UNL     1       7.858   5.515  14.298  0.00  0.00    +0.000 NA
ATOM      6  C   UNL     1       6.880   4.794  14.778  0.00  0.00    +0.000 A 
ATOM      7  N   UNL     1       6.359   4.784  16.045  0.00  0.00    +0.000 N 
ATOM      8  C   UNL     1       6.742   5.726  16.981  0.00  0.00    +0.000 C 
ATOM      9  O   UNL     1       7.537   6.646  16.807  0.00  0.00    +0.000 OA
ATOM     10  S   UNL     1       6.124   3.726  13.676  0.00  0.00    +0.000 S 
ATOM     11  H   UNL     1       5.645   4.099  16.245  0.00  0.00    +0.000 HD
ENDBRANCH   1   8
BRANCH   1  12
ATOM     12  C   UNL     1       4.537   5.620  18.241  0.00  0.00    +0.000 A 
ATOM     13  C   UNL     1       3.948   6.890  18.080  0.00  0.00    +0.000 A 
ATOM     14  C   UNL     1       2.569   7.044  18.021  0.00  0.00    +0.000 A 
ATOM     15  C   UNL     1       1.747   5.930  18.132  0.00  0.00    +0.000 A 
ATOM     16  C   UNL     1       2.292   4.647  18.272  0.00  0.00    +0.000 A 
ATOM     17  C   UNL     1       1.432   3.543  18.380  0.00  0.00    +0.000 A 
ATOM     18  C   UNL     1       1.933   2.248  18.484  0.00  0.00    +0.000 A 
ATOM     19  C   UNL     1       3.304   2.042  18.463  0.00  0.00    +0.000 A 
ATOM     20  C   UNL     1       4.175   3.132  18.372  0.00  0.00    +0.000 A 
ATOM     21  C   UNL     1       3.702   4.466  18.299  0.00  0.00    +0.000 A 
ENDBRANCH   1  12
TORSDOF 2
ENDMDL
MODEL 7
REMARK VINA RESULT:      -7.4      1.480      2.963
REMARK  Name = 
REMARK  3 active torsions:
REMARK  status: ('A' for Active; 'I' for Inactive)
REMARK    1  A    between atoms: C_1  and  C_2
REMARK    2  A    between atoms: C_7  and  C_9
REMARK    3  A    between atoms: C_9  and  C_10
REMARK                            x       y       z     vdW  Elec       q    Type
REMARK                         _______ _______ _______ _____ _____    ______ ____
ROOT
ATOM      1  C   UNL     1       2.925   5.591  20.175  0.00  0.00    +0.000 C 
ENDROOT
BRANCH   1   8
ATOM      2  C   UNL     1      -0.719  11.847  22.384  0.00  0.00    +0.000 C 
ATOM      3  C   UNL     1      -0.097  10.725  21.635  0.00  0.00    +0.000 A 
ATOM      4  C   UNL     1       0.255  10.663  20.303  0.00  0.00    +0.000 A 
ATOM      5  N   UNL     1       0.884   9.504  19.907  0.00  0.00    +0.000 NA
ATOM      6  C   UNL     1       0.988   8.689  20.924  0.00  0.00    +0.000 A 
ATOM      7  N   UNL     1       1.583   7.457  20.983  0.00  0.00    +0.000 N 
ATOM      8  C   UNL     1       2.332   6.975  19.927  0.00  0.00    +0.000 C 
ATOM      9  O   UNL     1       2.563   7.559  18.871  0.00  0.00    +0.000 OA
ATOM     10  S   UNL     1       0.310   9.237  22.396  0.00  0.00    +0.000 S 
ATOM     11  H   UNL     1       1.498   6.944  21.848  0.00  0.00    +0.000 HD
ENDBRANCH   1   8
BRANCH   1  12
ATOM     12  C   UNL     1       3.456   4.932  18.915  0.00  0.00    +0.000 A 
ATOM     13  C   UNL     1       2.518   4.284  18.084  0.00  0.00    +0.000 A 
ATOM     14  C   UNL     1       2.913   3.624  16.928  0.00  0.00    +0.000 A 
ATOM     15  C   UNL     1       4.257   3.588  16.581  0.00  0.00    +0.000 A 
ATOM     16  C   UNL     1       5.219   4.236  17.367  0.00  0.00    +0.000 A 
ATOM     17  C   UNL     1       6.569   4.181  16.986  0.00  0.00    +0.000 A 
ATOM     18  C   UNL     1       7.551   4.842  17.719  0.00  0.00    +0.000 A 
ATOM     19  C   UNL     1       7.189   5.582  18.834  0.00  0.00    +0.000 A 
ATOM     20  C   UNL     1       5.851   5.634  19.236  0.00  0.00    +0.000 A 
ATOM     21  C   UNL     1       4.830   4.948  18.535  0.00  0.00    +0.000 A 
ENDBRANCH   1  12
TORSDOF 2
ENDMDL
MODEL 8
REMARK VINA RESULT:      -7.3      1.836      2.427
REMARK  Name = 
REMARK  3 active torsions:
REMARK  status: ('A' for Active; 'I' for Inactive)
REMARK    1  A    between atoms: C_1  and  C_2
REMARK    2  A    between atoms: C_7  and  C_9
REMARK    3  A    between atoms: C_9  and  C_10
REMARK                            x       y       z     vdW  Elec       q    Type
REMARK                         _______ _______ _______ _____ _____    ______ ____
ROOT
ATOM      1  C   UNL     1       3.564   7.107  18.864  0.00  0.00    +0.000 C 
ENDROOT
BRANCH   1   8
ATOM      2  C   UNL     1      -1.917  12.148  20.225  0.00  0.00    +0.000 C 
ATOM      3  C   UNL     1      -1.000  11.129  19.652  0.00  0.00    +0.000 A 
ATOM      4  C   UNL     1      -0.790  10.799  18.329  0.00  0.00    +0.000 A 
ATOM      5  N   UNL     1       0.184   9.854  18.100  0.00  0.00    +0.000 NA
ATOM      6  C   UNL     1       0.692   9.458  19.237  0.00  0.00    +0.000 A 
ATOM      7  N   UNL     1       1.709   8.569  19.463  0.00  0.00    +0.000 N 
ATOM      8  C   UNL     1       2.471   8.076  18.421  0.00  0.00    +0.000 C 
ATOM      9  O   UNL     1       2.355   8.365  17.233  0.00  0.00    +0.000 OA
ATOM     10  S   UNL     1       0.014  10.157  20.644  0.00  0.00    +0.000 S 
ATOM     11  H   UNL     1       1.913   8.336  20.425  0.00  0.00    +0.000 HD
ENDBRANCH   1   8
BRANCH   1  12
ATOM     12  C   UNL     1       3.408   5.718  18.272  0.00  0.00    +0.000 A 
ATOM     13  C   UNL     1       4.198   5.407  17.146  0.00  0.00    +0.000 A 
ATOM     14  C   UNL     1       4.100   4.174  16.514  0.00  0.00    +0.000 A 
ATOM     15  C   UNL     1       3.202   3.227  16.989  0.00  0.00    +0.000 A 
ATOM     16  C   UNL     1       2.414   3.487  18.117  0.00  0.00    +0.000 A 
ATOM     17  C   UNL     1       1.517   2.507  18.571  0.00  0.00    +0.000 A 
ATOM     18  C   UNL     1       0.742   2.713  19.709  0.00  0.00    +0.000 A 
ATOM     19  C   UNL     1       0.870   3.897  20.419  0.00  0.00    +0.000 A 
ATOM     20  C   UNL     1       1.746   4.890  19.971  0.00  0.00    +0.000 A 
ATOM     21  C   UNL     1       2.525   4.730  18.799  0.00  0.00    +0.000 A 
ENDBRANCH   1  12
TORSDOF 2
ENDMDL
MODEL 9
REMARK VINA RESULT:      -7.3      5.404      6.933
REMARK  Name = 
REMARK  3 active torsions:
REMARK  status: ('A' for Active; 'I' for Inactive)
REMARK    1  A    between atoms: C_1  and  C_2
REMARK    2  A    between atoms: C_7  and  C_9
REMARK    3  A    between atoms: C_9  and  C_10
REMARK                            x       y       z     vdW  Elec       q    Type
REMARK                         _______ _______ _______ _____ _____    ______ ____
ROOT
ATOM      1  C   UNL     1       8.032   6.458  18.616  0.00  0.00    +0.000 C 
ENDROOT
BRANCH   1   8
ATOM      2  C   UNL     1      10.561  13.576  19.119  0.00  0.00    +0.000 C 
ATOM      3  C   UNL     1       9.805  12.327  18.848  0.00  0.00    +0.000 A 
ATOM      4  C   UNL     1       8.845  12.087  17.886  0.00  0.00    +0.000 A 
ATOM      5  N   UNL     1       8.367  10.797  17.831  0.00  0.00    +0.000 NA
ATOM      6  C   UNL     1       8.945  10.073  18.753  0.00  0.00    +0.000 A 
ATOM      7  N   UNL     1       8.797   8.737  19.018  0.00  0.00    +0.000 N 
ATOM      8  C   UNL     1       8.082   7.916  18.166  0.00  0.00    +0.000 C 
ATOM      9  O   UNL     1       7.534   8.252  17.119  0.00  0.00    +0.000 OA
ATOM     10  S   UNL     1      10.056  10.892  19.763  0.00  0.00    +0.000 S 
ATOM     11  H   UNL     1       9.279   8.370  19.826  0.00  0.00    +0.000 HD
ENDBRANCH   1   8
BRANCH   1  12
ATOM     12  C   UNL     1       6.728   5.767  18.264  0.00  0.00    +0.000 A 
ATOM     13  C   UNL     1       5.746   5.694  19.273  0.00  0.00    +0.000 A 
ATOM     14  C   UNL     1       4.535   5.050  19.056  0.00  0.00    +0.000 A 
ATOM     15  C   UNL     1       4.281   4.457  17.826  0.00  0.00    +0.000 A 
ATOM     16  C   UNL     1       5.221   4.524  16.789  0.00  0.00    +0.000 A 
ATOM     17  C   UNL     1       4.932   3.914  15.559  0.00  0.00    +0.000 A 
ATOM     18  C   UNL     1       5.823   3.990  14.492  0.00  0.00    +0.000 A 
ATOM     19  C   UNL     1       7.009   4.694  14.639  0.00  0.00    +0.000 A 
ATOM     20  C   UNL     1       7.319   5.294  15.864  0.00  0.00    +0.000 A 
ATOM     21  C   UNL     1       6.453   5.209  16.981  0.00  0.00    +0.000 A 
ENDBRANCH   1  12
TORSDOF 2
ENDMDL
