MODEL 1
REMARK VINA RESULT:      -7.9      0.000      0.000
REMARK  Name = 
REMARK  5 active torsions:
REMARK  status: ('A' for Active; 'I' for Inactive)
REMARK    1  A    between atoms: C_1  and  C_2
REMARK    2  A    between atoms: C_5  and  C_7
REMARK    3  A    between atoms: C_12  and  O_13
REMARK    4  A    between atoms: C_17  and  C_18
REMARK    5  A    between atoms: C_22  and  O_23
REMARK                            x       y       z     vdW  Elec       q    Type
REMARK                         _______ _______ _______ _____ _____    ______ ____
ROOT
ATOM      1  C   UNL     1       1.589   5.153  20.869  0.00  0.00    +0.000 C 
ATOM      2  C   UNL     1       2.066   6.181  19.897  0.00  0.00    +0.000 C 
ATOM      3  N   UNL     1       1.607   7.399  19.878  0.00  0.00    +0.000 NA
ATOM      4  N   UNL     1       2.219   8.051  18.793  0.00  0.00    +0.000 N 
ATOM      5  C   UNL     1       1.835   9.347  18.408  0.00  0.00    +0.000 C 
ATOM      6  O   UNL     1       2.278   9.935  17.424  0.00  0.00    +0.000 OA
ATOM      7  C   UNL     1       3.152   7.239  18.113  0.00  0.00    +0.000 C 
ATOM      8  O   UNL     1       3.882   7.472  17.171  0.00  0.00    +0.000 OA
ATOM      9  C   UNL     1       3.062   5.946  18.846  0.00  0.00    +0.000 C 
ATOM     10  C   UNL     1       3.716   4.795  18.648  0.00  0.00    +0.000 C 
ENDROOT
BRANCH   5  11
ATOM     11  C   UNL     1       0.789  10.026  19.236  0.00  0.00    +0.000 A 
ATOM     12  C   UNL     1       1.043  10.344  20.580  0.00  0.00    +0.000 A 
ATOM     13  C   UNL     1       0.104  11.041  21.340  0.00  0.00    +0.000 A 
ATOM     14  C   UNL     1      -1.130  11.365  20.785  0.00  0.00    +0.000 A 
ATOM     15  C   UNL     1      -1.427  10.994  19.474  0.00  0.00    +0.000 A 
ATOM     16  C   UNL     1      -0.466  10.337  18.697  0.00  0.00    +0.000 A 
BRANCH  16  17
ATOM     17  O   UNL     1      -0.759  10.044  17.395  0.00  0.00    +0.000 OA
ATOM     18  H   UNL     1      -1.332   9.262  17.356  0.00  0.00    +0.000 HD
ENDBRANCH  16  17
ENDBRANCH   5  11
BRANCH  10  19
ATOM     19  C   UNL     1       4.736   4.588  17.619  0.00  0.00    +0.000 A 
ATOM     20  C   UNL     1       4.369   4.360  16.288  0.00  0.00    +0.000 A 
ATOM     21  C   UNL     1       5.350   4.138  15.317  0.00  0.00    +0.000 A 
ATOM     22  C   UNL     1       6.699   4.145  15.671  0.00  0.00    +0.000 A 
ATOM     23  C   UNL     1       7.057   4.381  16.995  0.00  0.00    +0.000 A 
ATOM     24  C   UNL     1       6.089   4.606  17.969  0.00  0.00    +0.000 A 
BRANCH  23  25
ATOM     25  O   UNL     1       8.364   4.398  17.384  0.00  0.00    +0.000 OA
ATOM     26  H   UNL     1       8.857   4.981  16.784  0.00  0.00    +0.000 HD
ENDBRANCH  23  25
ENDBRANCH  10  19
TORSDOF 4
ENDMDL
MODEL 2
REMARK VINA RESULT:      -7.8      0.979      1.388
REMARK  Name = 
REMARK  5 active torsions:
REMARK  status: ('A' for Active; 'I' for Inactive)
REMARK    1  A    between atoms: C_1  and  C_2
REMARK    2  A    between atoms: C_5  and  C_7
REMARK    3  A    between atoms: C_12  and  O_13
REMARK    4  A    between atoms: C_17  and  C_18
REMARK    5  A    between atoms: C_22  and  O_23
REMARK                            x       y       z     vdW  Elec       q    Type
REMARK                         _______ _______ _______ _____ _____    ______ ____
ROOT
ATOM      1  C   UNL     1       1.828   4.977  20.781  0.00  0.00    +0.000 C 
ATOM      2  C   UNL     1       2.273   6.042  19.834  0.00  0.00    +0.000 C 
ATOM      3  N   UNL     1       1.763   7.240  19.831  0.00  0.00    +0.000 NA
ATOM      4  N   UNL     1       2.360   7.937  18.767  0.00  0.00    +0.000 N 
ATOM      5  C   UNL     1       1.925   9.222  18.400  0.00  0.00    +0.000 C 
ATOM      6  O   UNL     1       2.355   9.847  17.432  0.00  0.00    +0.000 OA
ATOM      7  C   UNL     1       3.336   7.178  18.084  0.00  0.00    +0.000 C 
ATOM      8  O   UNL     1       4.066   7.459  17.156  0.00  0.00    +0.000 OA
ATOM      9  C   UNL     1       3.291   5.870  18.792  0.00  0.00    +0.000 C 
ATOM     10  C   UNL     1       3.997   4.751  18.582  0.00  0.00    +0.000 C 
ENDROOT
BRANCH   5  11
ATOM     11  C   UNL     1       0.841   9.841  19.225  0.00  0.00    +0.000 A 
ATOM     12  C   UNL     1       1.029  10.050  20.602  0.00  0.00    +0.000 A 
ATOM     13  C   UNL     1       0.055  10.692  21.367  0.00  0.00    +0.000 A 
ATOM     14  C   UNL     1      -1.149  11.067  20.779  0.00  0.00    +0.000 A 
ATOM     15  C   UNL     1      -1.381  10.802  19.429  0.00  0.00    +0.000 A 
ATOM     16  C   UNL     1      -0.384  10.202  18.652  0.00  0.00    +0.000 A 
BRANCH  16  17
ATOM     17  O   UNL     1      -0.612  10.013  17.318  0.00  0.00    +0.000 OA
ATOM     18  H   UNL     1      -1.546   9.796  17.172  0.00  0.00    +0.000 HD
ENDBRANCH  16  17
ENDBRANCH   5  11
BRANCH  10  19
ATOM     19  C   UNL     1       5.037   4.607  17.563  0.00  0.00    +0.000 A 
ATOM     20  C   UNL     1       6.389   4.718  17.906  0.00  0.00    +0.000 A 
ATOM     21  C   UNL     1       7.374   4.604  16.920  0.00  0.00    +0.000 A 
ATOM     22  C   UNL     1       7.014   4.378  15.592  0.00  0.00    +0.000 A 
ATOM     23  C   UNL     1       5.667   4.260  15.261  0.00  0.00    +0.000 A 
ATOM     24  C   UNL     1       4.678   4.370  16.234  0.00  0.00    +0.000 A 
BRANCH  23  25
ATOM     25  O   UNL     1       5.270   4.038  13.974  0.00  0.00    +0.000 OA
ATOM     26  H   UNL     1       5.471   4.830  13.450  0.00  0.00    +0.000 HD
ENDBRANCH  23  25
ENDBRANCH  10  19
TORSDOF 4
ENDMDL
MODEL 3
REMARK VINA RESULT:      -7.1      1.601      2.009
REMARK  Name = 
REMARK  5 active torsions:
REMARK  status: ('A' for Active; 'I' for Inactive)
REMARK    1  A    between atoms: C_1  and  C_2
REMARK    2  A    between atoms: C_5  and  C_7
REMARK    3  A    between atoms: C_12  and  O_13
REMARK    4  A    between atoms: C_17  and  C_18
REMARK    5  A    between atoms: C_22  and  O_23
REMARK                            x       y       z     vdW  Elec       q    Type
REMARK                         _______ _______ _______ _____ _____    ______ ____
ROOT
ATOM      1  C   UNL     1       2.997   4.109  20.252  0.00  0.00    +0.000 C 
ATOM      2  C   UNL     1       3.163   5.318  19.393  0.00  0.00    +0.000 C 
ATOM      3  N   UNL     1       2.565   6.447  19.642  0.00  0.00    +0.000 NA
ATOM      4  N   UNL     1       2.887   7.322  18.591  0.00  0.00    +0.000 N 
ATOM      5  C   UNL     1       2.286   8.588  18.484  0.00  0.00    +0.000 C 
ATOM      6  O   UNL     1       2.469   9.364  17.548  0.00  0.00    +0.000 OA
ATOM      7  C   UNL     1       3.773   6.757  17.649  0.00  0.00    +0.000 C 
ATOM      8  O   UNL     1       4.286   7.220  16.652  0.00  0.00    +0.000 OA
ATOM      9  C   UNL     1       3.973   5.377  18.172  0.00  0.00    +0.000 C 
ATOM     10  C   UNL     1       4.715   4.372  17.690  0.00  0.00    +0.000 C 
ENDROOT
BRANCH   5  11
ATOM     11  C   UNL     1       1.332   8.988  19.567  0.00  0.00    +0.000 A 
ATOM     12  C   UNL     1       1.589   8.640  20.903  0.00  0.00    +0.000 A 
ATOM     13  C   UNL     1       0.746   9.069  21.929  0.00  0.00    +0.000 A 
ATOM     14  C   UNL     1      -0.403   9.790  21.622  0.00  0.00    +0.000 A 
ATOM     15  C   UNL     1      -0.712  10.082  20.293  0.00  0.00    +0.000 A 
ATOM     16  C   UNL     1       0.159   9.693  19.269  0.00  0.00    +0.000 A 
BRANCH  16  17
ATOM     17  O   UNL     1      -0.133  10.050  17.983  0.00  0.00    +0.000 OA
ATOM     18  H   UNL     1      -0.104   9.267  17.411  0.00  0.00    +0.000 HD
ENDBRANCH  16  17
ENDBRANCH   5  11
BRANCH  10  19
ATOM     19  C   UNL     1       5.550   4.459  16.491  0.00  0.00    +0.000 A 
ATOM     20  C   UNL     1       6.820   5.042  16.548  0.00  0.00    +0.000 A 
ATOM     21  C   UNL     1       7.599   5.144  15.392  0.00  0.00    +0.000 A 
ATOM     22  C   UNL     1       7.114   4.662  14.177  0.00  0.00    +0.000 A 
ATOM     23  C   UNL     1       5.852   4.076  14.129  0.00  0.00    +0.000 A 
ATOM     24  C   UNL     1       5.069   3.968  15.274  0.00  0.00    +0.000 A 
BRANCH  23  25
ATOM     25  O   UNL     1       5.339   3.592  12.961  0.00  0.00    +0.000 OA
ATOM     26  H   UNL     1       5.276   2.625  13.030  0.00  0.00    +0.000 HD
ENDBRANCH  23  25
ENDBRANCH  10  19
TORSDOF 4
ENDMDL
MODEL 4
REMARK VINA RESULT:      -7.0      1.175      1.922
REMARK  Name = 
REMARK  5 active torsions:
REMARK  status: ('A' for Active; 'I' for Inactive)
REMARK    1  A    between atoms: C_1  and  C_2
REMARK    2  A    between atoms: C_5  and  C_7
REMARK    3  A    between atoms: C_12  and  O_13
REMARK    4  A    between atoms: C_17  and  C_18
REMARK    5  A    between atoms: C_22  and  O_23
REMARK                            x       y       z     vdW  Elec       q    Type
REMARK                         _______ _______ _______ _____ _____    ______ ____
ROOT
ATOM      1  C   UNL     1       1.467   5.323  20.921  0.00  0.00    +0.000 C 
ATOM      2  C   UNL     1       2.017   6.304  19.940  0.00  0.00    +0.000 C 
ATOM      3  N   UNL     1       1.463   7.460  19.713  0.00  0.00    +0.000 NA
ATOM      4  N   UNL     1       2.199   8.073  18.685  0.00  0.00    +0.000 N 
ATOM      5  C   UNL     1       1.776   9.281  18.104  0.00  0.00    +0.000 C 
ATOM      6  O   UNL     1       2.334   9.823  17.152  0.00  0.00    +0.000 OA
ATOM      7  C   UNL     1       3.308   7.309  18.265  0.00  0.00    +0.000 C 
ATOM      8  O   UNL     1       4.171   7.532  17.441  0.00  0.00    +0.000 OA
ATOM      9  C   UNL     1       3.203   6.085  19.106  0.00  0.00    +0.000 C 
ATOM     10  C   UNL     1       3.983   4.997  19.146  0.00  0.00    +0.000 C 
ENDROOT
BRANCH   5  11
ATOM     11  C   UNL     1       0.541   9.916  18.663  0.00  0.00    +0.000 A 
ATOM     12  C   UNL     1      -0.638   9.968  17.901  0.00  0.00    +0.000 A 
ATOM     13  C   UNL     1      -1.814  10.492  18.438  0.00  0.00    +0.000 A 
ATOM     14  C   UNL     1      -1.806  11.035  19.719  0.00  0.00    +0.000 A 
ATOM     15  C   UNL     1      -0.626  11.056  20.463  0.00  0.00    +0.000 A 
ATOM     16  C   UNL     1       0.541  10.488  19.942  0.00  0.00    +0.000 A 
BRANCH  16  17
ATOM     17  O   UNL     1       1.666  10.462  20.717  0.00  0.00    +0.000 OA
ATOM     18  H   UNL     1       2.174   9.657  20.533  0.00  0.00    +0.000 HD
ENDBRANCH  16  17
ENDBRANCH   5  11
BRANCH  10  19
ATOM     19  C   UNL     1       5.186   4.809  18.334  0.00  0.00    +0.000 A 
ATOM     20  C   UNL     1       6.434   5.238  18.800  0.00  0.00    +0.000 A 
ATOM     21  C   UNL     1       7.573   5.077  18.006  0.00  0.00    +0.000 A 
ATOM     22  C   UNL     1       7.471   4.487  16.746  0.00  0.00    +0.000 A 
ATOM     23  C   UNL     1       6.227   4.056  16.293  0.00  0.00    +0.000 A 
ATOM     24  C   UNL     1       5.087   4.209  17.076  0.00  0.00    +0.000 A 
BRANCH  23  25
ATOM     25  O   UNL     1       6.082   3.473  15.068  0.00  0.00    +0.000 OA
ATOM     26  H   UNL     1       6.639   3.951  14.432  0.00  0.00    +0.000 HD
ENDBRANCH  23  25
ENDBRANCH  10  19
TORSDOF 4
ENDMDL
MODEL 5
REMARK VINA RESULT:      -7.0      1.234      1.348
REMARK  Name = 
REMARK  5 active torsions:
REMARK  status: ('A' for Active; 'I' for Inactive)
REMARK    1  A    between atoms: C_1  and  C_2
REMARK    2  A    between atoms: C_5  and  C_7
REMARK    3  A    between atoms: C_12  and  O_13
REMARK    4  A    between atoms: C_17  and  C_18
REMARK    5  A    between atoms: C_22  and  O_23
REMARK                            x       y       z     vdW  Elec       q    Type
REMARK                         _______ _______ _______ _____ _____    ______ ____
ROOT
ATOM      1  C   UNL     1       2.133   4.462  21.152  0.00  0.00    +0.000 C 
ATOM      2  C   UNL     1       2.353   5.683  20.321  0.00  0.00    +0.000 C 
ATOM      3  N   UNL     1       1.825   6.837  20.611  0.00  0.00    +0.000 NA
ATOM      4  N   UNL     1       2.178   7.721  19.577  0.00  0.00    +0.000 N 
ATOM      5  C   UNL     1       1.649   9.021  19.515  0.00  0.00    +0.000 C 
ATOM      6  O   UNL     1       1.860   9.810  18.595  0.00  0.00    +0.000 OA
ATOM      7  C   UNL     1       3.014   7.131  18.604  0.00  0.00    +0.000 C 
ATOM      8  O   UNL     1       3.535   7.591  17.609  0.00  0.00    +0.000 OA
ATOM      9  C   UNL     1       3.144   5.729  19.087  0.00  0.00    +0.000 C 
ATOM     10  C   UNL     1       3.818   4.696  18.565  0.00  0.00    +0.000 C 
ENDROOT
BRANCH   5  11
ATOM     11  C   UNL     1       0.739   9.445  20.625  0.00  0.00    +0.000 A 
ATOM     12  C   UNL     1       0.990   9.034  21.944  0.00  0.00    +0.000 A 
ATOM     13  C   UNL     1       0.192   9.482  22.997  0.00  0.00    +0.000 A 
ATOM     14  C   UNL     1      -0.911  10.288  22.733  0.00  0.00    +0.000 A 
ATOM     15  C   UNL     1      -1.217  10.647  21.420  0.00  0.00    +0.000 A 
ATOM     16  C   UNL     1      -0.388  10.237  20.370  0.00  0.00    +0.000 A 
BRANCH  16  17
ATOM     17  O   UNL     1      -0.673  10.657  19.102  0.00  0.00    +0.000 OA
ATOM     18  H   UNL     1      -0.673  11.626  19.069  0.00  0.00    +0.000 HD
ENDBRANCH  16  17
ENDBRANCH   5  11
BRANCH  10  19
ATOM     19  C   UNL     1       4.635   4.768  17.353  0.00  0.00    +0.000 A 
ATOM     20  C   UNL     1       4.275   4.048  16.208  0.00  0.00    +0.000 A 
ATOM     21  C   UNL     1       5.076   4.103  15.064  0.00  0.00    +0.000 A 
ATOM     22  C   UNL     1       6.236   4.877  15.057  0.00  0.00    +0.000 A 
ATOM     23  C   UNL     1       6.583   5.597  16.197  0.00  0.00    +0.000 A 
ATOM     24  C   UNL     1       5.792   5.551  17.341  0.00  0.00    +0.000 A 
BRANCH  23  25
ATOM     25  O   UNL     1       7.709   6.367  16.235  0.00  0.00    +0.000 OA
ATOM     26  H   UNL     1       8.277   6.117  15.488  0.00  0.00    +0.000 HD
ENDBRANCH  23  25
ENDBRANCH  10  19
TORSDOF 4
ENDMDL
MODEL 6
REMARK VINA RESULT:      -6.9      1.224      1.686
REMARK  Name = 
REMARK  5 active torsions:
REMARK  status: ('A' for Active; 'I' for Inactive)
REMARK    1  A    between atoms: C_1  and  C_2
REMARK    2  A    between atoms: C_5  and  C_7
REMARK    3  A    between atoms: C_12  and  O_13
REMARK    4  A    between atoms: C_17  and  C_18
REMARK    5  A    between atoms: C_22  and  O_23
REMARK                            x       y       z     vdW  Elec       q    Type
REMARK                         _______ _______ _______ _____ _____    ______ ____
ROOT
ATOM      1  C   UNL     1       1.460   4.425  20.824  0.00  0.00    +0.000 C 
ATOM      2  C   UNL     1       1.989   5.599  20.068  0.00  0.00    +0.000 C 
ATOM      3  N   UNL     1       1.584   6.816  20.284  0.00  0.00    +0.000 NA
ATOM      4  N   UNL     1       2.233   7.637  19.345  0.00  0.00    +0.000 N 
ATOM      5  C   UNL     1       1.908   8.998  19.217  0.00  0.00    +0.000 C 
ATOM      6  O   UNL     1       2.385   9.745  18.364  0.00  0.00    +0.000 OA
ATOM      7  C   UNL     1       3.137   6.931  18.523  0.00  0.00    +0.000 C 
ATOM      8  O   UNL     1       3.884   7.308  17.643  0.00  0.00    +0.000 OA
ATOM      9  C   UNL     1       2.984   5.527  18.993  0.00  0.00    +0.000 C 
ATOM     10  C   UNL     1       3.590   4.408  18.577  0.00  0.00    +0.000 C 
ENDROOT
BRANCH   5  11
ATOM     11  C   UNL     1       0.884   9.551  20.158  0.00  0.00    +0.000 A 
ATOM     12  C   UNL     1      -0.273  10.175  19.662  0.00  0.00    +0.000 A 
ATOM     13  C   UNL     1      -1.268  10.629  20.528  0.00  0.00    +0.000 A 
ATOM     14  C   UNL     1      -1.084  10.529  21.904  0.00  0.00    +0.000 A 
ATOM     15  C   UNL     1       0.091   9.977  22.415  0.00  0.00    +0.000 A 
ATOM     16  C   UNL     1       1.067   9.478  21.545  0.00  0.00    +0.000 A 
BRANCH  16  17
ATOM     17  O   UNL     1       2.178   8.883  22.072  0.00  0.00    +0.000 OA
ATOM     18  H   UNL     1       1.919   8.276  22.783  0.00  0.00    +0.000 HD
ENDBRANCH  16  17
ENDBRANCH   5  11
BRANCH  10  19
ATOM     19  C   UNL     1       4.610   4.358  17.528  0.00  0.00    +0.000 A 
ATOM     20  C   UNL     1       4.242   4.276  16.181  0.00  0.00    +0.000 A 
ATOM     21  C   UNL     1       5.224   4.203  15.189  0.00  0.00    +0.000 A 
ATOM     22  C   UNL     1       6.574   4.214  15.537  0.00  0.00    +0.000 A 
ATOM     23  C   UNL     1       6.932   4.305  16.879  0.00  0.00    +0.000 A 
ATOM     24  C   UNL     1       5.963   4.380  17.875  0.00  0.00    +0.000 A 
BRANCH  23  25
ATOM     25  O   UNL     1       8.241   4.319  17.265  0.00  0.00    +0.000 OA
ATOM     26  H   UNL     1       8.315   3.865  18.119  0.00  0.00    +0.000 HD
ENDBRANCH  23  25
ENDBRANCH  10  19
TORSDOF 4
ENDMDL
MODEL 7
REMARK VINA RESULT:      -6.8      4.745      6.173
REMARK  Name = 
REMARK  5 active torsions:
REMARK  status: ('A' for Active; 'I' for Inactive)
REMARK    1  A    between atoms: C_1  and  C_2
REMARK    2  A    between atoms: C_5  and  C_7
REMARK    3  A    between atoms: C_12  and  O_13
REMARK    4  A    between atoms: C_17  and  C_18
REMARK    5  A    between atoms: C_22  and  O_23
REMARK                            x       y       z     vdW  Elec       q    Type
REMARK                         _______ _______ _______ _____ _____    ______ ____
ROOT
ATOM      1  C   UNL     1       7.380   5.493  18.705  0.00  0.00    +0.000 C 
ATOM      2  C   UNL     1       6.249   4.927  17.913  0.00  0.00    +0.000 C 
ATOM      3  N   UNL     1       5.127   4.551  18.456  0.00  0.00    +0.000 NA
ATOM      4  N   UNL     1       4.339   4.002  17.431  0.00  0.00    +0.000 N 
ATOM      5  C   UNL     1       3.113   3.372  17.710  0.00  0.00    +0.000 C 
ATOM      6  O   UNL     1       2.420   2.806  16.866  0.00  0.00    +0.000 OA
ATOM      7  C   UNL     1       4.952   4.072  16.161  0.00  0.00    +0.000 C 
ATOM      8  O   UNL     1       4.561   3.737  15.062  0.00  0.00    +0.000 OA
ATOM      9  C   UNL     1       6.268   4.697  16.465  0.00  0.00    +0.000 C 
ATOM     10  C   UNL     1       7.282   5.011  15.648  0.00  0.00    +0.000 C 
ENDROOT
BRANCH   5  11
ATOM     11  C   UNL     1       2.656   3.361  19.134  0.00  0.00    +0.000 A 
ATOM     12  C   UNL     1       1.550   4.131  19.530  0.00  0.00    +0.000 A 
ATOM     13  C   UNL     1       1.070   4.074  20.839  0.00  0.00    +0.000 A 
ATOM     14  C   UNL     1       1.735   3.300  21.785  0.00  0.00    +0.000 A 
ATOM     15  C   UNL     1       2.878   2.585  21.426  0.00  0.00    +0.000 A 
ATOM     16  C   UNL     1       3.330   2.606  20.102  0.00  0.00    +0.000 A 
BRANCH  16  17
ATOM     17  O   UNL     1       4.413   1.844  19.763  0.00  0.00    +0.000 OA
ATOM     18  H   UNL     1       5.153   2.044  20.356  0.00  0.00    +0.000 HD
ENDBRANCH  16  17
ENDBRANCH   5  11
BRANCH  10  19
ATOM     19  C   UNL     1       7.271   4.811  14.198  0.00  0.00    +0.000 A 
ATOM     20  C   UNL     1       7.894   5.731  13.348  0.00  0.00    +0.000 A 
ATOM     21  C   UNL     1       7.856   5.544  11.963  0.00  0.00    +0.000 A 
ATOM     22  C   UNL     1       7.198   4.439  11.424  0.00  0.00    +0.000 A 
ATOM     23  C   UNL     1       6.587   3.524  12.277  0.00  0.00    +0.000 A 
ATOM     24  C   UNL     1       6.621   3.699  13.657  0.00  0.00    +0.000 A 
BRANCH  23  25
ATOM     25  O   UNL     1       5.933   2.429  11.792  0.00  0.00    +0.000 OA
ATOM     26  H   UNL     1       5.197   2.221  12.390  0.00  0.00    +0.000 HD
ENDBRANCH  23  25
ENDBRANCH  10  19
TORSDOF 4
ENDMDL
MODEL 8
REMARK VINA RESULT:      -6.7      2.075      2.647
REMARK  Name = 
REMARK  5 active torsions:
REMARK  status: ('A' for Active; 'I' for Inactive)
REMARK    1  A    between atoms: C_1  and  C_2
REMARK    2  A    between atoms: C_5  and  C_7
REMARK    3  A    between atoms: C_12  and  O_13
REMARK    4  A    between atoms: C_17  and  C_18
REMARK    5  A    between atoms: C_22  and  O_23
REMARK                            x       y       z     vdW  Elec       q    Type
REMARK                         _______ _______ _______ _____ _____    ______ ____
ROOT
ATOM      1  C   UNL     1       0.254   8.112  21.973  0.00  0.00    +0.000 C 
ATOM      2  C   UNL     1       1.002   8.480  20.735  0.00  0.00    +0.000 C 
ATOM      3  N   UNL     1       1.064   9.701  20.286  0.00  0.00    +0.000 NA
ATOM      4  N   UNL     1       1.775   9.657  19.076  0.00  0.00    +0.000 N 
ATOM      5  C   UNL     1       1.900  10.795  18.260  0.00  0.00    +0.000 C 
ATOM      6  O   UNL     1       2.443  10.798  17.156  0.00  0.00    +0.000 OA
ATOM      7  C   UNL     1       2.241   8.364  18.752  0.00  0.00    +0.000 C 
ATOM      8  O   UNL     1       2.908   7.961  17.821  0.00  0.00    +0.000 OA
ATOM      9  C   UNL     1       1.718   7.535  19.872  0.00  0.00    +0.000 C 
ATOM     10  C   UNL     1       1.840   6.222  20.103  0.00  0.00    +0.000 C 
ENDROOT
BRANCH   5  11
ATOM     11  C   UNL     1       1.293  12.068  18.761  0.00  0.00    +0.000 A 
ATOM     12  C   UNL     1       2.094  13.035  19.392  0.00  0.00    +0.000 A 
ATOM     13  C   UNL     1       1.554  14.255  19.798  0.00  0.00    +0.000 A 
ATOM     14  C   UNL     1       0.192  14.494  19.643  0.00  0.00    +0.000 A 
ATOM     15  C   UNL     1      -0.631  13.515  19.083  0.00  0.00    +0.000 A 
ATOM     16  C   UNL     1      -0.080  12.311  18.633  0.00  0.00    +0.000 A 
BRANCH  16  17
ATOM     17  O   UNL     1      -0.897  11.397  18.029  0.00  0.00    +0.000 OA
ATOM     18  H   UNL     1      -0.361  10.718  17.589  0.00  0.00    +0.000 HD
ENDBRANCH  16  17
ENDBRANCH   5  11
BRANCH  10  19
ATOM     19  C   UNL     1       2.591   5.297  19.252  0.00  0.00    +0.000 A 
ATOM     20  C   UNL     1       1.962   4.638  18.189  0.00  0.00    +0.000 A 
ATOM     21  C   UNL     1       2.682   3.738  17.398  0.00  0.00    +0.000 A 
ATOM     22  C   UNL     1       4.029   3.494  17.663  0.00  0.00    +0.000 A 
ATOM     23  C   UNL     1       4.649   4.159  18.717  0.00  0.00    +0.000 A 
ATOM     24  C   UNL     1       3.943   5.059  19.509  0.00  0.00    +0.000 A 
BRANCH  23  25
ATOM     25  O   UNL     1       5.965   3.951  19.011  0.00  0.00    +0.000 OA
ATOM     26  H   UNL     1       6.357   3.414  18.303  0.00  0.00    +0.000 HD
ENDBRANCH  23  25
ENDBRANCH  10  19
TORSDOF 4
ENDMDL
MODEL 9
REMARK VINA RESULT:      -6.7      2.038      3.193
REMARK  Name = 
REMARK  5 active torsions:
REMARK  status: ('A' for Active; 'I' for Inactive)
REMARK    1  A    between atoms: C_1  and  C_2
REMARK    2  A    between atoms: C_5  and  C_7
REMARK    3  A    between atoms: C_12  and  O_13
REMARK    4  A    between atoms: C_17  and  C_18
REMARK    5  A    between atoms: C_22  and  O_23
REMARK                            x       y       z     vdW  Elec       q    Type
REMARK                         _______ _______ _______ _____ _____    ______ ____
ROOT
ATOM      1  C   UNL     1       4.341   3.166  18.726  0.00  0.00    +0.000 C 
ATOM      2  C   UNL     1       4.288   4.475  18.010  0.00  0.00    +0.000 C 
ATOM      3  N   UNL     1       3.666   5.514  18.488  0.00  0.00    +0.000 NA
ATOM      4  N   UNL     1       3.758   6.527  17.519  0.00  0.00    +0.000 N 
ATOM      5  C   UNL     1       3.067   7.743  17.665  0.00  0.00    +0.000 C 
ATOM      6  O   UNL     1       3.047   8.633  16.817  0.00  0.00    +0.000 OA
ATOM      7  C   UNL     1       4.515   6.149  16.390  0.00  0.00    +0.000 C 
ATOM      8  O   UNL     1       4.830   6.764  15.392  0.00  0.00    +0.000 OA
ATOM      9  C   UNL     1       4.886   4.740  16.698  0.00  0.00    +0.000 C 
ATOM     10  C   UNL     1       5.603   3.862  15.986  0.00  0.00    +0.000 C 
ENDROOT
BRANCH   5  11
ATOM     11  C   UNL     1       2.276   7.935  18.921  0.00  0.00    +0.000 A 
ATOM     12  C   UNL     1       2.230   6.921  19.893  0.00  0.00    +0.000 A 
ATOM     13  C   UNL     1       1.557   7.117  21.099  0.00  0.00    +0.000 A 
ATOM     14  C   UNL     1       0.861   8.303  21.317  0.00  0.00    +0.000 A 
ATOM     15  C   UNL     1       0.837   9.291  20.333  0.00  0.00    +0.000 A 
ATOM     16  C   UNL     1       1.553   9.113  19.144  0.00  0.00    +0.000 A 
BRANCH  16  17
ATOM     17  O   UNL     1       1.566  10.124  18.225  0.00  0.00    +0.000 OA
ATOM     18  H   UNL     1       2.366  10.061  17.679  0.00  0.00    +0.000 HD
ENDBRANCH  16  17
ENDBRANCH   5  11
BRANCH  10  19
ATOM     19  C   UNL     1       6.226   4.154  14.694  0.00  0.00    +0.000 A 
ATOM     20  C   UNL     1       5.722   3.592  13.517  0.00  0.00    +0.000 A 
ATOM     21  C   UNL     1       6.340   3.857  12.291  0.00  0.00    +0.000 A 
ATOM     22  C   UNL     1       7.460   4.685  12.237  0.00  0.00    +0.000 A 
ATOM     23  C   UNL     1       7.952   5.247  13.412  0.00  0.00    +0.000 A 
ATOM     24  C   UNL     1       7.343   4.992  14.637  0.00  0.00    +0.000 A 
BRANCH  23  25
ATOM     25  O   UNL     1       9.046   6.063  13.404  0.00  0.00    +0.000 OA
ATOM     26  H   UNL     1       9.381   6.136  14.313  0.00  0.00    +0.000 HD
ENDBRANCH  23  25
ENDBRANCH  10  19
TORSDOF 4
ENDMDL
