MODEL 1
REMARK VINA RESULT:      -7.4      0.000      0.000
REMARK  Name = 
REMARK  10 active torsions:
REMARK  status: ('A' for Active; 'I' for Inactive)
REMARK    1  A    between atoms: C_1  and  C_2
REMARK    2  A    between atoms: C_5  and  C_6
REMARK    3  A    between atoms: C_8  and  C_9
REMARK    4  A    between atoms: C_14  and  C_15
REMARK    5  A    between atoms: C_15  and  C_16
REMARK    6  A    between atoms: C_16  and  C_17
REMARK    7  A    between atoms: C_16  and  C_18
REMARK    8  A    between atoms: C_19  and  C_20
REMARK    9  A    between atoms: C_22  and  N_23
REMARK   10  A    between atoms: C_28  and  C_29
REMARK                            x       y       z     vdW  Elec       q    Type
REMARK                         _______ _______ _______ _____ _____    ______ ____
ROOT
ATOM      1  C   UNL     1      -5.686  13.845  21.240  0.00  0.00    +0.000 C 
ATOM      2  C   UNL     1      -5.257  14.913  22.303  0.00  0.00    +0.000 C 
ATOM      3  C   UNL     1      -5.593  14.843  23.620  0.00  0.00    +0.000 C 
ATOM      4  O   UNL     1      -6.402  13.833  24.127  0.00  0.00    +0.000 OA
ATOM      5  C   UNL     1      -6.831  12.877  23.290  0.00  0.00    +0.000 A 
ATOM      6  N   UNL     1      -7.574  11.894  23.778  0.00  0.00    +0.000 NA
ATOM      7  N   UNL     1      -7.782  11.127  22.702  0.00  0.00    +0.000 N 
ATOM      8  C   UNL     1      -7.161  11.581  21.560  0.00  0.00    +0.000 A 
ATOM      9  C   UNL     1      -7.261  10.778  20.318  0.00  0.00    +0.000 C 
ATOM     10  C   UNL     1      -6.539  12.776  21.917  0.00  0.00    +0.000 A 
ATOM     11  H   UNL     1      -8.344  10.288  22.815  0.00  0.00    +0.000 HD
ENDROOT
BRANCH   1  16
ATOM     12  C   UNL     1      -3.122  11.842  19.073  0.00  0.00    +0.000 A 
ATOM     13  C   UNL     1      -2.099  11.634  20.010  0.00  0.00    +0.000 A 
ATOM     14  C   UNL     1      -2.218  12.075  21.332  0.00  0.00    +0.000 A 
ATOM     15  C   UNL     1      -3.356  12.811  21.705  0.00  0.00    +0.000 A 
ATOM     16  C   UNL     1      -4.372  13.133  20.784  0.00  0.00    +0.000 A 
ATOM     17  C   UNL     1      -4.237  12.599  19.482  0.00  0.00    +0.000 A 
BRANCH  12  22
ATOM     18  C   UNL     1      -3.029   9.642  13.760  0.00  0.00    +0.000 C 
ATOM     19  C   UNL     1      -3.016  10.170  15.163  0.00  0.00    +0.000 A 
ATOM     20  C   UNL     1      -2.066   9.745  16.085  0.00  0.00    +0.000 A 
ATOM     21  C   UNL     1      -2.101  10.269  17.379  0.00  0.00    +0.000 A 
ATOM     22  C   UNL     1      -3.070  11.213  17.738  0.00  0.00    +0.000 A 
ATOM     23  C   UNL     1      -3.963  11.574  16.726  0.00  0.00    +0.000 A 
ATOM     24  N   UNL     1      -3.967  11.074  15.469  0.00  0.00    +0.000 NA
ENDBRANCH  12  22
BRANCH  14  25
ATOM     25  C   UNL     1      -1.169  11.721  22.360  0.00  0.00    +0.000 C 
ATOM     26  F   UNL     1      -1.670  11.085  23.453  0.00  0.00    +0.000 F 
ATOM     27  F   UNL     1      -0.209  10.897  21.852  0.00  0.00    +0.000 F 
ATOM     28  F   UNL     1      -0.513  12.815  22.832  0.00  0.00    +0.000 F 
ENDBRANCH  14  25
ENDBRANCH   1  16
BRANCH   1  29
ATOM     29  C   UNL     1      -6.489  14.565  20.072  0.00  0.00    +0.000 C 
ATOM     30  C   UNL     1      -6.579  13.794  18.747  0.00  0.00    +0.000 C 
ATOM     31  C   UNL     1      -7.917  14.979  20.472  0.00  0.00    +0.000 C 
ENDBRANCH   1  29
BRANCH   3  32
ATOM     32  N   UNL     1      -5.189  15.725  24.595  0.00  0.00    +0.000 N 
ATOM     33  H   UNL     1      -5.126  15.369  25.544  0.00  0.00    +0.000 HD
ATOM     34  H   UNL     1      -4.389  16.286  24.308  0.00  0.00    +0.000 HD
ENDBRANCH   3  32
BRANCH   2  35
ATOM     35  C   UNL     1      -4.443  16.000  21.853  0.00  0.00    +0.000 C 
ATOM     36  N   UNL     1      -3.810  16.907  21.503  0.00  0.00    +0.000 NA
ENDBRANCH   2  35
TORSDOF 6
ENDMDL
MODEL 2
REMARK VINA RESULT:      -7.3      9.708     12.414
REMARK  Name = 
REMARK  10 active torsions:
REMARK  status: ('A' for Active; 'I' for Inactive)
REMARK    1  A    between atoms: C_1  and  C_2
REMARK    2  A    between atoms: C_5  and  C_6
REMARK    3  A    between atoms: C_8  and  C_9
REMARK    4  A    between atoms: C_14  and  C_15
REMARK    5  A    between atoms: C_15  and  C_16
REMARK    6  A    between atoms: C_16  and  C_17
REMARK    7  A    between atoms: C_16  and  C_18
REMARK    8  A    between atoms: C_19  and  C_20
REMARK    9  A    between atoms: C_22  and  N_23
REMARK   10  A    between atoms: C_28  and  C_29
REMARK                            x       y       z     vdW  Elec       q    Type
REMARK                         _______ _______ _______ _____ _____    ______ ____
ROOT
ATOM      1  C   UNL     1       2.878   4.809  18.617  0.00  0.00    +0.000 C 
ATOM      2  C   UNL     1       2.388   6.173  19.213  0.00  0.00    +0.000 C 
ATOM      3  C   UNL     1       2.181   6.384  20.542  0.00  0.00    +0.000 C 
ATOM      4  O   UNL     1       2.336   5.375  21.486  0.00  0.00    +0.000 OA
ATOM      5  C   UNL     1       2.741   4.166  21.070  0.00  0.00    +0.000 A 
ATOM      6  N   UNL     1       2.923   3.213  21.972  0.00  0.00    +0.000 NA
ATOM      7  N   UNL     1       3.350   2.188  21.227  0.00  0.00    +0.000 N 
ATOM      8  C   UNL     1       3.476   2.480  19.888  0.00  0.00    +0.000 A 
ATOM      9  C   UNL     1       4.008   1.443  18.971  0.00  0.00    +0.000 C 
ATOM     10  C   UNL     1       3.042   3.796  19.746  0.00  0.00    +0.000 A 
ATOM     11  H   UNL     1       3.561   1.312  21.698  0.00  0.00    +0.000 HD
ENDROOT
BRANCH   1  16
ATOM     12  C   UNL     1       5.923   4.955  16.168  0.00  0.00    +0.000 A 
ATOM     13  C   UNL     1       6.950   5.313  17.056  0.00  0.00    +0.000 A 
ATOM     14  C   UNL     1       6.712   5.467  18.425  0.00  0.00    +0.000 A 
ATOM     15  C   UNL     1       5.399   5.337  18.908  0.00  0.00    +0.000 A 
ATOM     16  C   UNL     1       4.312   5.072  18.052  0.00  0.00    +0.000 A 
ATOM     17  C   UNL     1       4.619   4.852  16.690  0.00  0.00    +0.000 A 
BRANCH  12  22
ATOM     18  C   UNL     1       7.357   3.654  10.754  0.00  0.00    +0.000 C 
ATOM     19  C   UNL     1       6.927   3.970  12.154  0.00  0.00    +0.000 A 
ATOM     20  C   UNL     1       5.780   3.407  12.702  0.00  0.00    +0.000 A 
ATOM     21  C   UNL     1       5.425   3.737  14.011  0.00  0.00    +0.000 A 
ATOM     22  C   UNL     1       6.217   4.612  14.763  0.00  0.00    +0.000 A 
ATOM     23  C   UNL     1       7.351   5.105  14.114  0.00  0.00    +0.000 A 
ATOM     24  N   UNL     1       7.715   4.819  12.843  0.00  0.00    +0.000 NA
ENDBRANCH  12  22
BRANCH  14  25
ATOM     25  C   UNL     1       7.854   5.716  19.382  0.00  0.00    +0.000 C 
ATOM     26  F   UNL     1       7.486   5.679  20.691  0.00  0.00    +0.000 F 
ATOM     27  F   UNL     1       8.850   4.795  19.245  0.00  0.00    +0.000 F 
ATOM     28  F   UNL     1       8.438   6.930  19.193  0.00  0.00    +0.000 F 
ENDBRANCH  14  25
ENDBRANCH   1  16
BRANCH   1  29
ATOM     29  C   UNL     1       1.824   4.303  17.539  0.00  0.00    +0.000 C 
ATOM     30  C   UNL     1       2.374   3.366  16.453  0.00  0.00    +0.000 C 
ATOM     31  C   UNL     1       0.588   3.628  18.159  0.00  0.00    +0.000 C 
ENDBRANCH   1  29
BRANCH   3  32
ATOM     32  N   UNL     1       1.809   7.578  21.112  0.00  0.00    +0.000 N 
ATOM     33  H   UNL     1       1.410   7.541  22.045  0.00  0.00    +0.000 HD
ATOM     34  H   UNL     1       2.510   8.307  20.988  0.00  0.00    +0.000 HD
ENDBRANCH   3  32
BRANCH   2  35
ATOM     35  C   UNL     1       2.179   7.255  18.300  0.00  0.00    +0.000 C 
ATOM     36  N   UNL     1       2.015   8.157  17.589  0.00  0.00    +0.000 NA
ENDBRANCH   2  35
TORSDOF 6
ENDMDL
MODEL 3
REMARK VINA RESULT:      -7.0      4.194      6.467
REMARK  Name = 
REMARK  10 active torsions:
REMARK  status: ('A' for Active; 'I' for Inactive)
REMARK    1  A    between atoms: C_1  and  C_2
REMARK    2  A    between atoms: C_5  and  C_6
REMARK    3  A    between atoms: C_8  and  C_9
REMARK    4  A    between atoms: C_14  and  C_15
REMARK    5  A    between atoms: C_15  and  C_16
REMARK    6  A    between atoms: C_16  and  C_17
REMARK    7  A    between atoms: C_16  and  C_18
REMARK    8  A    between atoms: C_19  and  C_20
REMARK    9  A    between atoms: C_22  and  N_23
REMARK   10  A    between atoms: C_28  and  C_29
REMARK                            x       y       z     vdW  Elec       q    Type
REMARK                         _______ _______ _______ _____ _____    ______ ____
ROOT
ATOM      1  C   UNL     1      -1.182  13.271  21.030  0.00  0.00    +0.000 C 
ATOM      2  C   UNL     1      -2.621  13.891  21.054  0.00  0.00    +0.000 C 
ATOM      3  C   UNL     1      -2.914  15.134  20.585  0.00  0.00    +0.000 C 
ATOM      4  O   UNL     1      -1.936  15.990  20.089  0.00  0.00    +0.000 OA
ATOM      5  C   UNL     1      -0.669  15.553  20.040  0.00  0.00    +0.000 A 
ATOM      6  N   UNL     1       0.259  16.353  19.536  0.00  0.00    +0.000 NA
ATOM      7  N   UNL     1       1.361  15.599  19.608  0.00  0.00    +0.000 N 
ATOM      8  C   UNL     1       1.146  14.335  20.109  0.00  0.00    +0.000 A 
ATOM      9  C   UNL     1       2.280  13.382  20.172  0.00  0.00    +0.000 C 
ATOM     10  C   UNL     1      -0.207  14.284  20.439  0.00  0.00    +0.000 A 
ATOM     11  H   UNL     1       2.235  15.999  19.277  0.00  0.00    +0.000 HD
ENDROOT
BRANCH   1  16
ATOM     12  C   UNL     1      -0.202  10.041  19.056  0.00  0.00    +0.000 A 
ATOM     13  C   UNL     1      -1.187  10.042  18.057  0.00  0.00    +0.000 A 
ATOM     14  C   UNL     1      -2.133  11.067  17.962  0.00  0.00    +0.000 A 
ATOM     15  C   UNL     1      -2.143  12.077  18.939  0.00  0.00    +0.000 A 
ATOM     16  C   UNL     1      -1.240  12.079  20.021  0.00  0.00    +0.000 A 
ATOM     17  C   UNL     1      -0.258  11.061  20.026  0.00  0.00    +0.000 A 
BRANCH  12  22
ATOM     18  C   UNL     1       3.946   6.060  19.175  0.00  0.00    +0.000 C 
ATOM     19  C   UNL     1       2.890   7.121  19.092  0.00  0.00    +0.000 A 
ATOM     20  C   UNL     1       2.687   7.848  17.925  0.00  0.00    +0.000 A 
ATOM     21  C   UNL     1       1.690   8.825  17.904  0.00  0.00    +0.000 A 
ATOM     22  C   UNL     1       0.901   9.061  19.036  0.00  0.00    +0.000 A 
ATOM     23  C   UNL     1       1.187   8.262  20.145  0.00  0.00    +0.000 A 
ATOM     24  N   UNL     1       2.155   7.319  20.205  0.00  0.00    +0.000 NA
ENDBRANCH  12  22
BRANCH  14  25
ATOM     25  C   UNL     1      -3.096  11.123  16.800  0.00  0.00    +0.000 C 
ATOM     26  F   UNL     1      -2.509  11.469  15.622  0.00  0.00    +0.000 F 
ATOM     27  F   UNL     1      -3.705   9.923  16.578  0.00  0.00    +0.000 F 
ATOM     28  F   UNL     1      -4.097  12.021  16.995  0.00  0.00    +0.000 F 
ENDBRANCH  14  25
ENDBRANCH   1  16
BRANCH   1  29
ATOM     29  C   UNL     1      -0.764  12.866  22.510  0.00  0.00    +0.000 C 
ATOM     30  C   UNL     1      -1.157  13.861  23.612  0.00  0.00    +0.000 C 
ATOM     31  C   UNL     1      -1.268  11.474  22.932  0.00  0.00    +0.000 C 
ENDBRANCH   1  29
BRANCH   3  32
ATOM     32  N   UNL     1      -4.169  15.693  20.532  0.00  0.00    +0.000 N 
ATOM     33  H   UNL     1      -4.772  15.553  21.337  0.00  0.00    +0.000 HD
ATOM     34  H   UNL     1      -4.157  16.651  20.184  0.00  0.00    +0.000 HD
ENDBRANCH   3  32
BRANCH   2  35
ATOM     35  C   UNL     1      -3.679  13.081  21.574  0.00  0.00    +0.000 C 
ATOM     36  N   UNL     1      -4.555  12.425  21.962  0.00  0.00    +0.000 NA
ENDBRANCH   2  35
TORSDOF 6
ENDMDL
MODEL 4
REMARK VINA RESULT:      -7.0      2.128      4.176
REMARK  Name = 
REMARK  10 active torsions:
REMARK  status: ('A' for Active; 'I' for Inactive)
REMARK    1  A    between atoms: C_1  and  C_2
REMARK    2  A    between atoms: C_5  and  C_6
REMARK    3  A    between atoms: C_8  and  C_9
REMARK    4  A    between atoms: C_14  and  C_15
REMARK    5  A    between atoms: C_15  and  C_16
REMARK    6  A    between atoms: C_16  and  C_17
REMARK    7  A    between atoms: C_16  and  C_18
REMARK    8  A    between atoms: C_19  and  C_20
REMARK    9  A    between atoms: C_22  and  N_23
REMARK   10  A    between atoms: C_28  and  C_29
REMARK                            x       y       z     vdW  Elec       q    Type
REMARK                         _______ _______ _______ _____ _____    ______ ____
ROOT
ATOM      1  C   UNL     1      -2.676  14.163  22.299  0.00  0.00    +0.000 C 
ATOM      2  C   UNL     1      -4.112  13.720  22.745  0.00  0.00    +0.000 C 
ATOM      3  C   UNL     1      -5.257  14.239  22.224  0.00  0.00    +0.000 C 
ATOM      4  O   UNL     1      -5.247  15.258  21.278  0.00  0.00    +0.000 OA
ATOM      5  C   UNL     1      -4.063  15.713  20.842  0.00  0.00    +0.000 A 
ATOM      6  N   UNL     1      -4.050  16.660  19.915  0.00  0.00    +0.000 NA
ATOM      7  N   UNL     1      -2.742  16.837  19.700  0.00  0.00    +0.000 N 
ATOM      8  C   UNL     1      -1.934  16.003  20.438  0.00  0.00    +0.000 A 
ATOM      9  C   UNL     1      -0.466  16.057  20.235  0.00  0.00    +0.000 C 
ATOM     10  C   UNL     1      -2.793  15.256  21.241  0.00  0.00    +0.000 A 
ATOM     11  H   UNL     1      -2.461  17.533  19.015  0.00  0.00    +0.000 HD
ENDROOT
BRANCH   1  16
ATOM     12  C   UNL     1      -1.943  11.413  19.618  0.00  0.00    +0.000 A 
ATOM     13  C   UNL     1      -1.096  10.563  20.347  0.00  0.00    +0.000 A 
ATOM     14  C   UNL     1      -0.784  10.814  21.686  0.00  0.00    +0.000 A 
ATOM     15  C   UNL     1      -1.268  11.987  22.291  0.00  0.00    +0.000 A 
ATOM     16  C   UNL     1      -2.044  12.926  21.583  0.00  0.00    +0.000 A 
ATOM     17  C   UNL     1      -2.391  12.586  20.255  0.00  0.00    +0.000 A 
BRANCH  12  22
ATOM     18  C   UNL     1      -3.895  10.244  14.337  0.00  0.00    +0.000 C 
ATOM     19  C   UNL     1      -3.350  10.499  15.710  0.00  0.00    +0.000 A 
ATOM     20  C   UNL     1      -2.200   9.860  16.160  0.00  0.00    +0.000 A 
ATOM     21  C   UNL     1      -1.738  10.134  17.449  0.00  0.00    +0.000 A 
ATOM     22  C   UNL     1      -2.414  11.043  18.270  0.00  0.00    +0.000 A 
ATOM     23  C   UNL     1      -3.549  11.633  17.707  0.00  0.00    +0.000 A 
ATOM     24  N   UNL     1      -4.033  11.378  16.470  0.00  0.00    +0.000 NA
ENDBRANCH  12  22
BRANCH  14  25
ATOM     25  C   UNL     1       0.015   9.816  22.492  0.00  0.00    +0.000 C 
ATOM     26  F   UNL     1       1.353   9.869  22.253  0.00  0.00    +0.000 F 
ATOM     27  F   UNL     1      -0.135  10.002  23.834  0.00  0.00    +0.000 F 
ATOM     28  F   UNL     1      -0.358   8.532  22.247  0.00  0.00    +0.000 F 
ENDBRANCH  14  25
ENDBRANCH   1  16
BRANCH   1  29
ATOM     29  C   UNL     1      -1.870  14.677  23.570  0.00  0.00    +0.000 C 
ATOM     30  C   UNL     1      -0.396  15.033  23.328  0.00  0.00    +0.000 C 
ATOM     31  C   UNL     1      -2.533  15.874  24.275  0.00  0.00    +0.000 C 
ENDBRANCH   1  29
BRANCH   3  32
ATOM     32  N   UNL     1      -6.533  13.839  22.543  0.00  0.00    +0.000 N 
ATOM     33  H   UNL     1      -6.626  13.065  23.194  0.00  0.00    +0.000 HD
ATOM     34  H   UNL     1      -7.152  14.624  22.740  0.00  0.00    +0.000 HD
ENDBRANCH   3  32
BRANCH   2  35
ATOM     35  C   UNL     1      -4.206  12.693  23.737  0.00  0.00    +0.000 C 
ATOM     36  N   UNL     1      -4.320  11.870  24.548  0.00  0.00    +0.000 NA
ENDBRANCH   2  35
TORSDOF 6
ENDMDL
MODEL 5
REMARK VINA RESULT:      -6.9      3.381      5.133
REMARK  Name = 
REMARK  10 active torsions:
REMARK  status: ('A' for Active; 'I' for Inactive)
REMARK    1  A    between atoms: C_1  and  C_2
REMARK    2  A    between atoms: C_5  and  C_6
REMARK    3  A    between atoms: C_8  and  C_9
REMARK    4  A    between atoms: C_14  and  C_15
REMARK    5  A    between atoms: C_15  and  C_16
REMARK    6  A    between atoms: C_16  and  C_17
REMARK    7  A    between atoms: C_16  and  C_18
REMARK    8  A    between atoms: C_19  and  C_20
REMARK    9  A    between atoms: C_22  and  N_23
REMARK   10  A    between atoms: C_28  and  C_29
REMARK                            x       y       z     vdW  Elec       q    Type
REMARK                         _______ _______ _______ _____ _____    ______ ____
ROOT
ATOM      1  C   UNL     1      -2.056  13.715  21.660  0.00  0.00    +0.000 C 
ATOM      2  C   UNL     1      -1.788  15.017  20.830  0.00  0.00    +0.000 C 
ATOM      3  C   UNL     1      -0.625  15.264  20.169  0.00  0.00    +0.000 C 
ATOM      4  O   UNL     1       0.458  14.393  20.221  0.00  0.00    +0.000 OA
ATOM      5  C   UNL     1       0.329  13.255  20.919  0.00  0.00    +0.000 A 
ATOM      6  N   UNL     1       1.347  12.407  20.941  0.00  0.00    +0.000 NA
ATOM      7  N   UNL     1       0.866  11.398  21.676  0.00  0.00    +0.000 N 
ATOM      8  C   UNL     1      -0.436  11.572  22.086  0.00  0.00    +0.000 A 
ATOM      9  C   UNL     1      -1.102  10.488  22.849  0.00  0.00    +0.000 C 
ATOM     10  C   UNL     1      -0.816  12.828  21.618  0.00  0.00    +0.000 A 
ATOM     11  H   UNL     1       1.474  10.602  21.849  0.00  0.00    +0.000 HD
ENDROOT
BRANCH   1  16
ATOM     12  C   UNL     1      -3.928  11.695  18.885  0.00  0.00    +0.000 A 
ATOM     13  C   UNL     1      -5.239  11.727  19.384  0.00  0.00    +0.000 A 
ATOM     14  C   UNL     1      -5.558  12.414  20.560  0.00  0.00    +0.000 A 
ATOM     15  C   UNL     1      -4.526  13.018  21.297  0.00  0.00    +0.000 A 
ATOM     16  C   UNL     1      -3.177  12.938  20.898  0.00  0.00    +0.000 A 
ATOM     17  C   UNL     1      -2.921  12.297  19.664  0.00  0.00    +0.000 A 
BRANCH  12  22
ATOM     18  C   UNL     1      -2.863   9.755  13.578  0.00  0.00    +0.000 C 
ATOM     19  C   UNL     1      -3.109  10.212  14.983  0.00  0.00    +0.000 A 
ATOM     20  C   UNL     1      -2.372   9.704  16.048  0.00  0.00    +0.000 A 
ATOM     21  C   UNL     1      -2.644  10.165  17.337  0.00  0.00    +0.000 A 
ATOM     22  C   UNL     1      -3.635  11.130  17.553  0.00  0.00    +0.000 A 
ATOM     23  C   UNL     1      -4.300  11.577  16.409  0.00  0.00    +0.000 A 
ATOM     24  N   UNL     1      -4.073  11.140  15.149  0.00  0.00    +0.000 NA
ENDBRANCH  12  22
BRANCH  14  25
ATOM     25  C   UNL     1      -6.995  12.554  21.005  0.00  0.00    +0.000 C 
ATOM     26  F   UNL     1      -7.419  11.538  21.805  0.00  0.00    +0.000 F 
ATOM     27  F   UNL     1      -7.205  13.701  21.711  0.00  0.00    +0.000 F 
ATOM     28  F   UNL     1      -7.863  12.593  19.959  0.00  0.00    +0.000 F 
ENDBRANCH  14  25
ENDBRANCH   1  16
BRANCH   1  29
ATOM     29  C   UNL     1      -2.426  14.116  23.154  0.00  0.00    +0.000 C 
ATOM     30  C   UNL     1      -3.148  13.038  23.977  0.00  0.00    +0.000 C 
ATOM     31  C   UNL     1      -1.219  14.603  23.976  0.00  0.00    +0.000 C 
ENDBRANCH   1  29
BRANCH   3  32
ATOM     32  N   UNL     1      -0.371  16.363  19.383  0.00  0.00    +0.000 N 
ATOM     33  H   UNL     1      -0.844  16.411  18.487  0.00  0.00    +0.000 HD
ATOM     34  H   UNL     1      -0.390  17.235  19.911  0.00  0.00    +0.000 HD
ENDBRANCH   3  32
BRANCH   2  35
ATOM     35  C   UNL     1      -2.846  15.977  20.751  0.00  0.00    +0.000 C 
ATOM     36  N   UNL     1      -3.681  16.783  20.701  0.00  0.00    +0.000 NA
ENDBRANCH   2  35
TORSDOF 6
ENDMDL
MODEL 6
REMARK VINA RESULT:      -6.7      4.173      6.256
REMARK  Name = 
REMARK  10 active torsions:
REMARK  status: ('A' for Active; 'I' for Inactive)
REMARK    1  A    between atoms: C_1  and  C_2
REMARK    2  A    between atoms: C_5  and  C_6
REMARK    3  A    between atoms: C_8  and  C_9
REMARK    4  A    between atoms: C_14  and  C_15
REMARK    5  A    between atoms: C_15  and  C_16
REMARK    6  A    between atoms: C_16  and  C_17
REMARK    7  A    between atoms: C_16  and  C_18
REMARK    8  A    between atoms: C_19  and  C_20
REMARK    9  A    between atoms: C_22  and  N_23
REMARK   10  A    between atoms: C_28  and  C_29
REMARK                            x       y       z     vdW  Elec       q    Type
REMARK                         _______ _______ _______ _____ _____    ______ ____
ROOT
ATOM      1  C   UNL     1      -0.739  12.778  21.235  0.00  0.00    +0.000 C 
ATOM      2  C   UNL     1      -1.514  12.175  22.456  0.00  0.00    +0.000 C 
ATOM      3  C   UNL     1      -2.683  12.683  22.933  0.00  0.00    +0.000 C 
ATOM      4  O   UNL     1      -3.265  13.828  22.403  0.00  0.00    +0.000 OA
ATOM      5  C   UNL     1      -2.669  14.425  21.360  0.00  0.00    +0.000 A 
ATOM      6  N   UNL     1      -3.241  15.497  20.831  0.00  0.00    +0.000 NA
ATOM      7  N   UNL     1      -2.417  15.795  19.821  0.00  0.00    +0.000 N 
ATOM      8  C   UNL     1      -1.363  14.920  19.678  0.00  0.00    +0.000 A 
ATOM      9  C   UNL     1      -0.419  15.107  18.549  0.00  0.00    +0.000 C 
ATOM     10  C   UNL     1      -1.488  14.004  20.721  0.00  0.00    +0.000 A 
ATOM     11  H   UNL     1      -2.639  16.602  19.245  0.00  0.00    +0.000 HD
ENDROOT
BRANCH   1  16
ATOM     12  C   UNL     1       0.215   9.822  18.861  0.00  0.00    +0.000 A 
ATOM     13  C   UNL     1      -0.816   9.911  17.912  0.00  0.00    +0.000 A 
ATOM     14  C   UNL     1      -1.787  10.915  17.979  0.00  0.00    +0.000 A 
ATOM     15  C   UNL     1      -1.772  11.806  19.065  0.00  0.00    +0.000 A 
ATOM     16  C   UNL     1      -0.819  11.708  20.099  0.00  0.00    +0.000 A 
ATOM     17  C   UNL     1       0.183  10.723  19.943  0.00  0.00    +0.000 A 
BRANCH  12  22
ATOM     18  C   UNL     1       4.433   5.953  18.313  0.00  0.00    +0.000 C 
ATOM     19  C   UNL     1       3.359   6.994  18.409  0.00  0.00    +0.000 A 
ATOM     20  C   UNL     1       3.161   7.924  17.395  0.00  0.00    +0.000 A 
ATOM     21  C   UNL     1       2.147   8.872  17.538  0.00  0.00    +0.000 A 
ATOM     22  C   UNL     1       1.336   8.880  18.679  0.00  0.00    +0.000 A 
ATOM     23  C   UNL     1       1.619   7.892  19.625  0.00  0.00    +0.000 A 
ATOM     24  N   UNL     1       2.603   6.969  19.525  0.00  0.00    +0.000 NA
ENDBRANCH  12  22
BRANCH  14  25
ATOM     25  C   UNL     1      -2.805  11.078  16.874  0.00  0.00    +0.000 C 
ATOM     26  F   UNL     1      -3.442   9.922  16.545  0.00  0.00    +0.000 F 
ATOM     27  F   UNL     1      -3.784  11.966  17.205  0.00  0.00    +0.000 F 
ATOM     28  F   UNL     1      -2.252  11.540  15.721  0.00  0.00    +0.000 F 
ENDBRANCH  14  25
ENDBRANCH   1  16
BRANCH   1  29
ATOM     29  C   UNL     1       0.738  13.154  21.688  0.00  0.00    +0.000 C 
ATOM     30  C   UNL     1       1.829  12.984  20.621  0.00  0.00    +0.000 C 
ATOM     31  C   UNL     1       0.860  14.577  22.262  0.00  0.00    +0.000 C 
ENDBRANCH   1  29
BRANCH   3  32
ATOM     32  N   UNL     1      -3.423  12.151  23.962  0.00  0.00    +0.000 N 
ATOM     33  H   UNL     1      -3.027  12.208  24.895  0.00  0.00    +0.000 HD
ATOM     34  H   UNL     1      -4.407  12.411  23.912  0.00  0.00    +0.000 HD
ENDBRANCH   3  32
BRANCH   2  35
ATOM     35  C   UNL     1      -0.962  11.009  23.075  0.00  0.00    +0.000 C 
ATOM     36  N   UNL     1      -0.540  10.067  23.607  0.00  0.00    +0.000 NA
ENDBRANCH   2  35
TORSDOF 6
ENDMDL
MODEL 7
REMARK VINA RESULT:      -6.7      3.415      4.492
REMARK  Name = 
REMARK  10 active torsions:
REMARK  status: ('A' for Active; 'I' for Inactive)
REMARK    1  A    between atoms: C_1  and  C_2
REMARK    2  A    between atoms: C_5  and  C_6
REMARK    3  A    between atoms: C_8  and  C_9
REMARK    4  A    between atoms: C_14  and  C_15
REMARK    5  A    between atoms: C_15  and  C_16
REMARK    6  A    between atoms: C_16  and  C_17
REMARK    7  A    between atoms: C_16  and  C_18
REMARK    8  A    between atoms: C_19  and  C_20
REMARK    9  A    between atoms: C_22  and  N_23
REMARK   10  A    between atoms: C_28  and  C_29
REMARK                            x       y       z     vdW  Elec       q    Type
REMARK                         _______ _______ _______ _____ _____    ______ ____
ROOT
ATOM      1  C   UNL     1      -4.371  14.087  21.658  0.00  0.00    +0.000 C 
ATOM      2  C   UNL     1      -4.064  13.451  23.056  0.00  0.00    +0.000 C 
ATOM      3  C   UNL     1      -4.968  12.727  23.771  0.00  0.00    +0.000 C 
ATOM      4  O   UNL     1      -6.276  12.538  23.338  0.00  0.00    +0.000 OA
ATOM      5  C   UNL     1      -6.639  13.057  22.155  0.00  0.00    +0.000 A 
ATOM      6  N   UNL     1      -7.874  12.848  21.724  0.00  0.00    +0.000 NA
ATOM      7  N   UNL     1      -7.872  13.458  20.534  0.00  0.00    +0.000 N 
ATOM      8  C   UNL     1      -6.660  14.013  20.189  0.00  0.00    +0.000 A 
ATOM      9  C   UNL     1      -6.514  14.657  18.861  0.00  0.00    +0.000 C 
ATOM     10  C   UNL     1      -5.817  13.787  21.276  0.00  0.00    +0.000 A 
ATOM     11  H   UNL     1      -8.729  13.444  19.988  0.00  0.00    +0.000 HD
ENDROOT
BRANCH   1  16
ATOM     12  C   UNL     1      -1.350  13.141  19.364  0.00  0.00    +0.000 A 
ATOM     13  C   UNL     1      -1.920  12.111  18.600  0.00  0.00    +0.000 A 
ATOM     14  C   UNL     1      -3.257  11.734  18.762  0.00  0.00    +0.000 A 
ATOM     15  C   UNL     1      -4.022  12.351  19.766  0.00  0.00    +0.000 A 
ATOM     16  C   UNL     1      -3.478  13.324  20.628  0.00  0.00    +0.000 A 
ATOM     17  C   UNL     1      -2.145  13.720  20.372  0.00  0.00    +0.000 A 
BRANCH  12  22
ATOM     18  C   UNL     1       3.942  14.924  17.991  0.00  0.00    +0.000 C 
ATOM     19  C   UNL     1       2.552  14.515  18.374  0.00  0.00    +0.000 A 
ATOM     20  C   UNL     1       1.600  15.455  18.753  0.00  0.00    +0.000 A 
ATOM     21  C   UNL     1       0.321  15.018  19.101  0.00  0.00    +0.000 A 
ATOM     22  C   UNL     1      -0.001  13.657  19.060  0.00  0.00    +0.000 A 
ATOM     23  C   UNL     1       1.030  12.807  18.653  0.00  0.00    +0.000 A 
ATOM     24  N   UNL     1       2.284  13.195  18.325  0.00  0.00    +0.000 NA
ENDBRANCH  12  22
BRANCH  14  25
ATOM     25  C   UNL     1      -3.889  10.721  17.837  0.00  0.00    +0.000 C 
ATOM     26  F   UNL     1      -3.894  11.103  16.531  0.00  0.00    +0.000 F 
ATOM     27  F   UNL     1      -3.246   9.519  17.874  0.00  0.00    +0.000 F 
ATOM     28  F   UNL     1      -5.185  10.463  18.155  0.00  0.00    +0.000 F 
ENDBRANCH  14  25
ENDBRANCH   1  16
BRANCH   1  29
ATOM     29  C   UNL     1      -4.109  15.654  21.729  0.00  0.00    +0.000 C 
ATOM     30  C   UNL     1      -4.008  16.378  20.378  0.00  0.00    +0.000 C 
ATOM     31  C   UNL     1      -5.137  16.410  22.591  0.00  0.00    +0.000 C 
ENDBRANCH   1  29
BRANCH   3  32
ATOM     32  N   UNL     1      -4.723  12.103  24.971  0.00  0.00    +0.000 N 
ATOM     33  H   UNL     1      -5.489  12.059  25.636  0.00  0.00    +0.000 HD
ATOM     34  H   UNL     1      -4.218  11.225  24.861  0.00  0.00    +0.000 HD
ENDBRANCH   3  32
BRANCH   2  35
ATOM     35  C   UNL     1      -2.746  13.625  23.584  0.00  0.00    +0.000 C 
ATOM     36  N   UNL     1      -1.669  13.792  23.984  0.00  0.00    +0.000 NA
ENDBRANCH   2  35
TORSDOF 6
ENDMDL
MODEL 8
REMARK VINA RESULT:      -6.7      3.269      4.125
REMARK  Name = 
REMARK  10 active torsions:
REMARK  status: ('A' for Active; 'I' for Inactive)
REMARK    1  A    between atoms: C_1  and  C_2
REMARK    2  A    between atoms: C_5  and  C_6
REMARK    3  A    between atoms: C_8  and  C_9
REMARK    4  A    between atoms: C_14  and  C_15
REMARK    5  A    between atoms: C_15  and  C_16
REMARK    6  A    between atoms: C_16  and  C_17
REMARK    7  A    between atoms: C_16  and  C_18
REMARK    8  A    between atoms: C_19  and  C_20
REMARK    9  A    between atoms: C_22  and  N_23
REMARK   10  A    between atoms: C_28  and  C_29
REMARK                            x       y       z     vdW  Elec       q    Type
REMARK                         _______ _______ _______ _____ _____    ______ ____
ROOT
ATOM      1  C   UNL     1      -4.823  14.470  22.220  0.00  0.00    +0.000 C 
ATOM      2  C   UNL     1      -3.411  15.135  22.348  0.00  0.00    +0.000 C 
ATOM      3  C   UNL     1      -2.531  14.852  23.347  0.00  0.00    +0.000 C 
ATOM      4  O   UNL     1      -2.841  13.976  24.382  0.00  0.00    +0.000 OA
ATOM      5  C   UNL     1      -4.035  13.365  24.367  0.00  0.00    +0.000 A 
ATOM      6  N   UNL     1      -4.318  12.504  25.333  0.00  0.00    +0.000 NA
ATOM      7  N   UNL     1      -5.536  12.073  24.988  0.00  0.00    +0.000 N 
ATOM      8  C   UNL     1      -6.011  12.612  23.814  0.00  0.00    +0.000 A 
ATOM      9  C   UNL     1      -7.322  12.157  23.291  0.00  0.00    +0.000 C 
ATOM     10  C   UNL     1      -5.035  13.510  23.388  0.00  0.00    +0.000 A 
ATOM     11  H   UNL     1      -5.988  11.389  25.589  0.00  0.00    +0.000 HD
ENDROOT
BRANCH   1  16
ATOM     12  C   UNL     1      -3.499  12.095  19.411  0.00  0.00    +0.000 A 
ATOM     13  C   UNL     1      -4.558  12.167  18.493  0.00  0.00    +0.000 A 
ATOM     14  C   UNL     1      -5.668  12.987  18.719  0.00  0.00    +0.000 A 
ATOM     15  C   UNL     1      -5.758  13.693  19.931  0.00  0.00    +0.000 A 
ATOM     16  C   UNL     1      -4.772  13.586  20.932  0.00  0.00    +0.000 A 
ATOM     17  C   UNL     1      -3.637  12.803  20.620  0.00  0.00    +0.000 A 
BRANCH  12  22
ATOM     18  C   UNL     1       1.281   9.313  17.835  0.00  0.00    +0.000 C 
ATOM     19  C   UNL     1       0.060  10.048  18.301  0.00  0.00    +0.000 A 
ATOM     20  C   UNL     1       0.083  10.829  19.451  0.00  0.00    +0.000 A 
ATOM     21  C   UNL     1      -1.084  11.490  19.840  0.00  0.00    +0.000 A 
ATOM     22  C   UNL     1      -2.253  11.376  19.080  0.00  0.00    +0.000 A 
ATOM     23  C   UNL     1      -2.154  10.576  17.939  0.00  0.00    +0.000 A 
ATOM     24  N   UNL     1      -1.046   9.909  17.543  0.00  0.00    +0.000 NA
ENDBRANCH  12  22
BRANCH  14  25
ATOM     25  C   UNL     1      -6.730  13.157  17.658  0.00  0.00    +0.000 C 
ATOM     26  F   UNL     1      -7.330  11.992  17.295  0.00  0.00    +0.000 F 
ATOM     27  F   UNL     1      -7.733  13.986  18.064  0.00  0.00    +0.000 F 
ATOM     28  F   UNL     1      -6.238  13.696  16.511  0.00  0.00    +0.000 F 
ENDBRANCH  14  25
ENDBRANCH   1  16
BRANCH   1  29
ATOM     29  C   UNL     1      -5.936  15.606  22.201  0.00  0.00    +0.000 C 
ATOM     30  C   UNL     1      -7.348  15.153  21.802  0.00  0.00    +0.000 C 
ATOM     31  C   UNL     1      -6.048  16.378  23.528  0.00  0.00    +0.000 C 
ENDBRANCH   1  29
BRANCH   3  32
ATOM     32  N   UNL     1      -1.262  15.368  23.464  0.00  0.00    +0.000 N 
ATOM     33  H   UNL     1      -0.997  15.743  24.369  0.00  0.00    +0.000 HD
ATOM     34  H   UNL     1      -0.555  14.770  23.039  0.00  0.00    +0.000 HD
ENDBRANCH   3  32
BRANCH   2  35
ATOM     35  C   UNL     1      -3.028  16.070  21.335  0.00  0.00    +0.000 C 
ATOM     36  N   UNL     1      -2.695  16.846  20.538  0.00  0.00    +0.000 NA
ENDBRANCH   2  35
TORSDOF 6
ENDMDL
MODEL 9
REMARK VINA RESULT:      -6.7      2.571      3.590
REMARK  Name = 
REMARK  10 active torsions:
REMARK  status: ('A' for Active; 'I' for Inactive)
REMARK    1  A    between atoms: C_1  and  C_2
REMARK    2  A    between atoms: C_5  and  C_6
REMARK    3  A    between atoms: C_8  and  C_9
REMARK    4  A    between atoms: C_14  and  C_15
REMARK    5  A    between atoms: C_15  and  C_16
REMARK    6  A    between atoms: C_16  and  C_17
REMARK    7  A    between atoms: C_16  and  C_18
REMARK    8  A    between atoms: C_19  and  C_20
REMARK    9  A    between atoms: C_22  and  N_23
REMARK   10  A    between atoms: C_28  and  C_29
REMARK                            x       y       z     vdW  Elec       q    Type
REMARK                         _______ _______ _______ _____ _____    ______ ____
ROOT
ATOM      1  C   UNL     1      -2.160  14.608  21.840  0.00  0.00    +0.000 C 
ATOM      2  C   UNL     1      -0.844  15.451  21.943  0.00  0.00    +0.000 C 
ATOM      3  C   UNL     1      -0.299  15.857  23.122  0.00  0.00    +0.000 C 
ATOM      4  O   UNL     1      -0.904  15.600  24.347  0.00  0.00    +0.000 OA
ATOM      5  C   UNL     1      -2.045  14.895  24.361  0.00  0.00    +0.000 A 
ATOM      6  N   UNL     1      -2.606  14.619  25.530  0.00  0.00    +0.000 NA
ATOM      7  N   UNL     1      -3.671  13.893  25.175  0.00  0.00    +0.000 N 
ATOM      8  C   UNL     1      -3.776  13.674  23.820  0.00  0.00    +0.000 A 
ATOM      9  C   UNL     1      -4.879  12.823  23.311  0.00  0.00    +0.000 C 
ATOM     10  C   UNL     1      -2.712  14.364  23.242  0.00  0.00    +0.000 A 
ATOM     11  H   UNL     1      -4.284  13.554  25.911  0.00  0.00    +0.000 HD
ENDROOT
BRANCH   1  16
ATOM     12  C   UNL     1      -1.852  11.496  19.493  0.00  0.00    +0.000 A 
ATOM     13  C   UNL     1      -1.193  10.596  20.345  0.00  0.00    +0.000 A 
ATOM     14  C   UNL     1      -0.881  10.933  21.666  0.00  0.00    +0.000 A 
ATOM     15  C   UNL     1      -1.165  12.231  22.123  0.00  0.00    +0.000 A 
ATOM     16  C   UNL     1      -1.739  13.209  21.286  0.00  0.00    +0.000 A 
ATOM     17  C   UNL     1      -2.102  12.792  19.984  0.00  0.00    +0.000 A 
BRANCH  12  22
ATOM     18  C   UNL     1      -3.873  10.106  14.292  0.00  0.00    +0.000 C 
ATOM     19  C   UNL     1      -3.311  10.417  15.646  0.00  0.00    +0.000 A 
ATOM     20  C   UNL     1      -2.166   9.784  16.116  0.00  0.00    +0.000 A 
ATOM     21  C   UNL     1      -1.687  10.112  17.386  0.00  0.00    +0.000 A 
ATOM     22  C   UNL     1      -2.342  11.070  18.168  0.00  0.00    +0.000 A 
ATOM     23  C   UNL     1      -3.473  11.648  17.588  0.00  0.00    +0.000 A 
ATOM     24  N   UNL     1      -3.974  11.342  16.369  0.00  0.00    +0.000 NA
ENDBRANCH  12  22
BRANCH  14  25
ATOM     25  C   UNL     1      -0.298   9.905  22.607  0.00  0.00    +0.000 C 
ATOM     26  F   UNL     1      -0.526  10.177  23.920  0.00  0.00    +0.000 F 
ATOM     27  F   UNL     1      -0.807   8.660  22.387  0.00  0.00    +0.000 F 
ATOM     28  F   UNL     1       1.050   9.787  22.479  0.00  0.00    +0.000 F 
ENDBRANCH  14  25
ENDBRANCH   1  16
BRANCH   1  29
ATOM     29  C   UNL     1      -3.211  15.389  20.938  0.00  0.00    +0.000 C 
ATOM     30  C   UNL     1      -4.511  14.636  20.619  0.00  0.00    +0.000 C 
ATOM     31  C   UNL     1      -3.594  16.771  21.497  0.00  0.00    +0.000 C 
ENDBRANCH   1  29
BRANCH   3  32
ATOM     32  N   UNL     1       0.883  16.545  23.261  0.00  0.00    +0.000 N 
ATOM     33  H   UNL     1       0.948  17.450  22.805  0.00  0.00    +0.000 HD
ATOM     34  H   UNL     1       1.233  16.536  24.218  0.00  0.00    +0.000 HD
ENDBRANCH   3  32
BRANCH   2  35
ATOM     35  C   UNL     1      -0.174  15.779  20.722  0.00  0.00    +0.000 C 
ATOM     36  N   UNL     1       0.363  16.009  19.719  0.00  0.00    +0.000 NA
ENDBRANCH   2  35
TORSDOF 6
ENDMDL
