MODEL 1
REMARK VINA RESULT:      -7.0      0.000      0.000
REMARK  Name = 
REMARK  10 active torsions:
REMARK  status: ('A' for Active; 'I' for Inactive)
REMARK    1  A    between atoms: C_1  and  C_2
REMARK    2  A    between atoms: C_2  and  O_3
REMARK    3  A    between atoms: O_3  and  C_4
REMARK    4  A    between atoms: C_4  and  C_6
REMARK    5  A    between atoms: C_9  and  O_10
REMARK    6  A    between atoms: O_10  and  C_11
REMARK    7  A    between atoms: C_12  and  O_13
REMARK    8  A    between atoms: O_13  and  C_14
REMARK    9  A    between atoms: C_21  and  C_22
REMARK   10  A    between atoms: C_24  and  O_25
REMARK                            x       y       z     vdW  Elec       q    Type
REMARK                         _______ _______ _______ _____ _____    ______ ____
ROOT
ATOM      1  C   UNL     1       4.075   6.388  17.670  0.00  0.00    +0.000 A 
ATOM      2  C   UNL     1       3.392   7.609  17.589  0.00  0.00    +0.000 A 
ATOM      3  C   UNL     1       2.476   8.068  18.537  0.00  0.00    +0.000 A 
ATOM      4  C   UNL     1       1.830   9.351  18.513  0.00  0.00    +0.000 A 
ATOM      5  C   UNL     1       0.901   9.692  19.525  0.00  0.00    +0.000 A 
ATOM      6  C   UNL     1       0.620   8.782  20.537  0.00  0.00    +0.000 A 
ATOM      7  C   UNL     1       1.254   7.541  20.557  0.00  0.00    +0.000 A 
ATOM      8  C   UNL     1       2.191   7.150  19.582  0.00  0.00    +0.000 A 
ATOM      9  C   UNL     1       2.821   5.869  19.666  0.00  0.00    +0.000 A 
ATOM     10  N   UNL     1       2.462   5.025  20.660  0.00  0.00    +0.000 NA
ATOM     11  C   UNL     1       3.057   3.811  20.777  0.00  0.00    +0.000 A 
ATOM     12  C   UNL     1       4.065   3.381  19.954  0.00  0.00    +0.000 A 
ATOM     13  C   UNL     1       4.466   4.250  18.948  0.00  0.00    +0.000 A 
ATOM     14  C   UNL     1       3.815   5.498  18.730  0.00  0.00    +0.000 A 
ENDROOT
BRANCH   1  15
ATOM     15  C   UNL     1       5.024   6.136  16.545  0.00  0.00    +0.000 C 
ATOM     16  O   UNL     1       4.948   5.250  15.713  0.00  0.00    +0.000 OA
BRANCH  15  17
ATOM     17  O   UNL     1       5.964   7.110  16.616  0.00  0.00    +0.000 OA
BRANCH  17  19
ATOM     18  C   UNL     1       7.786   8.178  17.638  0.00  0.00    +0.000 C 
ATOM     19  C   UNL     1       7.180   6.828  17.314  0.00  0.00    +0.000 C 
ENDBRANCH  17  19
ENDBRANCH  15  17
ENDBRANCH   1  15
BRANCH   4  20
ATOM     20  O   UNL     1       1.985  10.375  17.604  0.00  0.00    +0.000 OA
ATOM     21  C   UNL     1       2.691  11.568  17.870  0.00  0.00    +0.000 C 
ENDBRANCH   4  20
BRANCH   5  22
ATOM     22  O   UNL     1       0.327  10.939  19.430  0.00  0.00    +0.000 OA
ATOM     23  C   UNL     1       0.220  11.717  20.613  0.00  0.00    +0.000 C 
ENDBRANCH   5  22
BRANCH  12  24
ATOM     24  C   UNL     1       4.661   2.098  20.158  0.00  0.00    +0.000 C 
ATOM     25  N   UNL     1       5.149   1.066  20.365  0.00  0.00    +0.000 NA
ENDBRANCH  12  24
BRANCH  13  26
ATOM     26  O   UNL     1       5.585   3.947  18.214  0.00  0.00    +0.000 OA
ATOM     27  H   UNL     1       6.030   3.162  18.584  0.00  0.00    +0.000 HD
ENDBRANCH  13  26
TORSDOF 7
ENDMDL
MODEL 2
REMARK VINA RESULT:      -6.8      2.469      4.410
REMARK  Name = 
REMARK  10 active torsions:
REMARK  status: ('A' for Active; 'I' for Inactive)
REMARK    1  A    between atoms: C_1  and  C_2
REMARK    2  A    between atoms: C_2  and  O_3
REMARK    3  A    between atoms: O_3  and  C_4
REMARK    4  A    between atoms: C_4  and  C_6
REMARK    5  A    between atoms: C_9  and  O_10
REMARK    6  A    between atoms: O_10  and  C_11
REMARK    7  A    between atoms: C_12  and  O_13
REMARK    8  A    between atoms: O_13  and  C_14
REMARK    9  A    between atoms: C_21  and  C_22
REMARK   10  A    between atoms: C_24  and  O_25
REMARK                            x       y       z     vdW  Elec       q    Type
REMARK                         _______ _______ _______ _____ _____    ______ ____
ROOT
ATOM      1  C   UNL     1       2.173   5.954  19.948  0.00  0.00    +0.000 A 
ATOM      2  C   UNL     1       1.437   7.017  20.486  0.00  0.00    +0.000 A 
ATOM      3  C   UNL     1       1.345   8.287  19.912  0.00  0.00    +0.000 A 
ATOM      4  C   UNL     1       0.530   9.363  20.405  0.00  0.00    +0.000 A 
ATOM      5  C   UNL     1       0.539  10.614  19.743  0.00  0.00    +0.000 A 
ATOM      6  C   UNL     1       1.337  10.792  18.619  0.00  0.00    +0.000 A 
ATOM      7  C   UNL     1       2.121   9.743  18.143  0.00  0.00    +0.000 A 
ATOM      8  C   UNL     1       2.147   8.476  18.756  0.00  0.00    +0.000 A 
ATOM      9  C   UNL     1       2.960   7.433  18.211  0.00  0.00    +0.000 A 
ATOM     10  N   UNL     1       3.739   7.700  17.138  0.00  0.00    +0.000 NA
ATOM     11  C   UNL     1       4.505   6.726  16.588  0.00  0.00    +0.000 A 
ATOM     12  C   UNL     1       4.513   5.429  17.031  0.00  0.00    +0.000 A 
ATOM     13  C   UNL     1       3.694   5.132  18.112  0.00  0.00    +0.000 A 
ATOM     14  C   UNL     1       2.937   6.138  18.779  0.00  0.00    +0.000 A 
ENDROOT
BRANCH   1  15
ATOM     15  C   UNL     1       2.091   4.687  20.734  0.00  0.00    +0.000 C 
ATOM     16  O   UNL     1       2.862   4.318  21.603  0.00  0.00    +0.000 OA
BRANCH  15  17
ATOM     17  O   UNL     1       0.972   4.050  20.313  0.00  0.00    +0.000 OA
BRANCH  17  19
ATOM     18  C   UNL     1       0.651   2.290  18.795  0.00  0.00    +0.000 C 
ATOM     19  C   UNL     1       0.995   2.622  20.232  0.00  0.00    +0.000 C 
ENDBRANCH  17  19
ENDBRANCH  15  17
ENDBRANCH   1  15
BRANCH   4  20
ATOM     20  O   UNL     1      -0.321   9.370  21.488  0.00  0.00    +0.000 OA
ATOM     21  C   UNL     1       0.108   9.462  22.830  0.00  0.00    +0.000 C 
ENDBRANCH   4  20
BRANCH   5  22
ATOM     22  O   UNL     1      -0.268  11.591  20.277  0.00  0.00    +0.000 OA
ATOM     23  C   UNL     1      -1.407  11.998  19.532  0.00  0.00    +0.000 C 
ENDBRANCH   5  22
BRANCH  12  24
ATOM     24  C   UNL     1       5.328   4.452  16.380  0.00  0.00    +0.000 C 
ATOM     25  N   UNL     1       5.956   3.647  15.828  0.00  0.00    +0.000 NA
ENDBRANCH  12  24
BRANCH  13  26
ATOM     26  O   UNL     1       3.527   3.821  18.480  0.00  0.00    +0.000 OA
ATOM     27  H   UNL     1       4.343   3.315  18.308  0.00  0.00    +0.000 HD
ENDBRANCH  13  26
TORSDOF 7
ENDMDL
MODEL 3
REMARK VINA RESULT:      -6.7      2.458      4.369
REMARK  Name = 
REMARK  10 active torsions:
REMARK  status: ('A' for Active; 'I' for Inactive)
REMARK    1  A    between atoms: C_1  and  C_2
REMARK    2  A    between atoms: C_2  and  O_3
REMARK    3  A    between atoms: O_3  and  C_4
REMARK    4  A    between atoms: C_4  and  C_6
REMARK    5  A    between atoms: C_9  and  O_10
REMARK    6  A    between atoms: O_10  and  C_11
REMARK    7  A    between atoms: C_12  and  O_13
REMARK    8  A    between atoms: O_13  and  C_14
REMARK    9  A    between atoms: C_21  and  C_22
REMARK   10  A    between atoms: C_24  and  O_25
REMARK                            x       y       z     vdW  Elec       q    Type
REMARK                         _______ _______ _______ _____ _____    ______ ____
ROOT
ATOM      1  C   UNL     1       3.580   5.235  18.976  0.00  0.00    +0.000 A 
ATOM      2  C   UNL     1       2.781   6.109  19.724  0.00  0.00    +0.000 A 
ATOM      3  C   UNL     1       2.359   7.366  19.289  0.00  0.00    +0.000 A 
ATOM      4  C   UNL     1       1.472   8.238  20.007  0.00  0.00    +0.000 A 
ATOM      5  C   UNL     1       1.133   9.501  19.466  0.00  0.00    +0.000 A 
ATOM      6  C   UNL     1       1.662   9.889  18.240  0.00  0.00    +0.000 A 
ATOM      7  C   UNL     1       2.517   9.036  17.545  0.00  0.00    +0.000 A 
ATOM      8  C   UNL     1       2.883   7.766  18.031  0.00  0.00    +0.000 A 
ATOM      9  C   UNL     1       3.752   6.928  17.264  0.00  0.00    +0.000 A 
ATOM     10  N   UNL     1       4.256   7.396  16.099  0.00  0.00    +0.000 NA
ATOM     11  C   UNL     1       5.066   6.616  15.341  0.00  0.00    +0.000 A 
ATOM     12  C   UNL     1       5.388   5.323  15.662  0.00  0.00    +0.000 A 
ATOM     13  C   UNL     1       4.852   4.818  16.839  0.00  0.00    +0.000 A 
ATOM     14  C   UNL     1       4.067   5.624  17.713  0.00  0.00    +0.000 A 
ENDROOT
BRANCH   1  15
ATOM     15  C   UNL     1       3.874   3.936  19.651  0.00  0.00    +0.000 C 
ATOM     16  O   UNL     1       4.974   3.494  19.933  0.00  0.00    +0.000 OA
BRANCH  15  17
ATOM     17  O   UNL     1       2.674   3.367  19.918  0.00  0.00    +0.000 OA
BRANCH  17  19
ATOM     18  C   UNL     1       0.771   2.514  18.844  0.00  0.00    +0.000 C 
ATOM     19  C   UNL     1       2.245   2.276  19.098  0.00  0.00    +0.000 C 
ENDBRANCH  17  19
ENDBRANCH  15  17
ENDBRANCH   1  15
BRANCH   4  20
ATOM     20  O   UNL     1       0.851   8.026  21.219  0.00  0.00    +0.000 OA
ATOM     21  C   UNL     1       1.149   8.745  22.396  0.00  0.00    +0.000 C 
ENDBRANCH   4  20
BRANCH   5  22
ATOM     22  O   UNL     1       0.279  10.277  20.215  0.00  0.00    +0.000 OA
ATOM     23  C   UNL     1      -0.902  10.761  19.594  0.00  0.00    +0.000 C 
ENDBRANCH   5  22
BRANCH  12  24
ATOM     24  C   UNL     1       6.227   4.556  14.797  0.00  0.00    +0.000 C 
ATOM     25  N   UNL     1       6.897   3.957  14.061  0.00  0.00    +0.000 NA
ENDBRANCH  12  24
BRANCH  13  26
ATOM     26  O   UNL     1       4.994   3.482  17.115  0.00  0.00    +0.000 OA
ATOM     27  H   UNL     1       5.926   3.275  17.316  0.00  0.00    +0.000 HD
ENDBRANCH  13  26
TORSDOF 7
ENDMDL
MODEL 4
REMARK VINA RESULT:      -6.5      8.669     10.920
REMARK  Name = 
REMARK  10 active torsions:
REMARK  status: ('A' for Active; 'I' for Inactive)
REMARK    1  A    between atoms: C_1  and  C_2
REMARK    2  A    between atoms: C_2  and  O_3
REMARK    3  A    between atoms: O_3  and  C_4
REMARK    4  A    between atoms: C_4  and  C_6
REMARK    5  A    between atoms: C_9  and  O_10
REMARK    6  A    between atoms: O_10  and  C_11
REMARK    7  A    between atoms: C_12  and  O_13
REMARK    8  A    between atoms: O_13  and  C_14
REMARK    9  A    between atoms: C_21  and  C_22
REMARK   10  A    between atoms: C_24  and  O_25
REMARK                            x       y       z     vdW  Elec       q    Type
REMARK                         _______ _______ _______ _____ _____    ______ ____
ROOT
ATOM      1  C   UNL     1      -5.620  12.104  19.688  0.00  0.00    +0.000 A 
ATOM      2  C   UNL     1      -5.610  12.559  21.013  0.00  0.00    +0.000 A 
ATOM      3  C   UNL     1      -4.460  12.922  21.717  0.00  0.00    +0.000 A 
ATOM      4  C   UNL     1      -4.438  13.469  23.045  0.00  0.00    +0.000 A 
ATOM      5  C   UNL     1      -3.202  13.778  23.660  0.00  0.00    +0.000 A 
ATOM      6  C   UNL     1      -2.015  13.551  22.973  0.00  0.00    +0.000 A 
ATOM      7  C   UNL     1      -2.043  13.025  21.683  0.00  0.00    +0.000 A 
ATOM      8  C   UNL     1      -3.243  12.705  21.019  0.00  0.00    +0.000 A 
ATOM      9  C   UNL     1      -3.208  12.184  19.687  0.00  0.00    +0.000 A 
ATOM     10  N   UNL     1      -2.010  11.954  19.103  0.00  0.00    +0.000 NA
ATOM     11  C   UNL     1      -1.946  11.479  17.835  0.00  0.00    +0.000 A 
ATOM     12  C   UNL     1      -3.051  11.248  17.057  0.00  0.00    +0.000 A 
ATOM     13  C   UNL     1      -4.287  11.510  17.632  0.00  0.00    +0.000 A 
ATOM     14  C   UNL     1      -4.411  11.927  18.989  0.00  0.00    +0.000 A 
ENDROOT
BRANCH   1  15
ATOM     15  C   UNL     1      -6.980  11.807  19.149  0.00  0.00    +0.000 C 
ATOM     16  O   UNL     1      -7.550  12.393  18.245  0.00  0.00    +0.000 OA
BRANCH  15  17
ATOM     17  O   UNL     1      -7.438  10.736  19.841  0.00  0.00    +0.000 OA
BRANCH  17  19
ATOM     18  C   UNL     1      -7.529   8.482  20.485  0.00  0.00    +0.000 C 
ATOM     19  C   UNL     1      -7.038   9.431  19.412  0.00  0.00    +0.000 C 
ENDBRANCH  17  19
ENDBRANCH  15  17
ENDBRANCH   1  15
BRANCH   4  20
ATOM     20  O   UNL     1      -5.501  13.766  23.870  0.00  0.00    +0.000 OA
ATOM     21  C   UNL     1      -6.342  14.887  23.703  0.00  0.00    +0.000 C 
ENDBRANCH   4  20
BRANCH   5  22
ATOM     22  O   UNL     1      -3.267  14.297  24.933  0.00  0.00    +0.000 OA
ATOM     23  C   UNL     1      -2.687  15.572  25.164  0.00  0.00    +0.000 C 
ENDBRANCH   5  22
BRANCH  12  24
ATOM     24  C   UNL     1      -2.900  10.773  15.718  0.00  0.00    +0.000 C 
ATOM     25  N   UNL     1      -2.808  10.414  14.617  0.00  0.00    +0.000 NA
ENDBRANCH  12  24
BRANCH  13  26
ATOM     26  O   UNL     1      -5.410  11.469  16.844  0.00  0.00    +0.000 OA
ATOM     27  H   UNL     1      -5.946  10.684  17.062  0.00  0.00    +0.000 HD
ENDBRANCH  13  26
TORSDOF 7
ENDMDL
MODEL 5
REMARK VINA RESULT:      -6.5      0.907      1.499
REMARK  Name = 
REMARK  10 active torsions:
REMARK  status: ('A' for Active; 'I' for Inactive)
REMARK    1  A    between atoms: C_1  and  C_2
REMARK    2  A    between atoms: C_2  and  O_3
REMARK    3  A    between atoms: O_3  and  C_4
REMARK    4  A    between atoms: C_4  and  C_6
REMARK    5  A    between atoms: C_9  and  O_10
REMARK    6  A    between atoms: O_10  and  C_11
REMARK    7  A    between atoms: C_12  and  O_13
REMARK    8  A    between atoms: O_13  and  C_14
REMARK    9  A    between atoms: C_21  and  C_22
REMARK   10  A    between atoms: C_24  and  O_25
REMARK                            x       y       z     vdW  Elec       q    Type
REMARK                         _______ _______ _______ _____ _____    ______ ____
ROOT
ATOM      1  C   UNL     1       4.193   6.474  17.814  0.00  0.00    +0.000 A 
ATOM      2  C   UNL     1       3.487   7.677  17.687  0.00  0.00    +0.000 A 
ATOM      3  C   UNL     1       2.487   8.104  18.563  0.00  0.00    +0.000 A 
ATOM      4  C   UNL     1       1.812   9.371  18.496  0.00  0.00    +0.000 A 
ATOM      5  C   UNL     1       0.798   9.679  19.435  0.00  0.00    +0.000 A 
ATOM      6  C   UNL     1       0.463   8.753  20.416  0.00  0.00    +0.000 A 
ATOM      7  C   UNL     1       1.126   7.529  20.478  0.00  0.00    +0.000 A 
ATOM      8  C   UNL     1       2.146   7.171  19.577  0.00  0.00    +0.000 A 
ATOM      9  C   UNL     1       2.802   5.906  19.702  0.00  0.00    +0.000 A 
ATOM     10  N   UNL     1       2.389   5.044  20.660  0.00  0.00    +0.000 NA
ATOM     11  C   UNL     1       3.004   3.846  20.815  0.00  0.00    +0.000 A 
ATOM     12  C   UNL     1       4.084   3.448  20.071  0.00  0.00    +0.000 A 
ATOM     13  C   UNL     1       4.540   4.336  19.105  0.00  0.00    +0.000 A 
ATOM     14  C   UNL     1       3.875   5.569  18.845  0.00  0.00    +0.000 A 
ENDROOT
BRANCH   1  15
ATOM     15  C   UNL     1       5.233   6.256  16.765  0.00  0.00    +0.000 C 
ATOM     16  O   UNL     1       6.318   6.806  16.689  0.00  0.00    +0.000 OA
BRANCH  15  17
ATOM     17  O   UNL     1       4.744   5.301  15.937  0.00  0.00    +0.000 OA
BRANCH  17  19
ATOM     18  C   UNL     1       6.199   3.710  15.012  0.00  0.00    +0.000 C 
ATOM     19  C   UNL     1       5.468   5.008  14.739  0.00  0.00    +0.000 C 
ENDBRANCH  17  19
ENDBRANCH  15  17
ENDBRANCH   1  15
BRANCH   4  20
ATOM     20  O   UNL     1       2.010  10.405  17.609  0.00  0.00    +0.000 OA
ATOM     21  C   UNL     1       2.634  11.626  17.944  0.00  0.00    +0.000 C 
ENDBRANCH   4  20
BRANCH   5  22
ATOM     22  O   UNL     1       0.200  10.911  19.303  0.00  0.00    +0.000 OA
ATOM     23  C   UNL     1      -1.190  10.951  19.015  0.00  0.00    +0.000 C 
ENDBRANCH   5  22
BRANCH  12  24
ATOM     24  C   UNL     1       4.696   2.180  20.313  0.00  0.00    +0.000 C 
ATOM     25  N   UNL     1       5.231   1.167  20.500  0.00  0.00    +0.000 NA
ENDBRANCH  12  24
BRANCH  13  26
ATOM     26  O   UNL     1       5.720   4.068  18.459  0.00  0.00    +0.000 OA
ATOM     27  H   UNL     1       5.618   4.205  17.498  0.00  0.00    +0.000 HD
ENDBRANCH  13  26
TORSDOF 7
ENDMDL
MODEL 6
REMARK VINA RESULT:      -6.4      6.534      9.290
REMARK  Name = 
REMARK  10 active torsions:
REMARK  status: ('A' for Active; 'I' for Inactive)
REMARK    1  A    between atoms: C_1  and  C_2
REMARK    2  A    between atoms: C_2  and  O_3
REMARK    3  A    between atoms: O_3  and  C_4
REMARK    4  A    between atoms: C_4  and  C_6
REMARK    5  A    between atoms: C_9  and  O_10
REMARK    6  A    between atoms: O_10  and  C_11
REMARK    7  A    between atoms: C_12  and  O_13
REMARK    8  A    between atoms: O_13  and  C_14
REMARK    9  A    between atoms: C_21  and  C_22
REMARK   10  A    between atoms: C_24  and  O_25
REMARK                            x       y       z     vdW  Elec       q    Type
REMARK                         _______ _______ _______ _____ _____    ______ ____
ROOT
ATOM      1  C   UNL     1      -1.859  11.715  19.670  0.00  0.00    +0.000 A 
ATOM      2  C   UNL     1      -2.328  12.248  20.877  0.00  0.00    +0.000 A 
ATOM      3  C   UNL     1      -3.662  12.564  21.139  0.00  0.00    +0.000 A 
ATOM      4  C   UNL     1      -4.173  13.032  22.397  0.00  0.00    +0.000 A 
ATOM      5  C   UNL     1      -5.549  13.338  22.530  0.00  0.00    +0.000 A 
ATOM      6  C   UNL     1      -6.397  13.181  21.440  0.00  0.00    +0.000 A 
ATOM      7  C   UNL     1      -5.897  12.722  20.224  0.00  0.00    +0.000 A 
ATOM      8  C   UNL     1      -4.540  12.396  20.035  0.00  0.00    +0.000 A 
ATOM      9  C   UNL     1      -4.089  11.912  18.767  0.00  0.00    +0.000 A 
ATOM     10  N   UNL     1      -4.971  11.827  17.745  0.00  0.00    +0.000 NA
ATOM     11  C   UNL     1      -4.576  11.354  16.537  0.00  0.00    +0.000 A 
ATOM     12  C   UNL     1      -3.310  10.897  16.281  0.00  0.00    +0.000 A 
ATOM     13  C   UNL     1      -2.401  10.948  17.329  0.00  0.00    +0.000 A 
ATOM     14  C   UNL     1      -2.742  11.516  18.591  0.00  0.00    +0.000 A 
ENDROOT
BRANCH   1  15
ATOM     15  C   UNL     1      -0.392  11.438  19.646  0.00  0.00    +0.000 C 
ATOM     16  O   UNL     1       0.487  12.198  19.280  0.00  0.00    +0.000 OA
BRANCH  15  17
ATOM     17  O   UNL     1      -0.234  10.187  20.144  0.00  0.00    +0.000 OA
BRANCH  17  19
ATOM     18  C   UNL     1      -0.238   9.333  22.328  0.00  0.00    +0.000 C 
ATOM     19  C   UNL     1       0.617  10.014  21.280  0.00  0.00    +0.000 C 
ENDBRANCH  17  19
ENDBRANCH  15  17
ENDBRANCH   1  15
BRANCH   4  20
ATOM     20  O   UNL     1      -3.493  13.240  23.577  0.00  0.00    +0.000 OA
ATOM     21  C   UNL     1      -2.606  14.316  23.799  0.00  0.00    +0.000 C 
ENDBRANCH   4  20
BRANCH   5  22
ATOM     22  O   UNL     1      -5.957  13.781  23.767  0.00  0.00    +0.000 OA
ATOM     23  C   UNL     1      -7.253  13.410  24.214  0.00  0.00    +0.000 C 
ENDBRANCH   5  22
BRANCH  12  24
ATOM     24  C   UNL     1      -2.978  10.386  14.988  0.00  0.00    +0.000 C 
ATOM     25  N   UNL     1      -2.667   9.979  13.946  0.00  0.00    +0.000 NA
ENDBRANCH  12  24
BRANCH  13  26
ATOM     26  O   UNL     1      -1.180  10.341  17.183  0.00  0.00    +0.000 OA
ATOM     27  H   UNL     1      -0.506  10.996  16.919  0.00  0.00    +0.000 HD
ENDBRANCH  13  26
TORSDOF 7
ENDMDL
MODEL 7
REMARK VINA RESULT:      -6.2      7.806      9.785
REMARK  Name = 
REMARK  10 active torsions:
REMARK  status: ('A' for Active; 'I' for Inactive)
REMARK    1  A    between atoms: C_1  and  C_2
REMARK    2  A    between atoms: C_2  and  O_3
REMARK    3  A    between atoms: O_3  and  C_4
REMARK    4  A    between atoms: C_4  and  C_6
REMARK    5  A    between atoms: C_9  and  O_10
REMARK    6  A    between atoms: O_10  and  C_11
REMARK    7  A    between atoms: C_12  and  O_13
REMARK    8  A    between atoms: O_13  and  C_14
REMARK    9  A    between atoms: C_21  and  C_22
REMARK   10  A    between atoms: C_24  and  O_25
REMARK                            x       y       z     vdW  Elec       q    Type
REMARK                         _______ _______ _______ _____ _____    ______ ____
ROOT
ATOM      1  C   UNL     1      -2.156  12.258  19.798  0.00  0.00    +0.000 A 
ATOM      2  C   UNL     1      -2.682  12.721  21.010  0.00  0.00    +0.000 A 
ATOM      3  C   UNL     1      -4.042  12.752  21.324  0.00  0.00    +0.000 A 
ATOM      4  C   UNL     1      -4.593  13.145  22.591  0.00  0.00    +0.000 A 
ATOM      5  C   UNL     1      -5.996  13.152  22.778  0.00  0.00    +0.000 A 
ATOM      6  C   UNL     1      -6.832  12.777  21.732  0.00  0.00    +0.000 A 
ATOM      7  C   UNL     1      -6.291  12.392  20.508  0.00  0.00    +0.000 A 
ATOM      8  C   UNL     1      -4.904  12.358  20.266  0.00  0.00    +0.000 A 
ATOM      9  C   UNL     1      -4.408  11.937  18.993  0.00  0.00    +0.000 A 
ATOM     10  N   UNL     1      -5.289  11.627  18.014  0.00  0.00    +0.000 NA
ATOM     11  C   UNL     1      -4.848  11.206  16.803  0.00  0.00    +0.000 A 
ATOM     12  C   UNL     1      -3.523  11.023  16.502  0.00  0.00    +0.000 A 
ATOM     13  C   UNL     1      -2.608  11.307  17.507  0.00  0.00    +0.000 A 
ATOM     14  C   UNL     1      -3.015  11.834  18.767  0.00  0.00    +0.000 A 
ENDROOT
BRANCH   1  15
ATOM     15  C   UNL     1      -0.665  12.302  19.716  0.00  0.00    +0.000 C 
ATOM     16  O   UNL     1       0.114  11.484  20.173  0.00  0.00    +0.000 OA
BRANCH  15  17
ATOM     17  O   UNL     1      -0.357  13.412  19.002  0.00  0.00    +0.000 OA
BRANCH  17  19
ATOM     18  C   UNL     1       0.000  15.721  18.794  0.00  0.00    +0.000 C 
ATOM     19  C   UNL     1       0.219  14.524  19.695  0.00  0.00    +0.000 C 
ENDBRANCH  17  19
ENDBRANCH  15  17
ENDBRANCH   1  15
BRANCH   4  20
ATOM     20  O   UNL     1      -3.929  13.537  23.733  0.00  0.00    +0.000 OA
ATOM     21  C   UNL     1      -3.317  14.798  23.897  0.00  0.00    +0.000 C 
ENDBRANCH   4  20
BRANCH   5  22
ATOM     22  O   UNL     1      -6.444  13.541  24.019  0.00  0.00    +0.000 OA
ATOM     23  C   UNL     1      -7.818  13.866  24.161  0.00  0.00    +0.000 C 
ENDBRANCH   5  22
BRANCH  12  24
ATOM     24  C   UNL     1      -3.139  10.549  15.210  0.00  0.00    +0.000 C 
ATOM     25  N   UNL     1      -2.854  10.192  14.143  0.00  0.00    +0.000 NA
ENDBRANCH  12  24
BRANCH  13  26
ATOM     26  O   UNL     1      -1.291  10.972  17.322  0.00  0.00    +0.000 OA
ATOM     27  H   UNL     1      -1.030  10.268  17.945  0.00  0.00    +0.000 HD
ENDBRANCH  13  26
TORSDOF 7
ENDMDL
MODEL 8
REMARK VINA RESULT:      -6.1      5.591      8.849
REMARK  Name = 
REMARK  10 active torsions:
REMARK  status: ('A' for Active; 'I' for Inactive)
REMARK    1  A    between atoms: C_1  and  C_2
REMARK    2  A    between atoms: C_2  and  O_3
REMARK    3  A    between atoms: O_3  and  C_4
REMARK    4  A    between atoms: C_4  and  C_6
REMARK    5  A    between atoms: C_9  and  O_10
REMARK    6  A    between atoms: O_10  and  C_11
REMARK    7  A    between atoms: C_12  and  O_13
REMARK    8  A    between atoms: O_13  and  C_14
REMARK    9  A    between atoms: C_21  and  C_22
REMARK   10  A    between atoms: C_24  and  O_25
REMARK                            x       y       z     vdW  Elec       q    Type
REMARK                         _______ _______ _______ _____ _____    ______ ____
ROOT
ATOM      1  C   UNL     1      -1.412  11.659  19.345  0.00  0.00    +0.000 A 
ATOM      2  C   UNL     1      -1.580  12.238  20.609  0.00  0.00    +0.000 A 
ATOM      3  C   UNL     1      -2.801  12.677  21.124  0.00  0.00    +0.000 A 
ATOM      4  C   UNL     1      -3.005  13.196  22.448  0.00  0.00    +0.000 A 
ATOM      5  C   UNL     1      -4.293  13.628  22.846  0.00  0.00    +0.000 A 
ATOM      6  C   UNL     1      -5.353  13.546  21.950  0.00  0.00    +0.000 A 
ATOM      7  C   UNL     1      -5.150  13.036  20.670  0.00  0.00    +0.000 A 
ATOM      8  C   UNL     1      -3.893  12.585  20.222  0.00  0.00    +0.000 A 
ATOM      9  C   UNL     1      -3.751  12.056  18.901  0.00  0.00    +0.000 A 
ATOM     10  N   UNL     1      -4.824  12.049  18.077  0.00  0.00    +0.000 NA
ATOM     11  C   UNL     1      -4.724  11.535  16.826  0.00  0.00    +0.000 A 
ATOM     12  C   UNL     1      -3.580  10.962  16.333  0.00  0.00    +0.000 A 
ATOM     13  C   UNL     1      -2.479  10.934  17.178  0.00  0.00    +0.000 A 
ATOM     14  C   UNL     1      -2.508  11.537  18.469  0.00  0.00    +0.000 A 
ENDROOT
BRANCH   1  15
ATOM     15  C   UNL     1      -0.011  11.247  19.036  0.00  0.00    +0.000 C 
ATOM     16  O   UNL     1       0.904  11.975  18.691  0.00  0.00    +0.000 OA
BRANCH  15  17
ATOM     17  O   UNL     1       0.048   9.910  19.249  0.00  0.00    +0.000 OA
BRANCH  17  19
ATOM     18  C   UNL     1       1.662   8.807  17.952  0.00  0.00    +0.000 C 
ATOM     19  C   UNL     1       1.336   9.296  19.348  0.00  0.00    +0.000 C 
ENDBRANCH  17  19
ENDBRANCH  15  17
ENDBRANCH   1  15
BRANCH   4  20
ATOM     20  O   UNL     1      -2.086  13.346  23.464  0.00  0.00    +0.000 OA
ATOM     21  C   UNL     1      -1.089  14.345  23.487  0.00  0.00    +0.000 C 
ENDBRANCH   4  20
BRANCH   5  22
ATOM     22  O   UNL     1      -4.404  14.112  24.129  0.00  0.00    +0.000 OA
ATOM     23  C   UNL     1      -4.618  15.505  24.300  0.00  0.00    +0.000 C 
ENDBRANCH   5  22
BRANCH  12  24
ATOM     24  C   UNL     1      -3.561  10.418  15.012  0.00  0.00    +0.000 C 
ATOM     25  N   UNL     1      -3.579  10.000  13.929  0.00  0.00    +0.000 NA
ENDBRANCH  12  24
BRANCH  13  26
ATOM     26  O   UNL     1      -1.371  10.216  16.805  0.00  0.00    +0.000 OA
ATOM     27  H   UNL     1      -1.381   9.336  17.227  0.00  0.00    +0.000 HD
ENDBRANCH  13  26
TORSDOF 7
ENDMDL
MODEL 9
REMARK VINA RESULT:      -6.1      6.740      8.927
REMARK  Name = 
REMARK  10 active torsions:
REMARK  status: ('A' for Active; 'I' for Inactive)
REMARK    1  A    between atoms: C_1  and  C_2
REMARK    2  A    between atoms: C_2  and  O_3
REMARK    3  A    between atoms: O_3  and  C_4
REMARK    4  A    between atoms: C_4  and  C_6
REMARK    5  A    between atoms: C_9  and  O_10
REMARK    6  A    between atoms: O_10  and  C_11
REMARK    7  A    between atoms: C_12  and  O_13
REMARK    8  A    between atoms: O_13  and  C_14
REMARK    9  A    between atoms: C_21  and  C_22
REMARK   10  A    between atoms: C_24  and  O_25
REMARK                            x       y       z     vdW  Elec       q    Type
REMARK                         _______ _______ _______ _____ _____    ______ ____
ROOT
ATOM      1  C   UNL     1      -1.468  11.591  19.526  0.00  0.00    +0.000 A 
ATOM      2  C   UNL     1      -1.766  12.180  20.762  0.00  0.00    +0.000 A 
ATOM      3  C   UNL     1      -3.030  12.639  21.137  0.00  0.00    +0.000 A 
ATOM      4  C   UNL     1      -3.371  13.168  22.428  0.00  0.00    +0.000 A 
ATOM      5  C   UNL     1      -4.688  13.621  22.679  0.00  0.00    +0.000 A 
ATOM      6  C   UNL     1      -5.644  13.550  21.672  0.00  0.00    +0.000 A 
ATOM      7  C   UNL     1      -5.308  13.030  20.424  0.00  0.00    +0.000 A 
ATOM      8  C   UNL     1      -4.017  12.558  20.119  0.00  0.00    +0.000 A 
ATOM      9  C   UNL     1      -3.737  12.020  18.824  0.00  0.00    +0.000 A 
ATOM     10  N   UNL     1      -4.713  12.024  17.887  0.00  0.00    +0.000 NA
ATOM     11  C   UNL     1      -4.482  11.502  16.656  0.00  0.00    +0.000 A 
ATOM     12  C   UNL     1      -3.300  10.909  16.295  0.00  0.00    +0.000 A 
ATOM     13  C   UNL     1      -2.300  10.870  17.257  0.00  0.00    +0.000 A 
ATOM     14  C   UNL     1      -2.462  11.480  18.535  0.00  0.00    +0.000 A 
ENDROOT
BRANCH   1  15
ATOM     15  C   UNL     1      -0.048  11.157  19.376  0.00  0.00    +0.000 C 
ATOM     16  O   UNL     1       0.435  10.102  19.751  0.00  0.00    +0.000 OA
BRANCH  15  17
ATOM     17  O   UNL     1       0.586  12.153  18.711  0.00  0.00    +0.000 OA
BRANCH  17  19
ATOM     18  C   UNL     1       2.695  13.071  18.253  0.00  0.00    +0.000 C 
ATOM     19  C   UNL     1       1.688  12.801  19.352  0.00  0.00    +0.000 C 
ENDBRANCH  17  19
ENDBRANCH  15  17
ENDBRANCH   1  15
BRANCH   4  20
ATOM     20  O   UNL     1      -2.568  13.310  23.539  0.00  0.00    +0.000 OA
ATOM     21  C   UNL     1      -1.524  14.254  23.644  0.00  0.00    +0.000 C 
ENDBRANCH   4  20
BRANCH   5  22
ATOM     22  O   UNL     1      -4.934  14.114  23.939  0.00  0.00    +0.000 OA
ATOM     23  C   UNL     1      -5.291  15.483  24.063  0.00  0.00    +0.000 C 
ENDBRANCH   5  22
BRANCH  12  24
ATOM     24  C   UNL     1      -3.143  10.357  14.987  0.00  0.00    +0.000 C 
ATOM     25  N   UNL     1      -3.033   9.873  13.937  0.00  0.00    +0.000 NA
ENDBRANCH  12  24
BRANCH  13  26
ATOM     26  O   UNL     1      -1.169  10.134  17.012  0.00  0.00    +0.000 OA
ATOM     27  H   UNL     1      -1.355   9.438  16.354  0.00  0.00    +0.000 HD
ENDBRANCH  13  26
TORSDOF 7
ENDMDL
