MODEL 1
REMARK VINA RESULT:      -6.9      0.000      0.000
REMARK  Name = 
REMARK  9 active torsions:
REMARK  status: ('A' for Active; 'I' for Inactive)
REMARK    1  A    between atoms: C_2  and  C_4
REMARK    2  A    between atoms: C_4  and  C_5
REMARK    3  A    between atoms: C_5  and  O_6
REMARK    4  A    between atoms: C_5  and  C_7
REMARK    5  A    between atoms: C_7  and  C_8
REMARK    6  A    between atoms: C_8  and  O_9
REMARK    7  A    between atoms: C_8  and  C_10
REMARK    8  A    between atoms: C_11  and  C_12
REMARK    9  A    between atoms: C_13  and  C_14
REMARK                            x       y       z     vdW  Elec       q    Type
REMARK                         _______ _______ _______ _____ _____    ______ ____
ROOT
ATOM      1  C   UNL     1       2.126   7.534  18.797  0.00  0.00    +0.000 A 
ATOM      2  C   UNL     1       1.544   7.183  19.984  0.00  0.00    +0.000 A 
ATOM      3  C   UNL     1       0.885   8.236  20.825  0.00  0.00    +0.000 A 
ATOM      4  C   UNL     1       0.304   7.944  22.068  0.00  0.00    +0.000 A 
ATOM      5  C   UNL     1      -0.313   8.948  22.823  0.00  0.00    +0.000 A 
ATOM      6  C   UNL     1      -0.364  10.259  22.349  0.00  0.00    +0.000 A 
ATOM      7  C   UNL     1       0.210  10.578  21.123  0.00  0.00    +0.000 A 
ATOM      8  C   UNL     1       0.830   9.567  20.382  0.00  0.00    +0.000 A 
ATOM      9  N   UNL     1       1.443   9.829  19.153  0.00  0.00    +0.000 N 
ATOM     10  N   UNL     1       1.511  11.043  18.572  0.00  0.00    +0.000 NA
ATOM     11  N   UNL     1       2.180  10.848  17.445  0.00  0.00    +0.000 NA
ATOM     12  N   UNL     1       2.540   9.530  17.300  0.00  0.00    +0.000 NA
ATOM     13  C   UNL     1       2.070   8.901  18.367  0.00  0.00    +0.000 A 
ENDROOT
BRANCH   2  14
ATOM     14  C   UNL     1       1.594   5.759  20.409  0.00  0.00    +0.000 A 
ATOM     15  C   UNL     1       2.596   5.322  21.287  0.00  0.00    +0.000 A 
ATOM     16  C   UNL     1       2.635   3.991  21.701  0.00  0.00    +0.000 A 
ATOM     17  C   UNL     1       1.672   3.101  21.233  0.00  0.00    +0.000 A 
ATOM     18  F   UNL     1       1.709   1.823  21.628  0.00  0.00    +0.000 F 
ATOM     19  C   UNL     1       0.676   3.518  20.359  0.00  0.00    +0.000 A 
ATOM     20  C   UNL     1       0.631   4.848  19.944  0.00  0.00    +0.000 A 
ENDBRANCH   2  14
BRANCH   1  22
ATOM     21  C   UNL     1       4.087   6.368  17.876  0.00  0.00    +0.000 C 
ATOM     22  C   UNL     1       2.757   6.548  17.933  0.00  0.00    +0.000 C 
BRANCH  21  23
ATOM     23  C   UNL     1       4.736   5.514  16.832  0.00  0.00    +0.000 C 
BRANCH  23  24
ATOM     24  O   UNL     1       4.815   4.190  17.354  0.00  0.00    +0.000 OA
ATOM     25  H   UNL     1       4.737   4.262  18.321  0.00  0.00    +0.000 HD
ENDBRANCH  23  24
BRANCH  23  26
ATOM     26  C   UNL     1       6.132   6.046  16.489  0.00  0.00    +0.000 C 
BRANCH  26  27
ATOM     27  C   UNL     1       6.769   6.881  17.602  0.00  0.00    +0.000 C 
BRANCH  27  28
ATOM     28  O   UNL     1       7.175   8.137  17.044  0.00  0.00    +0.000 OA
ATOM     29  H   UNL     1       6.325   8.612  16.873  0.00  0.00    +0.000 HD
ENDBRANCH  27  28
BRANCH  27  30
ATOM     30  C   UNL     1       7.949   6.230  18.322  0.00  0.00    +0.000 C 
BRANCH  30  32
ATOM     31  O   UNL     1       6.393   5.232  19.812  0.00  0.00    +0.000 OA
ATOM     32  C   UNL     1       7.617   5.462  19.605  0.00  0.00    +0.000 C 
ATOM     33  O   UNL     1       8.617   5.112  20.308  0.00  0.00    +0.000 OA
ENDBRANCH  30  32
ENDBRANCH  27  30
ENDBRANCH  26  27
ENDBRANCH  23  26
ENDBRANCH  21  23
ENDBRANCH   1  22
TORSDOF 9
ENDMDL
MODEL 2
REMARK VINA RESULT:      -6.9      1.215      1.735
REMARK  Name = 
REMARK  9 active torsions:
REMARK  status: ('A' for Active; 'I' for Inactive)
REMARK    1  A    between atoms: C_2  and  C_4
REMARK    2  A    between atoms: C_4  and  C_5
REMARK    3  A    between atoms: C_5  and  O_6
REMARK    4  A    between atoms: C_5  and  C_7
REMARK    5  A    between atoms: C_7  and  C_8
REMARK    6  A    between atoms: C_8  and  O_9
REMARK    7  A    between atoms: C_8  and  C_10
REMARK    8  A    between atoms: C_11  and  C_12
REMARK    9  A    between atoms: C_13  and  C_14
REMARK                            x       y       z     vdW  Elec       q    Type
REMARK                         _______ _______ _______ _____ _____    ______ ____
ROOT
ATOM      1  C   UNL     1       2.441   8.235  18.445  0.00  0.00    +0.000 A 
ATOM      2  C   UNL     1       1.788   7.633  19.485  0.00  0.00    +0.000 A 
ATOM      3  C   UNL     1       0.987   8.469  20.440  0.00  0.00    +0.000 A 
ATOM      4  C   UNL     1       0.326   7.914  21.545  0.00  0.00    +0.000 A 
ATOM      5  C   UNL     1      -0.423   8.719  22.410  0.00  0.00    +0.000 A 
ATOM      6  C   UNL     1      -0.529  10.092  22.184  0.00  0.00    +0.000 A 
ATOM      7  C   UNL     1       0.122  10.670  21.099  0.00  0.00    +0.000 A 
ATOM      8  C   UNL     1       0.874   9.854  20.246  0.00  0.00    +0.000 A 
ATOM      9  N   UNL     1       1.566  10.379  19.152  0.00  0.00    +0.000 N 
ATOM     10  N   UNL     1       1.595  11.684  18.814  0.00  0.00    +0.000 NA
ATOM     11  N   UNL     1       2.368  11.744  17.740  0.00  0.00    +0.000 NA
ATOM     12  N   UNL     1       2.834  10.499  17.389  0.00  0.00    +0.000 NA
ATOM     13  C   UNL     1       2.323   9.654  18.272  0.00  0.00    +0.000 A 
ENDROOT
BRANCH   2  14
ATOM     14  C   UNL     1       1.905   6.159  19.643  0.00  0.00    +0.000 A 
ATOM     15  C   UNL     1       1.569   5.310  18.579  0.00  0.00    +0.000 A 
ATOM     16  C   UNL     1       1.695   3.928  18.716  0.00  0.00    +0.000 A 
ATOM     17  C   UNL     1       2.154   3.401  19.921  0.00  0.00    +0.000 A 
ATOM     18  F   UNL     1       2.274   2.074  20.056  0.00  0.00    +0.000 F 
ATOM     19  C   UNL     1       2.486   4.229  20.986  0.00  0.00    +0.000 A 
ATOM     20  C   UNL     1       2.365   5.611  20.851  0.00  0.00    +0.000 A 
ENDBRANCH   2  14
BRANCH   1  22
ATOM     21  C   UNL     1       4.512   7.176  17.645  0.00  0.00    +0.000 C 
ATOM     22  C   UNL     1       3.212   7.468  17.478  0.00  0.00    +0.000 C 
BRANCH  21  23
ATOM     23  C   UNL     1       5.346   6.584  16.551  0.00  0.00    +0.000 C 
BRANCH  23  24
ATOM     24  O   UNL     1       4.858   7.101  15.316  0.00  0.00    +0.000 OA
ATOM     25  H   UNL     1       5.133   6.480  14.620  0.00  0.00    +0.000 HD
ENDBRANCH  23  24
BRANCH  23  26
ATOM     26  C   UNL     1       5.257   5.054  16.572  0.00  0.00    +0.000 C 
BRANCH  26  27
ATOM     27  C   UNL     1       6.061   4.399  17.696  0.00  0.00    +0.000 C 
BRANCH  27  28
ATOM     28  O   UNL     1       5.365   4.611  18.930  0.00  0.00    +0.000 OA
ATOM     29  H   UNL     1       4.692   5.302  18.711  0.00  0.00    +0.000 HD
ENDBRANCH  27  28
BRANCH  27  30
ATOM     30  C   UNL     1       7.509   4.869  17.833  0.00  0.00    +0.000 C 
BRANCH  30  32
ATOM     31  O   UNL     1       8.129   6.995  18.689  0.00  0.00    +0.000 OA
ATOM     32  C   UNL     1       7.805   5.815  19.000  0.00  0.00    +0.000 C 
ATOM     33  O   UNL     1       7.663   5.315  20.160  0.00  0.00    +0.000 OA
ENDBRANCH  30  32
ENDBRANCH  27  30
ENDBRANCH  26  27
ENDBRANCH  23  26
ENDBRANCH  21  23
ENDBRANCH   1  22
TORSDOF 9
ENDMDL
MODEL 3
REMARK VINA RESULT:      -6.8      1.650      2.462
REMARK  Name = 
REMARK  9 active torsions:
REMARK  status: ('A' for Active; 'I' for Inactive)
REMARK    1  A    between atoms: C_2  and  C_4
REMARK    2  A    between atoms: C_4  and  C_5
REMARK    3  A    between atoms: C_5  and  O_6
REMARK    4  A    between atoms: C_5  and  C_7
REMARK    5  A    between atoms: C_7  and  C_8
REMARK    6  A    between atoms: C_8  and  O_9
REMARK    7  A    between atoms: C_8  and  C_10
REMARK    8  A    between atoms: C_11  and  C_12
REMARK    9  A    between atoms: C_13  and  C_14
REMARK                            x       y       z     vdW  Elec       q    Type
REMARK                         _______ _______ _______ _____ _____    ______ ____
ROOT
ATOM      1  C   UNL     1       2.231   7.114  18.769  0.00  0.00    +0.000 A 
ATOM      2  C   UNL     1       1.650   6.857  19.980  0.00  0.00    +0.000 A 
ATOM      3  C   UNL     1       1.049   7.984  20.767  0.00  0.00    +0.000 A 
ATOM      4  C   UNL     1       0.473   7.789  22.030  0.00  0.00    +0.000 A 
ATOM      5  C   UNL     1      -0.090   8.860  22.733  0.00  0.00    +0.000 A 
ATOM      6  C   UNL     1      -0.090  10.144  22.186  0.00  0.00    +0.000 A 
ATOM      7  C   UNL     1       0.482  10.367  20.937  0.00  0.00    +0.000 A 
ATOM      8  C   UNL     1       1.047   9.289  20.249  0.00  0.00    +0.000 A 
ATOM      9  N   UNL     1       1.654   9.454  19.000  0.00  0.00    +0.000 N 
ATOM     10  N   UNL     1       1.767  10.628  18.350  0.00  0.00    +0.000 NA
ATOM     11  N   UNL     1       2.412  10.341  17.229  0.00  0.00    +0.000 NA
ATOM     12  N   UNL     1       2.713   9.001  17.156  0.00  0.00    +0.000 NA
ATOM     13  C   UNL     1       2.230   8.456  18.262  0.00  0.00    +0.000 A 
ENDROOT
BRANCH   2  14
ATOM     14  C   UNL     1       1.643   5.458  20.485  0.00  0.00    +0.000 A 
ATOM     15  C   UNL     1       2.605   5.043  21.417  0.00  0.00    +0.000 A 
ATOM     16  C   UNL     1       2.590   3.737  21.906  0.00  0.00    +0.000 A 
ATOM     17  C   UNL     1       1.614   2.850  21.458  0.00  0.00    +0.000 A 
ATOM     18  F   UNL     1       1.599   1.596  21.925  0.00  0.00    +0.000 F 
ATOM     19  C   UNL     1       0.658   3.246  20.531  0.00  0.00    +0.000 A 
ATOM     20  C   UNL     1       0.667   4.551  20.042  0.00  0.00    +0.000 A 
ENDBRANCH   2  14
BRANCH   1  22
ATOM     21  C   UNL     1       4.127   5.928  17.743  0.00  0.00    +0.000 C 
ATOM     22  C   UNL     1       2.807   6.053  17.956  0.00  0.00    +0.000 C 
BRANCH  21  23
ATOM     23  C   UNL     1       4.689   4.976  16.734  0.00  0.00    +0.000 C 
BRANCH  23  24
ATOM     24  O   UNL     1       3.905   3.787  16.789  0.00  0.00    +0.000 OA
ATOM     25  H   UNL     1       3.956   3.373  15.910  0.00  0.00    +0.000 HD
ENDBRANCH  23  24
BRANCH  23  26
ATOM     26  C   UNL     1       6.159   4.670  17.039  0.00  0.00    +0.000 C 
BRANCH  26  27
ATOM     27  C   UNL     1       7.114   4.995  15.888  0.00  0.00    +0.000 C 
BRANCH  27  28
ATOM     28  O   UNL     1       7.546   6.353  16.033  0.00  0.00    +0.000 OA
ATOM     29  H   UNL     1       6.706   6.863  16.139  0.00  0.00    +0.000 HD
ENDBRANCH  27  28
BRANCH  27  30
ATOM     30  C   UNL     1       6.553   4.777  14.484  0.00  0.00    +0.000 C 
BRANCH  30  32
ATOM     31  O   UNL     1       8.497   5.786  13.569  0.00  0.00    +0.000 OA
ATOM     32  C   UNL     1       7.522   5.024  13.324  0.00  0.00    +0.000 C 
ATOM     33  O   UNL     1       7.251   4.409  12.244  0.00  0.00    +0.000 OA
ENDBRANCH  30  32
ENDBRANCH  27  30
ENDBRANCH  26  27
ENDBRANCH  23  26
ENDBRANCH  21  23
ENDBRANCH   1  22
TORSDOF 9
ENDMDL
MODEL 4
REMARK VINA RESULT:      -6.8      1.320      2.132
REMARK  Name = 
REMARK  9 active torsions:
REMARK  status: ('A' for Active; 'I' for Inactive)
REMARK    1  A    between atoms: C_2  and  C_4
REMARK    2  A    between atoms: C_4  and  C_5
REMARK    3  A    between atoms: C_5  and  O_6
REMARK    4  A    between atoms: C_5  and  C_7
REMARK    5  A    between atoms: C_7  and  C_8
REMARK    6  A    between atoms: C_8  and  O_9
REMARK    7  A    between atoms: C_8  and  C_10
REMARK    8  A    between atoms: C_11  and  C_12
REMARK    9  A    between atoms: C_13  and  C_14
REMARK                            x       y       z     vdW  Elec       q    Type
REMARK                         _______ _______ _______ _____ _____    ______ ____
ROOT
ATOM      1  C   UNL     1       2.233   7.417  18.920  0.00  0.00    +0.000 A 
ATOM      2  C   UNL     1       1.582   7.105  20.082  0.00  0.00    +0.000 A 
ATOM      3  C   UNL     1       0.860   8.180  20.839  0.00  0.00    +0.000 A 
ATOM      4  C   UNL     1       0.206   7.928  22.053  0.00  0.00    +0.000 A 
ATOM      5  C   UNL     1      -0.468   8.952  22.729  0.00  0.00    +0.000 A 
ATOM      6  C   UNL     1      -0.504  10.243  22.202  0.00  0.00    +0.000 A 
ATOM      7  C   UNL     1       0.142  10.523  21.002  0.00  0.00    +0.000 A 
ATOM      8  C   UNL     1       0.819   9.492  20.341  0.00  0.00    +0.000 A 
ATOM      9  N   UNL     1       1.504   9.715  19.143  0.00  0.00    +0.000 N 
ATOM     10  N   UNL     1       1.594  10.907  18.520  0.00  0.00    +0.000 NA
ATOM     11  N   UNL     1       2.334  10.678  17.446  0.00  0.00    +0.000 NA
ATOM     12  N   UNL     1       2.718   9.359  17.375  0.00  0.00    +0.000 NA
ATOM     13  C   UNL     1       2.189   8.766  18.434  0.00  0.00    +0.000 A 
ENDROOT
BRANCH   2  14
ATOM     14  C   UNL     1       1.621   5.698  20.565  0.00  0.00    +0.000 A 
ATOM     15  C   UNL     1       0.605   4.803  20.203  0.00  0.00    +0.000 A 
ATOM     16  C   UNL     1       0.648   3.479  20.639  0.00  0.00    +0.000 A 
ATOM     17  C   UNL     1       1.708   3.057  21.438  0.00  0.00    +0.000 A 
ATOM     18  F   UNL     1       1.751   1.787  21.859  0.00  0.00    +0.000 F 
ATOM     19  C   UNL     1       2.720   3.934  21.808  0.00  0.00    +0.000 A 
ATOM     20  C   UNL     1       2.682   5.258  21.372  0.00  0.00    +0.000 A 
ENDBRANCH   2  14
BRANCH   1  22
ATOM     21  C   UNL     1       2.369   5.236  17.792  0.00  0.00    +0.000 C 
ATOM     22  C   UNL     1       2.928   6.407  18.137  0.00  0.00    +0.000 C 
BRANCH  21  23
ATOM     23  C   UNL     1       3.160   4.120  17.183  0.00  0.00    +0.000 C 
BRANCH  23  24
ATOM     24  O   UNL     1       2.230   3.162  16.686  0.00  0.00    +0.000 OA
ATOM     25  H   UNL     1       2.566   2.284  16.937  0.00  0.00    +0.000 HD
ENDBRANCH  23  24
BRANCH  23  26
ATOM     26  C   UNL     1       4.089   3.484  18.224  0.00  0.00    +0.000 C 
BRANCH  26  27
ATOM     27  C   UNL     1       5.551   3.920  18.102  0.00  0.00    +0.000 C 
BRANCH  27  28
ATOM     28  O   UNL     1       5.922   4.589  19.313  0.00  0.00    +0.000 OA
ATOM     29  H   UNL     1       5.548   5.499  19.210  0.00  0.00    +0.000 HD
ENDBRANCH  27  28
BRANCH  27  30
ATOM     30  C   UNL     1       5.877   4.805  16.900  0.00  0.00    +0.000 C 
BRANCH  30  32
ATOM     31  O   UNL     1       8.160   4.223  17.196  0.00  0.00    +0.000 OA
ATOM     32  C   UNL     1       7.335   4.796  16.431  0.00  0.00    +0.000 C 
ATOM     33  O   UNL     1       7.551   5.345  15.304  0.00  0.00    +0.000 OA
ENDBRANCH  30  32
ENDBRANCH  27  30
ENDBRANCH  26  27
ENDBRANCH  23  26
ENDBRANCH  21  23
ENDBRANCH   1  22
TORSDOF 9
ENDMDL
MODEL 5
REMARK VINA RESULT:      -6.7      1.478      2.152
REMARK  Name = 
REMARK  9 active torsions:
REMARK  status: ('A' for Active; 'I' for Inactive)
REMARK    1  A    between atoms: C_2  and  C_4
REMARK    2  A    between atoms: C_4  and  C_5
REMARK    3  A    between atoms: C_5  and  O_6
REMARK    4  A    between atoms: C_5  and  C_7
REMARK    5  A    between atoms: C_7  and  C_8
REMARK    6  A    between atoms: C_8  and  O_9
REMARK    7  A    between atoms: C_8  and  C_10
REMARK    8  A    between atoms: C_11  and  C_12
REMARK    9  A    between atoms: C_13  and  C_14
REMARK                            x       y       z     vdW  Elec       q    Type
REMARK                         _______ _______ _______ _____ _____    ______ ____
ROOT
ATOM      1  C   UNL     1       2.298   7.244  18.857  0.00  0.00    +0.000 A 
ATOM      2  C   UNL     1       1.629   6.953  20.015  0.00  0.00    +0.000 A 
ATOM      3  C   UNL     1       0.903   8.043  20.746  0.00  0.00    +0.000 A 
ATOM      4  C   UNL     1       0.232   7.813  21.955  0.00  0.00    +0.000 A 
ATOM      5  C   UNL     1      -0.446   8.850  22.605  0.00  0.00    +0.000 A 
ATOM      6  C   UNL     1      -0.469  10.133  22.059  0.00  0.00    +0.000 A 
ATOM      7  C   UNL     1       0.195  10.391  20.863  0.00  0.00    +0.000 A 
ATOM      8  C   UNL     1       0.875   9.347  20.227  0.00  0.00    +0.000 A 
ATOM      9  N   UNL     1       1.577   9.548  19.035  0.00  0.00    +0.000 N 
ATOM     10  N   UNL     1       1.682  10.730  18.395  0.00  0.00    +0.000 NA
ATOM     11  N   UNL     1       2.435  10.481  17.334  0.00  0.00    +0.000 NA
ATOM     12  N   UNL     1       2.813   9.159  17.289  0.00  0.00    +0.000 NA
ATOM     13  C   UNL     1       2.267   8.585  18.350  0.00  0.00    +0.000 A 
ENDROOT
BRANCH   2  14
ATOM     14  C   UNL     1       1.655   5.554  20.520  0.00  0.00    +0.000 A 
ATOM     15  C   UNL     1       2.677   5.138  21.385  0.00  0.00    +0.000 A 
ATOM     16  C   UNL     1       2.694   3.832  21.874  0.00  0.00    +0.000 A 
ATOM     17  C   UNL     1       1.689   2.946  21.493  0.00  0.00    +0.000 A 
ATOM     18  F   UNL     1       1.704   1.692  21.961  0.00  0.00    +0.000 F 
ATOM     19  C   UNL     1       0.673   3.343  20.633  0.00  0.00    +0.000 A 
ATOM     20  C   UNL     1       0.650   4.648  20.144  0.00  0.00    +0.000 A 
ENDBRANCH   2  14
BRANCH   1  22
ATOM     21  C   UNL     1       2.396   5.111  17.636  0.00  0.00    +0.000 C 
ATOM     22  C   UNL     1       2.998   6.218  18.099  0.00  0.00    +0.000 C 
BRANCH  21  23
ATOM     23  C   UNL     1       3.165   3.965  17.056  0.00  0.00    +0.000 C 
BRANCH  23  24
ATOM     24  O   UNL     1       2.277   2.852  16.980  0.00  0.00    +0.000 OA
ATOM     25  H   UNL     1       2.694   2.123  17.471  0.00  0.00    +0.000 HD
ENDBRANCH  23  24
BRANCH  23  26
ATOM     26  C   UNL     1       4.379   3.630  17.929  0.00  0.00    +0.000 C 
BRANCH  26  27
ATOM     27  C   UNL     1       5.725   3.908  17.255  0.00  0.00    +0.000 C 
BRANCH  27  28
ATOM     28  O   UNL     1       6.315   5.051  17.885  0.00  0.00    +0.000 OA
ATOM     29  H   UNL     1       5.625   5.359  18.524  0.00  0.00    +0.000 HD
ENDBRANCH  27  28
BRANCH  27  30
ATOM     30  C   UNL     1       5.675   4.120  15.743  0.00  0.00    +0.000 C 
BRANCH  30  32
ATOM     31  O   UNL     1       5.414   6.420  15.216  0.00  0.00    +0.000 OA
ATOM     32  C   UNL     1       6.225   5.453  15.229  0.00  0.00    +0.000 C 
ATOM     33  O   UNL     1       7.453   5.447  14.896  0.00  0.00    +0.000 OA
ENDBRANCH  30  32
ENDBRANCH  27  30
ENDBRANCH  26  27
ENDBRANCH  23  26
ENDBRANCH  21  23
ENDBRANCH   1  22
TORSDOF 9
ENDMDL
MODEL 6
REMARK VINA RESULT:      -6.7      1.190      1.486
REMARK  Name = 
REMARK  9 active torsions:
REMARK  status: ('A' for Active; 'I' for Inactive)
REMARK    1  A    between atoms: C_2  and  C_4
REMARK    2  A    between atoms: C_4  and  C_5
REMARK    3  A    between atoms: C_5  and  O_6
REMARK    4  A    between atoms: C_5  and  C_7
REMARK    5  A    between atoms: C_7  and  C_8
REMARK    6  A    between atoms: C_8  and  O_9
REMARK    7  A    between atoms: C_8  and  C_10
REMARK    8  A    between atoms: C_11  and  C_12
REMARK    9  A    between atoms: C_13  and  C_14
REMARK                            x       y       z     vdW  Elec       q    Type
REMARK                         _______ _______ _______ _____ _____    ______ ____
ROOT
ATOM      1  C   UNL     1       2.363   7.026  18.794  0.00  0.00    +0.000 A 
ATOM      2  C   UNL     1       1.679   6.764  19.949  0.00  0.00    +0.000 A 
ATOM      3  C   UNL     1       0.980   7.881  20.665  0.00  0.00    +0.000 A 
ATOM      4  C   UNL     1       0.294   7.681  21.871  0.00  0.00    +0.000 A 
ATOM      5  C   UNL     1      -0.359   8.742  22.508  0.00  0.00    +0.000 A 
ATOM      6  C   UNL     1      -0.342  10.020  21.950  0.00  0.00    +0.000 A 
ATOM      7  C   UNL     1       0.337  10.249  20.757  0.00  0.00    +0.000 A 
ATOM      8  C   UNL     1       0.991   9.180  20.135  0.00  0.00    +0.000 A 
ATOM      9  N   UNL     1       1.707   9.351  18.946  0.00  0.00    +0.000 N 
ATOM     10  N   UNL     1       1.849  10.523  18.296  0.00  0.00    +0.000 NA
ATOM     11  N   UNL     1       2.602  10.243  17.243  0.00  0.00    +0.000 NA
ATOM     12  N   UNL     1       2.943   8.911  17.212  0.00  0.00    +0.000 NA
ATOM     13  C   UNL     1       2.374   8.362  18.275  0.00  0.00    +0.000 A 
ENDROOT
BRANCH   2  14
ATOM     14  C   UNL     1       1.662   5.369  20.466  0.00  0.00    +0.000 A 
ATOM     15  C   UNL     1       2.579   4.974  21.451  0.00  0.00    +0.000 A 
ATOM     16  C   UNL     1       2.553   3.672  21.951  0.00  0.00    +0.000 A 
ATOM     17  C   UNL     1       1.612   2.770  21.461  0.00  0.00    +0.000 A 
ATOM     18  F   UNL     1       1.587   1.520  21.939  0.00  0.00    +0.000 F 
ATOM     19  C   UNL     1       0.701   3.146  20.482  0.00  0.00    +0.000 A 
ATOM     20  C   UNL     1       0.721   4.447  19.982  0.00  0.00    +0.000 A 
ENDBRANCH   2  14
BRANCH   1  22
ATOM     21  C   UNL     1       4.272   5.537  18.354  0.00  0.00    +0.000 C 
ATOM     22  C   UNL     1       3.040   5.974  18.049  0.00  0.00    +0.000 C 
BRANCH  21  23
ATOM     23  C   UNL     1       5.042   4.620  17.456  0.00  0.00    +0.000 C 
BRANCH  23  24
ATOM     24  O   UNL     1       4.718   3.284  17.834  0.00  0.00    +0.000 OA
ATOM     25  H   UNL     1       5.160   3.116  18.684  0.00  0.00    +0.000 HD
ENDBRANCH  23  24
BRANCH  23  26
ATOM     26  C   UNL     1       6.548   4.871  17.589  0.00  0.00    +0.000 C 
BRANCH  26  27
ATOM     27  C   UNL     1       6.969   6.307  17.270  0.00  0.00    +0.000 C 
BRANCH  27  28
ATOM     28  O   UNL     1       7.620   6.312  15.994  0.00  0.00    +0.000 OA
ATOM     29  H   UNL     1       8.538   6.002  16.189  0.00  0.00    +0.000 HD
ENDBRANCH  27  28
BRANCH  27  30
ATOM     30  C   UNL     1       7.866   6.978  18.309  0.00  0.00    +0.000 C 
BRANCH  30  32
ATOM     31  O   UNL     1       7.460   9.040  17.205  0.00  0.00    +0.000 OA
ATOM     32  C   UNL     1       8.139   8.471  18.104  0.00  0.00    +0.000 C 
ATOM     33  O   UNL     1       9.004   8.982  18.884  0.00  0.00    +0.000 OA
ENDBRANCH  30  32
ENDBRANCH  27  30
ENDBRANCH  26  27
ENDBRANCH  23  26
ENDBRANCH  21  23
ENDBRANCH   1  22
TORSDOF 9
ENDMDL
MODEL 7
REMARK VINA RESULT:      -6.7      2.285      3.124
REMARK  Name = 
REMARK  9 active torsions:
REMARK  status: ('A' for Active; 'I' for Inactive)
REMARK    1  A    between atoms: C_2  and  C_4
REMARK    2  A    between atoms: C_4  and  C_5
REMARK    3  A    between atoms: C_5  and  O_6
REMARK    4  A    between atoms: C_5  and  C_7
REMARK    5  A    between atoms: C_7  and  C_8
REMARK    6  A    between atoms: C_8  and  O_9
REMARK    7  A    between atoms: C_8  and  C_10
REMARK    8  A    between atoms: C_11  and  C_12
REMARK    9  A    between atoms: C_13  and  C_14
REMARK                            x       y       z     vdW  Elec       q    Type
REMARK                         _______ _______ _______ _____ _____    ______ ____
ROOT
ATOM      1  C   UNL     1       2.611   8.151  18.184  0.00  0.00    +0.000 A 
ATOM      2  C   UNL     1       1.998   7.441  19.180  0.00  0.00    +0.000 A 
ATOM      3  C   UNL     1       1.175   8.164  20.205  0.00  0.00    +0.000 A 
ATOM      4  C   UNL     1       0.553   7.495  21.269  0.00  0.00    +0.000 A 
ATOM      5  C   UNL     1      -0.218   8.197  22.203  0.00  0.00    +0.000 A 
ATOM      6  C   UNL     1      -0.385   9.577  22.088  0.00  0.00    +0.000 A 
ATOM      7  C   UNL     1       0.227  10.267  21.045  0.00  0.00    +0.000 A 
ATOM      8  C   UNL     1       1.001   9.554  20.124  0.00  0.00    +0.000 A 
ATOM      9  N   UNL     1       1.656  10.193  19.067  0.00  0.00    +0.000 N 
ATOM     10  N   UNL     1       1.625  11.520  18.834  0.00  0.00    +0.000 NA
ATOM     11  N   UNL     1       2.381  11.698  17.761  0.00  0.00    +0.000 NA
ATOM     12  N   UNL     1       2.894  10.506  17.307  0.00  0.00    +0.000 NA
ATOM     13  C   UNL     1       2.431   9.572  18.125  0.00  0.00    +0.000 A 
ENDROOT
BRANCH   2  14
ATOM     14  C   UNL     1       2.179   5.965  19.218  0.00  0.00    +0.000 A 
ATOM     15  C   UNL     1       3.003   5.384  20.192  0.00  0.00    +0.000 A 
ATOM     16  C   UNL     1       3.161   3.999  20.242  0.00  0.00    +0.000 A 
ATOM     17  C   UNL     1       2.495   3.201  19.315  0.00  0.00    +0.000 A 
ATOM     18  F   UNL     1       2.646   1.872  19.361  0.00  0.00    +0.000 F 
ATOM     19  C   UNL     1       1.679   3.764  18.342  0.00  0.00    +0.000 A 
ATOM     20  C   UNL     1       1.516   5.147  18.290  0.00  0.00    +0.000 A 
ENDBRANCH   2  14
BRANCH   1  22
ATOM     21  C   UNL     1       4.603   6.948  17.388  0.00  0.00    +0.000 C 
ATOM     22  C   UNL     1       3.401   7.496  17.152  0.00  0.00    +0.000 C 
BRANCH  21  23
ATOM     23  C   UNL     1       5.500   6.478  16.285  0.00  0.00    +0.000 C 
BRANCH  23  24
ATOM     24  O   UNL     1       5.037   7.076  15.077  0.00  0.00    +0.000 OA
ATOM     25  H   UNL     1       5.784   7.575  14.704  0.00  0.00    +0.000 HD
ENDBRANCH  23  24
BRANCH  23  26
ATOM     26  C   UNL     1       5.470   4.949  16.178  0.00  0.00    +0.000 C 
BRANCH  26  27
ATOM     27  C   UNL     1       6.286   4.391  15.010  0.00  0.00    +0.000 C 
BRANCH  27  28
ATOM     28  O   UNL     1       7.361   5.299  14.739  0.00  0.00    +0.000 OA
ATOM     29  H   UNL     1       8.126   4.923  15.240  0.00  0.00    +0.000 HD
ENDBRANCH  27  28
BRANCH  27  30
ATOM     30  C   UNL     1       5.502   4.120  13.727  0.00  0.00    +0.000 C 
BRANCH  30  32
ATOM     31  O   UNL     1       5.898   2.549  11.992  0.00  0.00    +0.000 OA
ATOM     32  C   UNL     1       6.314   3.611  12.533  0.00  0.00    +0.000 C 
ATOM     33  O   UNL     1       7.306   4.332  12.198  0.00  0.00    +0.000 OA
ENDBRANCH  30  32
ENDBRANCH  27  30
ENDBRANCH  26  27
ENDBRANCH  23  26
ENDBRANCH  21  23
ENDBRANCH   1  22
TORSDOF 9
ENDMDL
MODEL 8
REMARK VINA RESULT:      -6.7      0.786      1.466
REMARK  Name = 
REMARK  9 active torsions:
REMARK  status: ('A' for Active; 'I' for Inactive)
REMARK    1  A    between atoms: C_2  and  C_4
REMARK    2  A    between atoms: C_4  and  C_5
REMARK    3  A    between atoms: C_5  and  O_6
REMARK    4  A    between atoms: C_5  and  C_7
REMARK    5  A    between atoms: C_7  and  C_8
REMARK    6  A    between atoms: C_8  and  O_9
REMARK    7  A    between atoms: C_8  and  C_10
REMARK    8  A    between atoms: C_11  and  C_12
REMARK    9  A    between atoms: C_13  and  C_14
REMARK                            x       y       z     vdW  Elec       q    Type
REMARK                         _______ _______ _______ _____ _____    ______ ____
ROOT
ATOM      1  C   UNL     1       2.114   7.473  18.825  0.00  0.00    +0.000 A 
ATOM      2  C   UNL     1       1.533   7.145  20.020  0.00  0.00    +0.000 A 
ATOM      3  C   UNL     1       0.903   8.218  20.856  0.00  0.00    +0.000 A 
ATOM      4  C   UNL     1       0.325   7.949  22.105  0.00  0.00    +0.000 A 
ATOM      5  C   UNL     1      -0.266   8.971  22.856  0.00  0.00    +0.000 A 
ATOM      6  C   UNL     1      -0.294  10.279  22.371  0.00  0.00    +0.000 A 
ATOM      7  C   UNL     1       0.278  10.576  21.138  0.00  0.00    +0.000 A 
ATOM      8  C   UNL     1       0.872   9.546  20.402  0.00  0.00    +0.000 A 
ATOM      9  N   UNL     1       1.481   9.785  19.166  0.00  0.00    +0.000 N 
ATOM     10  N   UNL     1       1.569  10.992  18.574  0.00  0.00    +0.000 NA
ATOM     11  N   UNL     1       2.226  10.774  17.444  0.00  0.00    +0.000 NA
ATOM     12  N   UNL     1       2.558   9.447  17.308  0.00  0.00    +0.000 NA
ATOM     13  C   UNL     1       2.083   8.837  18.384  0.00  0.00    +0.000 A 
ENDROOT
BRANCH   2  14
ATOM     14  C   UNL     1       1.557   5.723  20.457  0.00  0.00    +0.000 A 
ATOM     15  C   UNL     1       0.629   4.812  19.934  0.00  0.00    +0.000 A 
ATOM     16  C   UNL     1       0.661   3.474  20.328  0.00  0.00    +0.000 A 
ATOM     17  C   UNL     1       1.620   3.055  21.247  0.00  0.00    +0.000 A 
ATOM     18  F   UNL     1       1.651   1.772  21.627  0.00  0.00    +0.000 F 
ATOM     19  C   UNL     1       2.543   3.948  21.777  0.00  0.00    +0.000 A 
ATOM     20  C   UNL     1       2.517   5.285  21.384  0.00  0.00    +0.000 A 
ENDBRANCH   2  14
BRANCH   1  22
ATOM     21  C   UNL     1       3.796   5.749  18.324  0.00  0.00    +0.000 C 
ATOM     22  C   UNL     1       2.719   6.466  17.966  0.00  0.00    +0.000 C 
BRANCH  21  23
ATOM     23  C   UNL     1       4.539   4.882  17.356  0.00  0.00    +0.000 C 
BRANCH  23  24
ATOM     24  O   UNL     1       5.066   3.780  18.090  0.00  0.00    +0.000 OA
ATOM     25  H   UNL     1       5.916   4.069  18.464  0.00  0.00    +0.000 HD
ENDBRANCH  23  24
BRANCH  23  26
ATOM     26  C   UNL     1       5.666   5.671  16.679  0.00  0.00    +0.000 C 
BRANCH  26  27
ATOM     27  C   UNL     1       6.964   4.878  16.508  0.00  0.00    +0.000 C 
BRANCH  27  28
ATOM     28  O   UNL     1       6.644   3.613  15.917  0.00  0.00    +0.000 OA
ATOM     29  H   UNL     1       7.520   3.243  15.647  0.00  0.00    +0.000 HD
ENDBRANCH  27  28
BRANCH  27  30
ATOM     30  C   UNL     1       7.777   4.661  17.783  0.00  0.00    +0.000 C 
BRANCH  30  32
ATOM     31  O   UNL     1       8.097   6.872  18.588  0.00  0.00    +0.000 OA
ATOM     32  C   UNL     1       7.632   5.732  18.868  0.00  0.00    +0.000 C 
ATOM     33  O   UNL     1       7.031   5.363  19.926  0.00  0.00    +0.000 OA
ENDBRANCH  30  32
ENDBRANCH  27  30
ENDBRANCH  26  27
ENDBRANCH  23  26
ENDBRANCH  21  23
ENDBRANCH   1  22
TORSDOF 9
ENDMDL
MODEL 9
REMARK VINA RESULT:      -6.7      1.376      2.378
REMARK  Name = 
REMARK  9 active torsions:
REMARK  status: ('A' for Active; 'I' for Inactive)
REMARK    1  A    between atoms: C_2  and  C_4
REMARK    2  A    between atoms: C_4  and  C_5
REMARK    3  A    between atoms: C_5  and  O_6
REMARK    4  A    between atoms: C_5  and  C_7
REMARK    5  A    between atoms: C_7  and  C_8
REMARK    6  A    between atoms: C_8  and  O_9
REMARK    7  A    between atoms: C_8  and  C_10
REMARK    8  A    between atoms: C_11  and  C_12
REMARK    9  A    between atoms: C_13  and  C_14
REMARK                            x       y       z     vdW  Elec       q    Type
REMARK                         _______ _______ _______ _____ _____    ______ ____
ROOT
ATOM      1  C   UNL     1       2.299   7.091  18.808  0.00  0.00    +0.000 A 
ATOM      2  C   UNL     1       1.624   6.829  19.970  0.00  0.00    +0.000 A 
ATOM      3  C   UNL     1       0.926   7.946  20.688  0.00  0.00    +0.000 A 
ATOM      4  C   UNL     1       0.250   7.746  21.900  0.00  0.00    +0.000 A 
ATOM      5  C   UNL     1      -0.402   8.807  22.539  0.00  0.00    +0.000 A 
ATOM      6  C   UNL     1      -0.393  10.084  21.977  0.00  0.00    +0.000 A 
ATOM      7  C   UNL     1       0.276  10.311  20.778  0.00  0.00    +0.000 A 
ATOM      8  C   UNL     1       0.929   9.244  20.154  0.00  0.00    +0.000 A 
ATOM      9  N   UNL     1       1.635   9.414  18.960  0.00  0.00    +0.000 N 
ATOM     10  N   UNL     1       1.768  10.585  18.306  0.00  0.00    +0.000 NA
ATOM     11  N   UNL     1       2.515  10.305  17.248  0.00  0.00    +0.000 NA
ATOM     12  N   UNL     1       2.860   8.974  17.218  0.00  0.00    +0.000 NA
ATOM     13  C   UNL     1       2.301   8.426  18.286  0.00  0.00    +0.000 A 
ENDROOT
BRANCH   2  14
ATOM     14  C   UNL     1       1.616   5.436  20.490  0.00  0.00    +0.000 A 
ATOM     15  C   UNL     1       0.717   4.495  19.968  0.00  0.00    +0.000 A 
ATOM     16  C   UNL     1       0.720   3.184  20.441  0.00  0.00    +0.000 A 
ATOM     17  C   UNL     1       1.620   2.819  21.439  0.00  0.00    +0.000 A 
ATOM     18  F   UNL     1       1.623   1.561  21.896  0.00  0.00    +0.000 F 
ATOM     19  C   UNL     1       2.513   3.741  21.970  0.00  0.00    +0.000 A 
ATOM     20  C   UNL     1       2.517   5.052  21.497  0.00  0.00    +0.000 A 
ENDBRANCH   2  14
BRANCH   1  22
ATOM     21  C   UNL     1       4.092   5.437  18.494  0.00  0.00    +0.000 C 
ATOM     22  C   UNL     1       2.973   6.039  18.062  0.00  0.00    +0.000 C 
BRANCH  21  23
ATOM     23  C   UNL     1       4.896   4.521  17.623  0.00  0.00    +0.000 C 
BRANCH  23  24
ATOM     24  O   UNL     1       4.703   3.195  18.108  0.00  0.00    +0.000 OA
ATOM     25  H   UNL     1       5.487   2.681  17.848  0.00  0.00    +0.000 HD
ENDBRANCH  23  24
BRANCH  23  26
ATOM     26  C   UNL     1       6.380   4.902  17.664  0.00  0.00    +0.000 C 
BRANCH  26  27
ATOM     27  C   UNL     1       6.832   5.768  16.486  0.00  0.00    +0.000 C 
BRANCH  27  28
ATOM     28  O   UNL     1       6.718   7.144  16.870  0.00  0.00    +0.000 OA
ATOM     29  H   UNL     1       6.294   7.578  16.089  0.00  0.00    +0.000 HD
ENDBRANCH  27  28
BRANCH  27  30
ATOM     30  C   UNL     1       6.089   5.535  15.171  0.00  0.00    +0.000 C 
BRANCH  30  32
ATOM     31  O   UNL     1       7.940   5.463  13.686  0.00  0.00    +0.000 OA
ATOM     32  C   UNL     1       6.890   4.865  14.051  0.00  0.00    +0.000 C 
ATOM     33  O   UNL     1       6.424   3.760  13.629  0.00  0.00    +0.000 OA
ENDBRANCH  30  32
ENDBRANCH  27  30
ENDBRANCH  26  27
ENDBRANCH  23  26
ENDBRANCH  21  23
ENDBRANCH   1  22
TORSDOF 9
ENDMDL
