MODEL 1
REMARK VINA RESULT:      -7.9      0.000      0.000
REMARK  Name = 
REMARK  7 active torsions:
REMARK  status: ('A' for Active; 'I' for Inactive)
REMARK    1  A    between atoms: C_1  and  C_2
REMARK    2  A    between atoms: C_7  and  O_8
REMARK    3  A    between atoms: O_8  and  C_9
REMARK    4  A    between atoms: C_9  and  C_10
REMARK    5  A    between atoms: C_10  and  C_11
REMARK    6  A    between atoms: C_18  and  C_19
REMARK    7  A    between atoms: N_20  and  C_21
REMARK                            x       y       z     vdW  Elec       q    Type
REMARK                         _______ _______ _______ _____ _____    ______ ____
ROOT
ATOM      1  C   UNL     1       2.439   7.757  18.722  0.00  0.00    +0.000 C 
ATOM      2  O   UNL     1       2.892   8.123  17.632  0.00  0.00    +0.000 OA
ATOM      3  N   UNL     1       1.501   8.524  19.400  0.00  0.00    +0.000 N 
ATOM      4  C   UNL     1       0.873   9.628  18.650  0.00  0.00    +0.000 C 
ATOM      5  C   UNL     1       1.164  11.006  19.239  0.00  0.00    +0.000 C 
ATOM      6  C   UNL     1       0.224  11.301  20.382  0.00  0.00    +0.000 A 
ATOM      7  N   UNL     1      -0.690  12.287  20.134  0.00  0.00    +0.000 NA
ATOM      8  C   UNL     1      -1.581  12.546  21.036  0.00  0.00    +0.000 A 
ATOM      9  C   UNL     1      -2.604  13.606  20.710  0.00  0.00    +0.000 C 
ATOM     10  N   UNL     1      -1.642  11.904  22.248  0.00  0.00    +0.000 N 
ATOM     11  C   UNL     1      -2.614  12.219  23.283  0.00  0.00    +0.000 C 
ATOM     12  C   UNL     1      -0.740  10.895  22.553  0.00  0.00    +0.000 A 
ATOM     13  O   UNL     1      -0.753  10.271  23.613  0.00  0.00    +0.000 OA
ATOM     14  C   UNL     1       0.260  10.573  21.509  0.00  0.00    +0.000 A 
ATOM     15  C   UNL     1       1.217   9.432  21.738  0.00  0.00    +0.000 C 
ATOM     16  C   UNL     1       1.007   8.262  20.763  0.00  0.00    +0.000 C 
ENDROOT
BRANCH   1  17
ATOM     17  C   UNL     1       2.914   6.444  19.323  0.00  0.00    +0.000 C 
BRANCH  17  18
ATOM     18  C   UNL     1       2.948   5.415  18.195  0.00  0.00    +0.000 C 
BRANCH  18  19
ATOM     19  O   UNL     1       4.159   4.676  18.190  0.00  0.00    +0.000 OA
BRANCH  19  26
ATOM     20  C   UNL     1       5.195   6.466  15.752  0.00  0.00    +0.000 C 
ATOM     21  C   UNL     1       5.862   6.169  17.068  0.00  0.00    +0.000 A 
ATOM     22  C   UNL     1       7.136   6.760  17.244  0.00  0.00    +0.000 A 
ATOM     23  C   UNL     1       7.883   6.570  18.403  0.00  0.00    +0.000 A 
ATOM     24  C   UNL     1       7.373   5.782  19.422  0.00  0.00    +0.000 A 
ATOM     25  C   UNL     1       6.119   5.188  19.272  0.00  0.00    +0.000 A 
ATOM     26  C   UNL     1       5.346   5.366  18.108  0.00  0.00    +0.000 A 
ENDBRANCH  19  26
ENDBRANCH  18  19
ENDBRANCH  17  18
ENDBRANCH   1  17
TORSDOF 4
ENDMDL
MODEL 2
REMARK VINA RESULT:      -7.8      1.807      2.803
REMARK  Name = 
REMARK  7 active torsions:
REMARK  status: ('A' for Active; 'I' for Inactive)
REMARK    1  A    between atoms: C_1  and  C_2
REMARK    2  A    between atoms: C_7  and  O_8
REMARK    3  A    between atoms: O_8  and  C_9
REMARK    4  A    between atoms: C_9  and  C_10
REMARK    5  A    between atoms: C_10  and  C_11
REMARK    6  A    between atoms: C_18  and  C_19
REMARK    7  A    between atoms: N_20  and  C_21
REMARK                            x       y       z     vdW  Elec       q    Type
REMARK                         _______ _______ _______ _____ _____    ______ ____
ROOT
ATOM      1  C   UNL     1       2.193   6.831  19.654  0.00  0.00    +0.000 C 
ATOM      2  O   UNL     1       2.060   5.935  20.495  0.00  0.00    +0.000 OA
ATOM      3  N   UNL     1       1.723   8.114  19.898  0.00  0.00    +0.000 N 
ATOM      4  C   UNL     1       1.319   8.426  21.282  0.00  0.00    +0.000 C 
ATOM      5  C   UNL     1      -0.160   8.781  21.418  0.00  0.00    +0.000 C 
ATOM      6  C   UNL     1      -0.390  10.230  21.066  0.00  0.00    +0.000 A 
ATOM      7  N   UNL     1      -0.741  11.028  22.120  0.00  0.00    +0.000 NA
ATOM      8  C   UNL     1      -0.881  12.298  21.913  0.00  0.00    +0.000 A 
ATOM      9  C   UNL     1      -1.222  13.156  23.107  0.00  0.00    +0.000 C 
ATOM     10  N   UNL     1      -0.725  12.889  20.685  0.00  0.00    +0.000 N 
ATOM     11  C   UNL     1      -0.922  14.309  20.438  0.00  0.00    +0.000 C 
ATOM     12  C   UNL     1      -0.368  12.129  19.581  0.00  0.00    +0.000 A 
ATOM     13  O   UNL     1      -0.197  12.601  18.458  0.00  0.00    +0.000 OA
ATOM     14  C   UNL     1      -0.174  10.679  19.820  0.00  0.00    +0.000 A 
ATOM     15  C   UNL     1       0.295   9.807  18.685  0.00  0.00    +0.000 C 
ATOM     16  C   UNL     1       1.695   9.214  18.918  0.00  0.00    +0.000 C 
ENDROOT
BRANCH   1  17
ATOM     17  C   UNL     1       2.888   6.521  18.339  0.00  0.00    +0.000 C 
BRANCH  17  18
ATOM     18  C   UNL     1       2.691   5.031  18.062  0.00  0.00    +0.000 C 
BRANCH  18  19
ATOM     19  O   UNL     1       3.846   4.275  18.390  0.00  0.00    +0.000 OA
BRANCH  19  26
ATOM     20  C   UNL     1       6.673   5.456  19.305  0.00  0.00    +0.000 C 
ATOM     21  C   UNL     1       6.245   4.946  17.955  0.00  0.00    +0.000 A 
ATOM     22  C   UNL     1       7.234   5.011  16.946  0.00  0.00    +0.000 A 
ATOM     23  C   UNL     1       6.987   4.587  15.643  0.00  0.00    +0.000 A 
ATOM     24  C   UNL     1       5.739   4.084  15.315  0.00  0.00    +0.000 A 
ATOM     25  C   UNL     1       4.745   4.011  16.293  0.00  0.00    +0.000 A 
ATOM     26  C   UNL     1       4.973   4.435  17.617  0.00  0.00    +0.000 A 
ENDBRANCH  19  26
ENDBRANCH  18  19
ENDBRANCH  17  18
ENDBRANCH   1  17
TORSDOF 4
ENDMDL
MODEL 3
REMARK VINA RESULT:      -7.8      0.997      1.680
REMARK  Name = 
REMARK  7 active torsions:
REMARK  status: ('A' for Active; 'I' for Inactive)
REMARK    1  A    between atoms: C_1  and  C_2
REMARK    2  A    between atoms: C_7  and  O_8
REMARK    3  A    between atoms: O_8  and  C_9
REMARK    4  A    between atoms: C_9  and  C_10
REMARK    5  A    between atoms: C_10  and  C_11
REMARK    6  A    between atoms: C_18  and  C_19
REMARK    7  A    between atoms: N_20  and  C_21
REMARK                            x       y       z     vdW  Elec       q    Type
REMARK                         _______ _______ _______ _____ _____    ______ ____
ROOT
ATOM      1  C   UNL     1       2.689   7.248  18.924  0.00  0.00    +0.000 C 
ATOM      2  O   UNL     1       3.141   7.528  17.809  0.00  0.00    +0.000 OA
ATOM      3  N   UNL     1       1.745   8.061  19.537  0.00  0.00    +0.000 N 
ATOM      4  C   UNL     1       1.112   9.098  18.700  0.00  0.00    +0.000 C 
ATOM      5  C   UNL     1       1.395  10.520  19.177  0.00  0.00    +0.000 C 
ATOM      6  C   UNL     1       0.450  10.900  20.292  0.00  0.00    +0.000 A 
ATOM      7  N   UNL     1      -0.469  11.858  19.964  0.00  0.00    +0.000 NA
ATOM      8  C   UNL     1      -1.363  12.183  20.842  0.00  0.00    +0.000 A 
ATOM      9  C   UNL     1      -2.391  13.207  20.430  0.00  0.00    +0.000 C 
ATOM     10  N   UNL     1      -1.423  11.640  22.100  0.00  0.00    +0.000 N 
ATOM     11  C   UNL     1      -2.398  12.031  23.106  0.00  0.00    +0.000 C 
ATOM     12  C   UNL     1      -0.516  10.664  22.487  0.00  0.00    +0.000 A 
ATOM     13  O   UNL     1      -0.527  10.127  23.594  0.00  0.00    +0.000 OA
ATOM     14  C   UNL     1       0.488  10.265  21.473  0.00  0.00    +0.000 A 
ATOM     15  C   UNL     1       1.451   9.152  21.795  0.00  0.00    +0.000 C 
ATOM     16  C   UNL     1       1.250   7.907  20.916  0.00  0.00    +0.000 C 
ENDROOT
BRANCH   1  17
ATOM     17  C   UNL     1       3.170   5.990  19.629  0.00  0.00    +0.000 C 
BRANCH  17  18
ATOM     18  C   UNL     1       2.992   4.828  18.653  0.00  0.00    +0.000 C 
BRANCH  18  19
ATOM     19  O   UNL     1       4.156   4.019  18.579  0.00  0.00    +0.000 OA
BRANCH  19  26
ATOM     20  C   UNL     1       6.913   5.505  19.218  0.00  0.00    +0.000 C 
ATOM     21  C   UNL     1       6.373   5.023  17.898  0.00  0.00    +0.000 A 
ATOM     22  C   UNL     1       7.203   5.277  16.780  0.00  0.00    +0.000 A 
ATOM     23  C   UNL     1       6.837   4.901  15.491  0.00  0.00    +0.000 A 
ATOM     24  C   UNL     1       5.627   4.259  15.285  0.00  0.00    +0.000 A 
ATOM     25  C   UNL     1       4.791   3.998  16.372  0.00  0.00    +0.000 A 
ATOM     26  C   UNL     1       5.141   4.370  17.685  0.00  0.00    +0.000 A 
ENDBRANCH  19  26
ENDBRANCH  18  19
ENDBRANCH  17  18
ENDBRANCH   1  17
TORSDOF 4
ENDMDL
MODEL 4
REMARK VINA RESULT:      -7.6      2.125      2.953
REMARK  Name = 
REMARK  7 active torsions:
REMARK  status: ('A' for Active; 'I' for Inactive)
REMARK    1  A    between atoms: C_1  and  C_2
REMARK    2  A    between atoms: C_7  and  O_8
REMARK    3  A    between atoms: O_8  and  C_9
REMARK    4  A    between atoms: C_9  and  C_10
REMARK    5  A    between atoms: C_10  and  C_11
REMARK    6  A    between atoms: C_18  and  C_19
REMARK    7  A    between atoms: N_20  and  C_21
REMARK                            x       y       z     vdW  Elec       q    Type
REMARK                         _______ _______ _______ _____ _____    ______ ____
ROOT
ATOM      1  C   UNL     1       1.934   8.623  18.359  0.00  0.00    +0.000 C 
ATOM      2  O   UNL     1       2.170   8.999  17.206  0.00  0.00    +0.000 OA
ATOM      3  N   UNL     1       0.971   9.256  19.133  0.00  0.00    +0.000 N 
ATOM      4  C   UNL     1       0.067  10.194  18.441  0.00  0.00    +0.000 C 
ATOM      5  C   UNL     1       0.186  11.633  18.939  0.00  0.00    +0.000 C 
ATOM      6  C   UNL     1      -0.636  11.827  20.190  0.00  0.00    +0.000 A 
ATOM      7  N   UNL     1      -1.734  12.628  20.037  0.00  0.00    +0.000 NA
ATOM      8  C   UNL     1      -2.532  12.782  21.044  0.00  0.00    +0.000 A 
ATOM      9  C   UNL     1      -3.759  13.633  20.827  0.00  0.00    +0.000 C 
ATOM     10  N   UNL     1      -2.322  12.208  22.273  0.00  0.00    +0.000 N 
ATOM     11  C   UNL     1      -3.192  12.410  23.421  0.00  0.00    +0.000 C 
ATOM     12  C   UNL     1      -1.226  11.385  22.485  0.00  0.00    +0.000 A 
ATOM     13  O   UNL     1      -0.992  10.828  23.556  0.00  0.00    +0.000 OA
ATOM     14  C   UNL     1      -0.328  11.180  21.324  0.00  0.00    +0.000 A 
ATOM     15  C   UNL     1       0.836  10.232  21.458  0.00  0.00    +0.000 C 
ATOM     16  C   UNL     1       0.711   8.991  20.559  0.00  0.00    +0.000 C 
ENDROOT
BRANCH   1  17
ATOM     17  C   UNL     1       2.706   7.445  18.932  0.00  0.00    +0.000 C 
BRANCH  17  18
ATOM     18  C   UNL     1       2.729   6.355  17.862  0.00  0.00    +0.000 C 
BRANCH  18  19
ATOM     19  O   UNL     1       1.840   5.294  18.170  0.00  0.00    +0.000 OA
BRANCH  19  26
ATOM     20  C   UNL     1       4.308   3.269  18.001  0.00  0.00    +0.000 C 
ATOM     21  C   UNL     1       3.297   3.450  19.101  0.00  0.00    +0.000 A 
ATOM     22  C   UNL     1       3.459   2.592  20.215  0.00  0.00    +0.000 A 
ATOM     23  C   UNL     1       2.597   2.632  21.307  0.00  0.00    +0.000 A 
ATOM     24  C   UNL     1       1.548   3.536  21.315  0.00  0.00    +0.000 A 
ATOM     25  C   UNL     1       1.367   4.393  20.228  0.00  0.00    +0.000 A 
ATOM     26  C   UNL     1       2.226   4.369  19.112  0.00  0.00    +0.000 A 
ENDBRANCH  19  26
ENDBRANCH  18  19
ENDBRANCH  17  18
ENDBRANCH   1  17
TORSDOF 4
ENDMDL
MODEL 5
REMARK VINA RESULT:      -7.6      1.731      2.367
REMARK  Name = 
REMARK  7 active torsions:
REMARK  status: ('A' for Active; 'I' for Inactive)
REMARK    1  A    between atoms: C_1  and  C_2
REMARK    2  A    between atoms: C_7  and  O_8
REMARK    3  A    between atoms: O_8  and  C_9
REMARK    4  A    between atoms: C_9  and  C_10
REMARK    5  A    between atoms: C_10  and  C_11
REMARK    6  A    between atoms: C_18  and  C_19
REMARK    7  A    between atoms: N_20  and  C_21
REMARK                            x       y       z     vdW  Elec       q    Type
REMARK                         _______ _______ _______ _____ _____    ______ ____
ROOT
ATOM      1  C   UNL     1       2.236   6.913  19.530  0.00  0.00    +0.000 C 
ATOM      2  O   UNL     1       2.150   6.013  20.372  0.00  0.00    +0.000 OA
ATOM      3  N   UNL     1       1.739   8.184  19.789  0.00  0.00    +0.000 N 
ATOM      4  C   UNL     1       1.364   8.482  21.183  0.00  0.00    +0.000 C 
ATOM      5  C   UNL     1      -0.120   8.797  21.360  0.00  0.00    +0.000 C 
ATOM      6  C   UNL     1      -0.398  10.240  21.018  0.00  0.00    +0.000 A 
ATOM      7  N   UNL     1      -0.743  11.026  22.082  0.00  0.00    +0.000 NA
ATOM      8  C   UNL     1      -0.922  12.292  21.883  0.00  0.00    +0.000 A 
ATOM      9  C   UNL     1      -1.254  13.139  23.087  0.00  0.00    +0.000 C 
ATOM     10  N   UNL     1      -0.815  12.890  20.652  0.00  0.00    +0.000 N 
ATOM     11  C   UNL     1      -1.056  14.304  20.414  0.00  0.00    +0.000 C 
ATOM     12  C   UNL     1      -0.467  12.141  19.537  0.00  0.00    +0.000 A 
ATOM     13  O   UNL     1      -0.338  12.619  18.411  0.00  0.00    +0.000 OA
ATOM     14  C   UNL     1      -0.228  10.697  19.767  0.00  0.00    +0.000 A 
ATOM     15  C   UNL     1       0.235   9.839  18.618  0.00  0.00    +0.000 C 
ATOM     16  C   UNL     1       1.655   9.284  18.813  0.00  0.00    +0.000 C 
ENDROOT
BRANCH   1  17
ATOM     17  C   UNL     1       2.905   6.624  18.195  0.00  0.00    +0.000 C 
BRANCH  17  18
ATOM     18  C   UNL     1       2.656   5.152  17.873  0.00  0.00    +0.000 C 
BRANCH  18  19
ATOM     19  O   UNL     1       3.696   4.321  18.362  0.00  0.00    +0.000 OA
BRANCH  19  26
ATOM     20  C   UNL     1       5.244   4.249  15.565  0.00  0.00    +0.000 C 
ATOM     21  C   UNL     1       5.739   4.685  16.918  0.00  0.00    +0.000 A 
ATOM     22  C   UNL     1       7.087   5.114  16.956  0.00  0.00    +0.000 A 
ATOM     23  C   UNL     1       7.693   5.537  18.136  0.00  0.00    +0.000 A 
ATOM     24  C   UNL     1       6.963   5.545  19.313  0.00  0.00    +0.000 A 
ATOM     25  C   UNL     1       5.631   5.125  19.301  0.00  0.00    +0.000 A 
ATOM     26  C   UNL     1       4.999   4.692  18.120  0.00  0.00    +0.000 A 
ENDBRANCH  19  26
ENDBRANCH  18  19
ENDBRANCH  17  18
ENDBRANCH   1  17
TORSDOF 4
ENDMDL
MODEL 6
REMARK VINA RESULT:      -7.6      0.824      1.456
REMARK  Name = 
REMARK  7 active torsions:
REMARK  status: ('A' for Active; 'I' for Inactive)
REMARK    1  A    between atoms: C_1  and  C_2
REMARK    2  A    between atoms: C_7  and  O_8
REMARK    3  A    between atoms: O_8  and  C_9
REMARK    4  A    between atoms: C_9  and  C_10
REMARK    5  A    between atoms: C_10  and  C_11
REMARK    6  A    between atoms: C_18  and  C_19
REMARK    7  A    between atoms: N_20  and  C_21
REMARK                            x       y       z     vdW  Elec       q    Type
REMARK                         _______ _______ _______ _____ _____    ______ ____
ROOT
ATOM      1  C   UNL     1       2.143   8.440  18.378  0.00  0.00    +0.000 C 
ATOM      2  O   UNL     1       2.393   8.810  17.226  0.00  0.00    +0.000 OA
ATOM      3  N   UNL     1       1.172   9.079  19.139  0.00  0.00    +0.000 N 
ATOM      4  C   UNL     1       0.279  10.016  18.431  0.00  0.00    +0.000 C 
ATOM      5  C   UNL     1       0.396  11.457  18.924  0.00  0.00    +0.000 C 
ATOM      6  C   UNL     1      -0.440  11.659  20.165  0.00  0.00    +0.000 A 
ATOM      7  N   UNL     1      -1.534  12.462  19.996  0.00  0.00    +0.000 NA
ATOM      8  C   UNL     1      -2.342  12.623  20.993  0.00  0.00    +0.000 A 
ATOM      9  C   UNL     1      -3.565  13.476  20.757  0.00  0.00    +0.000 C 
ATOM     10  N   UNL     1      -2.148  12.054  22.227  0.00  0.00    +0.000 N 
ATOM     11  C   UNL     1      -3.031  12.265  23.364  0.00  0.00    +0.000 C 
ATOM     12  C   UNL     1      -1.056  11.229  22.455  0.00  0.00    +0.000 A 
ATOM     13  O   UNL     1      -0.836  10.677  23.532  0.00  0.00    +0.000 OA
ATOM     14  C   UNL     1      -0.146  11.016  21.306  0.00  0.00    +0.000 A 
ATOM     15  C   UNL     1       1.014  10.067  21.457  0.00  0.00    +0.000 C 
ATOM     16  C   UNL     1       0.896   8.822  20.563  0.00  0.00    +0.000 C 
ENDROOT
BRANCH   1  17
ATOM     17  C   UNL     1       2.904   7.263  18.966  0.00  0.00    +0.000 C 
BRANCH  17  18
ATOM     18  C   UNL     1       2.714   6.081  18.016  0.00  0.00    +0.000 C 
BRANCH  18  19
ATOM     19  O   UNL     1       3.822   5.920  17.145  0.00  0.00    +0.000 OA
BRANCH  19  26
ATOM     20  C   UNL     1       4.992   3.945  19.370  0.00  0.00    +0.000 C 
ATOM     21  C   UNL     1       5.664   5.092  18.666  0.00  0.00    +0.000 A 
ATOM     22  C   UNL     1       7.003   5.336  19.054  0.00  0.00    +0.000 A 
ATOM     23  C   UNL     1       7.754   6.369  18.501  0.00  0.00    +0.000 A 
ATOM     24  C   UNL     1       7.185   7.187  17.539  0.00  0.00    +0.000 A 
ATOM     25  C   UNL     1       5.866   6.967  17.140  0.00  0.00    +0.000 A 
ATOM     26  C   UNL     1       5.087   5.929  17.686  0.00  0.00    +0.000 A 
ENDBRANCH  19  26
ENDBRANCH  18  19
ENDBRANCH  17  18
ENDBRANCH   1  17
TORSDOF 4
ENDMDL
MODEL 7
REMARK VINA RESULT:      -7.5      1.753      3.127
REMARK  Name = 
REMARK  7 active torsions:
REMARK  status: ('A' for Active; 'I' for Inactive)
REMARK    1  A    between atoms: C_1  and  C_2
REMARK    2  A    between atoms: C_7  and  O_8
REMARK    3  A    between atoms: O_8  and  C_9
REMARK    4  A    between atoms: C_9  and  C_10
REMARK    5  A    between atoms: C_10  and  C_11
REMARK    6  A    between atoms: C_18  and  C_19
REMARK    7  A    between atoms: N_20  and  C_21
REMARK                            x       y       z     vdW  Elec       q    Type
REMARK                         _______ _______ _______ _____ _____    ______ ____
ROOT
ATOM      1  C   UNL     1       2.603   7.857  18.344  0.00  0.00    +0.000 C 
ATOM      2  O   UNL     1       2.914   8.248  17.214  0.00  0.00    +0.000 OA
ATOM      3  N   UNL     1       1.674   8.550  19.109  0.00  0.00    +0.000 N 
ATOM      4  C   UNL     1       0.886   9.590  18.422  0.00  0.00    +0.000 C 
ATOM      5  C   UNL     1       1.118  10.994  18.977  0.00  0.00    +0.000 C 
ATOM      6  C   UNL     1       0.273  11.222  20.207  0.00  0.00    +0.000 A 
ATOM      7  N   UNL     1      -0.741  12.126  20.048  0.00  0.00    +0.000 NA
ATOM      8  C   UNL     1      -1.557  12.319  21.033  0.00  0.00    +0.000 A 
ATOM      9  C   UNL     1      -2.692  13.287  20.807  0.00  0.00    +0.000 C 
ATOM     10  N   UNL     1      -1.446  11.687  22.246  0.00  0.00    +0.000 N 
ATOM     11  C   UNL     1      -2.335  11.931  23.371  0.00  0.00    +0.000 C 
ATOM     12  C   UNL     1      -0.438  10.759  22.463  0.00  0.00    +0.000 A 
ATOM     13  O   UNL     1      -0.295  10.147  23.520  0.00  0.00    +0.000 OA
ATOM     14  C   UNL     1       0.479  10.510  21.326  0.00  0.00    +0.000 A 
ATOM     15  C   UNL     1       1.546   9.455  21.462  0.00  0.00    +0.000 C 
ATOM     16  C   UNL     1       1.340   8.262  20.515  0.00  0.00    +0.000 C 
ENDROOT
BRANCH   1  17
ATOM     17  C   UNL     1       3.242   6.594  18.898  0.00  0.00    +0.000 C 
BRANCH  17  18
ATOM     18  C   UNL     1       3.463   5.644  17.722  0.00  0.00    +0.000 C 
BRANCH  18  19
ATOM     19  O   UNL     1       2.611   4.512  17.789  0.00  0.00    +0.000 OA
BRANCH  19  26
ATOM     20  C   UNL     1       4.900   3.108  19.524  0.00  0.00    +0.000 C 
ATOM     21  C   UNL     1       3.428   3.235  19.812  0.00  0.00    +0.000 A 
ATOM     22  C   UNL     1       2.997   2.637  21.019  0.00  0.00    +0.000 A 
ATOM     23  C   UNL     1       1.664   2.661  21.419  0.00  0.00    +0.000 A 
ATOM     24  C   UNL     1       0.723   3.289  20.619  0.00  0.00    +0.000 A 
ATOM     25  C   UNL     1       1.124   3.886  19.423  0.00  0.00    +0.000 A 
ATOM     26  C   UNL     1       2.466   3.873  18.998  0.00  0.00    +0.000 A 
ENDBRANCH  19  26
ENDBRANCH  18  19
ENDBRANCH  17  18
ENDBRANCH   1  17
TORSDOF 4
ENDMDL
MODEL 8
REMARK VINA RESULT:      -7.5      2.142      3.024
REMARK  Name = 
REMARK  7 active torsions:
REMARK  status: ('A' for Active; 'I' for Inactive)
REMARK    1  A    between atoms: C_1  and  C_2
REMARK    2  A    between atoms: C_7  and  O_8
REMARK    3  A    between atoms: O_8  and  C_9
REMARK    4  A    between atoms: C_9  and  C_10
REMARK    5  A    between atoms: C_10  and  C_11
REMARK    6  A    between atoms: C_18  and  C_19
REMARK    7  A    between atoms: N_20  and  C_21
REMARK                            x       y       z     vdW  Elec       q    Type
REMARK                         _______ _______ _______ _____ _____    ______ ____
ROOT
ATOM      1  C   UNL     1       1.910   5.934  19.821  0.00  0.00    +0.000 C 
ATOM      2  O   UNL     1       1.287   5.341  20.708  0.00  0.00    +0.000 OA
ATOM      3  N   UNL     1       1.965   7.321  19.792  0.00  0.00    +0.000 N 
ATOM      4  C   UNL     1       1.495   8.033  20.995  0.00  0.00    +0.000 C 
ATOM      5  C   UNL     1       0.285   8.928  20.737  0.00  0.00    +0.000 C 
ATOM      6  C   UNL     1       0.722  10.257  20.170  0.00  0.00    +0.000 A 
ATOM      7  N   UNL     1       0.551  11.323  21.009  0.00  0.00    +0.000 NA
ATOM      8  C   UNL     1       0.972  12.485  20.625  0.00  0.00    +0.000 A 
ATOM      9  C   UNL     1       0.811  13.630  21.594  0.00  0.00    +0.000 C 
ATOM     10  N   UNL     1       1.558  12.715  19.406  0.00  0.00    +0.000 N 
ATOM     11  C   UNL     1       1.996  14.026  18.951  0.00  0.00    +0.000 C 
ATOM     12  C   UNL     1       1.758  11.670  18.515  0.00  0.00    +0.000 A 
ATOM     13  O   UNL     1       2.292  11.808  17.416  0.00  0.00    +0.000 OA
ATOM     14  C   UNL     1       1.307  10.332  18.965  0.00  0.00    +0.000 A 
ATOM     15  C   UNL     1       1.568   9.138  18.085  0.00  0.00    +0.000 C 
ATOM     16  C   UNL     1       2.548   8.131  18.708  0.00  0.00    +0.000 C 
ENDROOT
BRANCH   1  17
ATOM     17  C   UNL     1       2.632   5.130  18.751  0.00  0.00    +0.000 C 
BRANCH  17  18
ATOM     18  C   UNL     1       3.909   4.578  19.384  0.00  0.00    +0.000 C 
BRANCH  18  19
ATOM     19  O   UNL     1       4.930   4.376  18.420  0.00  0.00    +0.000 OA
BRANCH  19  26
ATOM     20  C   UNL     1       4.884   6.630  16.152  0.00  0.00    +0.000 C 
ATOM     21  C   UNL     1       5.891   6.399  17.247  0.00  0.00    +0.000 A 
ATOM     22  C   UNL     1       6.977   7.306  17.266  0.00  0.00    +0.000 A 
ATOM     23  C   UNL     1       7.996   7.216  18.211  0.00  0.00    +0.000 A 
ATOM     24  C   UNL     1       7.952   6.215  19.167  0.00  0.00    +0.000 A 
ATOM     25  C   UNL     1       6.891   5.308  19.169  0.00  0.00    +0.000 A 
ATOM     26  C   UNL     1       5.851   5.380  18.222  0.00  0.00    +0.000 A 
ENDBRANCH  19  26
ENDBRANCH  18  19
ENDBRANCH  17  18
ENDBRANCH   1  17
TORSDOF 4
ENDMDL
MODEL 9
REMARK VINA RESULT:      -7.5      1.211      1.853
REMARK  Name = 
REMARK  7 active torsions:
REMARK  status: ('A' for Active; 'I' for Inactive)
REMARK    1  A    between atoms: C_1  and  C_2
REMARK    2  A    between atoms: C_7  and  O_8
REMARK    3  A    between atoms: O_8  and  C_9
REMARK    4  A    between atoms: C_9  and  C_10
REMARK    5  A    between atoms: C_10  and  C_11
REMARK    6  A    between atoms: C_18  and  C_19
REMARK    7  A    between atoms: N_20  and  C_21
REMARK                            x       y       z     vdW  Elec       q    Type
REMARK                         _______ _______ _______ _____ _____    ______ ____
ROOT
ATOM      1  C   UNL     1       1.964   8.487  18.485  0.00  0.00    +0.000 C 
ATOM      2  O   UNL     1       2.261   8.847  17.341  0.00  0.00    +0.000 OA
ATOM      3  N   UNL     1       1.003   9.168  19.220  0.00  0.00    +0.000 N 
ATOM      4  C   UNL     1       0.172  10.144  18.492  0.00  0.00    +0.000 C 
ATOM      5  C   UNL     1       0.339  11.578  18.991  0.00  0.00    +0.000 C 
ATOM      6  C   UNL     1      -0.520  11.816  20.209  0.00  0.00    +0.000 A 
ATOM      7  N   UNL     1      -1.571  12.667  20.013  0.00  0.00    +0.000 NA
ATOM      8  C   UNL     1      -2.399  12.863  20.988  0.00  0.00    +0.000 A 
ATOM      9  C   UNL     1      -3.575  13.770  20.722  0.00  0.00    +0.000 C 
ATOM     10  N   UNL     1      -2.264  12.284  22.225  0.00  0.00    +0.000 N 
ATOM     11  C   UNL     1      -3.167  12.532  23.339  0.00  0.00    +0.000 C 
ATOM     12  C   UNL     1      -1.217  11.411  22.481  0.00  0.00    +0.000 A 
ATOM     13  O   UNL     1      -1.051  10.848  23.562  0.00  0.00    +0.000 OA
ATOM     14  C   UNL     1      -0.286  11.159  21.356  0.00  0.00    +0.000 A 
ATOM     15  C   UNL     1       0.826  10.158  21.536  0.00  0.00    +0.000 C 
ATOM     16  C   UNL     1       0.676   8.921  20.636  0.00  0.00    +0.000 C 
ENDROOT
BRANCH   1  17
ATOM     17  C   UNL     1       2.656   7.276  19.090  0.00  0.00    +0.000 C 
BRANCH  17  18
ATOM     18  C   UNL     1       3.383   6.556  17.955  0.00  0.00    +0.000 C 
BRANCH  18  19
ATOM     19  O   UNL     1       4.531   5.863  18.419  0.00  0.00    +0.000 OA
BRANCH  19  26
ATOM     20  C   UNL     1       7.703   5.585  18.704  0.00  0.00    +0.000 C 
ATOM     21  C   UNL     1       6.813   5.208  17.551  0.00  0.00    +0.000 A 
ATOM     22  C   UNL     1       7.480   4.662  16.429  0.00  0.00    +0.000 A 
ATOM     23  C   UNL     1       6.795   4.274  15.281  0.00  0.00    +0.000 A 
ATOM     24  C   UNL     1       5.419   4.421  15.225  0.00  0.00    +0.000 A 
ATOM     25  C   UNL     1       4.738   4.958  16.319  0.00  0.00    +0.000 A 
ATOM     26  C   UNL     1       5.410   5.357  17.490  0.00  0.00    +0.000 A 
ENDBRANCH  19  26
ENDBRANCH  18  19
ENDBRANCH  17  18
ENDBRANCH   1  17
TORSDOF 4
ENDMDL
