MODEL 1
REMARK VINA RESULT:      -8.9      0.000      0.000
REMARK  Name = 
REMARK  7 active torsions:
REMARK  status: ('A' for Active; 'I' for Inactive)
REMARK    1  A    between atoms: C_1  and  C_2
REMARK    2  A    between atoms: C_5  and  C_6
REMARK    3  A    between atoms: N_11  and  C_12
REMARK    4  A    between atoms: C_12  and  C_13
REMARK    5  A    between atoms: N_15  and  C_16
REMARK    6  A    between atoms: C_21  and  C_22
REMARK    7  A    between atoms: C_31  and  C_32
REMARK                            x       y       z     vdW  Elec       q    Type
REMARK                         _______ _______ _______ _____ _____    ______ ____
ROOT
ATOM      1  C   UNL     1       1.891   7.751  19.832  0.00  0.00    +0.000 A 
ATOM      2  C   UNL     1       1.228   8.409  20.898  0.00  0.00    +0.000 A 
ATOM      3  C   UNL     1       0.951   9.664  20.425  0.00  0.00    +0.000 A 
ATOM      4  C   UNL     1       0.294  10.809  20.971  0.00  0.00    +0.000 A 
ATOM      5  N   UNL     1      -0.158  10.972  22.177  0.00  0.00    +0.000 NA
ATOM      6  N   UNL     1      -0.720  12.244  22.136  0.00  0.00    +0.000 N 
ATOM      7  C   UNL     1      -0.652  12.769  20.831  0.00  0.00    +0.000 A 
ATOM      8  O   UNL     1      -1.197  13.777  20.407  0.00  0.00    +0.000 OA
ATOM      9  N   UNL     1       0.087  11.856  20.120  0.00  0.00    +0.000 N 
ATOM     10  C   UNL     1       0.519  11.900  18.818  0.00  0.00    +0.000 A 
ATOM     11  C   UNL     1       1.193  10.844  18.324  0.00  0.00    +0.000 A 
ATOM     12  N   UNL     1       1.405   9.711  19.116  0.00  0.00    +0.000 N 
ATOM     13  N   UNL     1       2.010   8.556  18.764  0.00  0.00    +0.000 NA
ENDROOT
BRANCH   1  18
ATOM     14  C   UNL     1       3.948   2.341  19.855  0.00  0.00    +0.000 C 
ATOM     15  C   UNL     1       3.389   3.737  19.860  0.00  0.00    +0.000 A 
ATOM     16  C   UNL     1       3.952   4.707  19.016  0.00  0.00    +0.000 A 
ATOM     17  C   UNL     1       3.452   6.010  18.996  0.00  0.00    +0.000 A 
ATOM     18  C   UNL     1       2.381   6.373  19.817  0.00  0.00    +0.000 A 
ATOM     19  C   UNL     1       1.810   5.404  20.652  0.00  0.00    +0.000 A 
ATOM     20  C   UNL     1       2.307   4.089  20.690  0.00  0.00    +0.000 A 
ATOM     21  C   UNL     1       1.674   3.093  21.624  0.00  0.00    +0.000 C 
ENDBRANCH   1  18
BRANCH   6  22
ATOM     22  C   UNL     1      -1.420  12.835  23.255  0.00  0.00    +0.000 C 
BRANCH  22  23
ATOM     23  C   UNL     1      -2.887  12.431  23.333  0.00  0.00    +0.000 C 
ATOM     24  O   UNL     1      -3.208  11.354  23.859  0.00  0.00    +0.000 OA
ATOM     25  N   UNL     1      -3.780  13.287  22.731  0.00  0.00    +0.000 N 
ATOM     26  H   UNL     1      -3.391  13.759  21.919  0.00  0.00    +0.000 HD
BRANCH  25  27
ATOM     27  C   UNL     1      -5.163  13.022  22.729  0.00  0.00    +0.000 A 
ATOM     28  C   UNL     1      -5.906  13.151  23.909  0.00  0.00    +0.000 A 
ATOM     29  C   UNL     1      -7.286  12.951  23.893  0.00  0.00    +0.000 A 
ATOM     30  C   UNL     1      -7.915  12.573  22.711  0.00  0.00    +0.000 A 
ATOM     31  C   UNL     1      -7.169  12.405  21.543  0.00  0.00    +0.000 A 
ATOM     32  C   UNL     1      -5.790  12.652  21.532  0.00  0.00    +0.000 A 
ATOM     33  C   UNL     1      -5.025  12.496  20.249  0.00  0.00    +0.000 C 
ENDBRANCH  25  27
ENDBRANCH  22  23
ENDBRANCH   6  22
TORSDOF 4
ENDMDL
MODEL 2
REMARK VINA RESULT:      -8.8      0.626      1.221
REMARK  Name = 
REMARK  7 active torsions:
REMARK  status: ('A' for Active; 'I' for Inactive)
REMARK    1  A    between atoms: C_1  and  C_2
REMARK    2  A    between atoms: C_5  and  C_6
REMARK    3  A    between atoms: N_11  and  C_12
REMARK    4  A    between atoms: C_12  and  C_13
REMARK    5  A    between atoms: N_15  and  C_16
REMARK    6  A    between atoms: C_21  and  C_22
REMARK    7  A    between atoms: C_31  and  C_32
REMARK                            x       y       z     vdW  Elec       q    Type
REMARK                         _______ _______ _______ _____ _____    ______ ____
ROOT
ATOM      1  C   UNL     1       1.875   7.684  19.944  0.00  0.00    +0.000 A 
ATOM      2  C   UNL     1       1.218   8.358  21.003  0.00  0.00    +0.000 A 
ATOM      3  C   UNL     1       0.918   9.598  20.505  0.00  0.00    +0.000 A 
ATOM      4  C   UNL     1       0.254  10.747  21.034  0.00  0.00    +0.000 A 
ATOM      5  N   UNL     1      -0.184  10.934  22.241  0.00  0.00    +0.000 NA
ATOM      6  N   UNL     1      -0.764  12.197  22.178  0.00  0.00    +0.000 N 
ATOM      7  C   UNL     1      -0.720  12.692  20.861  0.00  0.00    +0.000 A 
ATOM      8  O   UNL     1      -1.283  13.683  20.421  0.00  0.00    +0.000 OA
ATOM      9  N   UNL     1       0.021  11.772  20.161  0.00  0.00    +0.000 N 
ATOM     10  C   UNL     1       0.436  11.791  18.853  0.00  0.00    +0.000 A 
ATOM     11  C   UNL     1       1.117  10.733  18.374  0.00  0.00    +0.000 A 
ATOM     12  N   UNL     1       1.355   9.621  19.190  0.00  0.00    +0.000 N 
ATOM     13  N   UNL     1       1.969   8.466  18.857  0.00  0.00    +0.000 NA
ENDROOT
BRANCH   1  18
ATOM     14  C   UNL     1       3.990   2.299  20.082  0.00  0.00    +0.000 C 
ATOM     15  C   UNL     1       3.415   3.688  20.054  0.00  0.00    +0.000 A 
ATOM     16  C   UNL     1       4.062   4.686  19.309  0.00  0.00    +0.000 A 
ATOM     17  C   UNL     1       3.551   5.984  19.261  0.00  0.00    +0.000 A 
ATOM     18  C   UNL     1       2.383   6.313  19.954  0.00  0.00    +0.000 A 
ATOM     19  C   UNL     1       1.729   5.316  20.690  0.00  0.00    +0.000 A 
ATOM     20  C   UNL     1       2.236   4.006  20.755  0.00  0.00    +0.000 A 
ATOM     21  C   UNL     1       1.509   2.979  21.580  0.00  0.00    +0.000 C 
ENDBRANCH   1  18
BRANCH   6  22
ATOM     22  C   UNL     1      -1.457  12.805  23.293  0.00  0.00    +0.000 C 
BRANCH  22  23
ATOM     23  C   UNL     1      -2.969  12.639  23.228  0.00  0.00    +0.000 C 
ATOM     24  O   UNL     1      -3.530  11.773  23.917  0.00  0.00    +0.000 OA
ATOM     25  N   UNL     1      -3.625  13.445  22.325  0.00  0.00    +0.000 N 
ATOM     26  H   UNL     1      -3.067  13.652  21.501  0.00  0.00    +0.000 HD
BRANCH  25  27
ATOM     27  C   UNL     1      -5.022  13.382  22.166  0.00  0.00    +0.000 A 
ATOM     28  C   UNL     1      -5.591  12.453  21.286  0.00  0.00    +0.000 A 
ATOM     29  C   UNL     1      -6.978  12.348  21.178  0.00  0.00    +0.000 A 
ATOM     30  C   UNL     1      -7.793  13.206  21.910  0.00  0.00    +0.000 A 
ATOM     31  C   UNL     1      -7.227  14.159  22.757  0.00  0.00    +0.000 A 
ATOM     32  C   UNL     1      -5.837  14.242  22.915  0.00  0.00    +0.000 A 
ATOM     33  C   UNL     1      -5.265  15.257  23.862  0.00  0.00    +0.000 C 
ENDBRANCH  25  27
ENDBRANCH  22  23
ENDBRANCH   6  22
TORSDOF 4
ENDMDL
MODEL 3
REMARK VINA RESULT:      -8.7      3.683      6.163
REMARK  Name = 
REMARK  7 active torsions:
REMARK  status: ('A' for Active; 'I' for Inactive)
REMARK    1  A    between atoms: C_1  and  C_2
REMARK    2  A    between atoms: C_5  and  C_6
REMARK    3  A    between atoms: N_11  and  C_12
REMARK    4  A    between atoms: C_12  and  C_13
REMARK    5  A    between atoms: N_15  and  C_16
REMARK    6  A    between atoms: C_21  and  C_22
REMARK    7  A    between atoms: C_31  and  C_32
REMARK                            x       y       z     vdW  Elec       q    Type
REMARK                         _______ _______ _______ _____ _____    ______ ____
ROOT
ATOM      1  C   UNL     1       2.574   7.288  18.620  0.00  0.00    +0.000 A 
ATOM      2  C   UNL     1       2.055   8.533  18.186  0.00  0.00    +0.000 A 
ATOM      3  C   UNL     1       1.378   9.033  19.267  0.00  0.00    +0.000 A 
ATOM      4  C   UNL     1       0.648  10.235  19.512  0.00  0.00    +0.000 A 
ATOM      5  N   UNL     1       0.357  11.180  18.670  0.00  0.00    +0.000 NA
ATOM      6  N   UNL     1      -0.326  12.105  19.454  0.00  0.00    +0.000 N 
ATOM      7  C   UNL     1      -0.338  11.693  20.801  0.00  0.00    +0.000 A 
ATOM      8  O   UNL     1      -0.697  12.341  21.772  0.00  0.00    +0.000 OA
ATOM      9  N   UNL     1       0.222  10.440  20.793  0.00  0.00    +0.000 N 
ATOM     10  C   UNL     1       0.393   9.549  21.823  0.00  0.00    +0.000 A 
ATOM     11  C   UNL     1       1.027   8.387  21.575  0.00  0.00    +0.000 A 
ATOM     12  N   UNL     1       1.537   8.121  20.299  0.00  0.00    +0.000 N 
ATOM     13  N   UNL     1       2.238   7.040  19.896  0.00  0.00    +0.000 NA
ENDROOT
BRANCH   1  18
ATOM     14  C   UNL     1       5.944   3.635  15.653  0.00  0.00    +0.000 C 
ATOM     15  C   UNL     1       5.049   4.563  16.426  0.00  0.00    +0.000 A 
ATOM     16  C   UNL     1       5.224   5.950  16.303  0.00  0.00    +0.000 A 
ATOM     17  C   UNL     1       4.407   6.837  17.006  0.00  0.00    +0.000 A 
ATOM     18  C   UNL     1       3.397   6.359  17.846  0.00  0.00    +0.000 A 
ATOM     19  C   UNL     1       3.213   4.975  17.962  0.00  0.00    +0.000 A 
ATOM     20  C   UNL     1       4.033   4.069  17.267  0.00  0.00    +0.000 A 
ATOM     21  C   UNL     1       3.810   2.592  17.447  0.00  0.00    +0.000 C 
ENDBRANCH   1  18
BRANCH   6  22
ATOM     22  C   UNL     1      -0.791  13.378  18.950  0.00  0.00    +0.000 C 
BRANCH  22  23
ATOM     23  C   UNL     1       0.282  14.458  18.954  0.00  0.00    +0.000 C 
ATOM     24  O   UNL     1      -0.036  15.652  18.834  0.00  0.00    +0.000 OA
ATOM     25  N   UNL     1       1.583  14.014  19.025  0.00  0.00    +0.000 N 
ATOM     26  H   UNL     1       1.720  13.116  18.569  0.00  0.00    +0.000 HD
BRANCH  25  27
ATOM     27  C   UNL     1       2.666  14.914  19.032  0.00  0.00    +0.000 A 
ATOM     28  C   UNL     1       3.187  15.399  17.825  0.00  0.00    +0.000 A 
ATOM     29  C   UNL     1       4.216  16.340  17.834  0.00  0.00    +0.000 A 
ATOM     30  C   UNL     1       4.760  16.756  19.046  0.00  0.00    +0.000 A 
ATOM     31  C   UNL     1       4.269  16.243  20.247  0.00  0.00    +0.000 A 
ATOM     32  C   UNL     1       3.200  15.336  20.256  0.00  0.00    +0.000 A 
ATOM     33  C   UNL     1       2.675  14.833  21.570  0.00  0.00    +0.000 C 
ENDBRANCH  25  27
ENDBRANCH  22  23
ENDBRANCH   6  22
TORSDOF 4
ENDMDL
MODEL 4
REMARK VINA RESULT:      -8.5      3.777      6.255
REMARK  Name = 
REMARK  7 active torsions:
REMARK  status: ('A' for Active; 'I' for Inactive)
REMARK    1  A    between atoms: C_1  and  C_2
REMARK    2  A    between atoms: C_5  and  C_6
REMARK    3  A    between atoms: N_11  and  C_12
REMARK    4  A    between atoms: C_12  and  C_13
REMARK    5  A    between atoms: N_15  and  C_16
REMARK    6  A    between atoms: C_21  and  C_22
REMARK    7  A    between atoms: C_31  and  C_32
REMARK                            x       y       z     vdW  Elec       q    Type
REMARK                         _______ _______ _______ _____ _____    ______ ____
ROOT
ATOM      1  C   UNL     1       2.590   7.487  18.605  0.00  0.00    +0.000 A 
ATOM      2  C   UNL     1       2.195   8.788  18.207  0.00  0.00    +0.000 A 
ATOM      3  C   UNL     1       1.499   9.292  19.273  0.00  0.00    +0.000 A 
ATOM      4  C   UNL     1       0.851  10.537  19.538  0.00  0.00    +0.000 A 
ATOM      5  N   UNL     1       0.683  11.540  18.730  0.00  0.00    +0.000 NA
ATOM      6  N   UNL     1       0.031  12.480  19.521  0.00  0.00    +0.000 N 
ATOM      7  C   UNL     1      -0.090  12.010  20.843  0.00  0.00    +0.000 A 
ATOM      8  O   UNL     1      -0.453  12.640  21.825  0.00  0.00    +0.000 OA
ATOM      9  N   UNL     1       0.370  10.717  20.803  0.00  0.00    +0.000 N 
ATOM     10  C   UNL     1       0.412   9.769  21.795  0.00  0.00    +0.000 A 
ATOM     11  C   UNL     1       0.967   8.573  21.524  0.00  0.00    +0.000 A 
ATOM     12  N   UNL     1       1.526   8.325  20.266  0.00  0.00    +0.000 N 
ATOM     13  N   UNL     1       2.163   7.210  19.848  0.00  0.00    +0.000 NA
ENDROOT
BRANCH   1  18
ATOM     14  C   UNL     1       5.836   3.728  15.634  0.00  0.00    +0.000 C 
ATOM     15  C   UNL     1       4.973   4.684  16.410  0.00  0.00    +0.000 A 
ATOM     16  C   UNL     1       5.159   6.065  16.247  0.00  0.00    +0.000 A 
ATOM     17  C   UNL     1       4.371   6.978  16.951  0.00  0.00    +0.000 A 
ATOM     18  C   UNL     1       3.381   6.531  17.831  0.00  0.00    +0.000 A 
ATOM     19  C   UNL     1       3.186   5.152  17.987  0.00  0.00    +0.000 A 
ATOM     20  C   UNL     1       3.977   4.221  17.291  0.00  0.00    +0.000 A 
ATOM     21  C   UNL     1       3.744   2.751  17.514  0.00  0.00    +0.000 C 
ENDBRANCH   1  18
BRANCH   6  22
ATOM     22  C   UNL     1      -0.304  13.808  19.056  0.00  0.00    +0.000 C 
BRANCH  22  23
ATOM     23  C   UNL     1       0.742  14.855  19.413  0.00  0.00    +0.000 C 
ATOM     24  O   UNL     1       0.398  16.022  19.655  0.00  0.00    +0.000 OA
ATOM     25  N   UNL     1       2.052  14.434  19.374  0.00  0.00    +0.000 N 
ATOM     26  H   UNL     1       2.218  13.720  18.670  0.00  0.00    +0.000 HD
BRANCH  25  27
ATOM     27  C   UNL     1       3.113  15.308  19.679  0.00  0.00    +0.000 A 
ATOM     28  C   UNL     1       3.482  15.531  21.011  0.00  0.00    +0.000 A 
ATOM     29  C   UNL     1       4.574  16.347  21.308  0.00  0.00    +0.000 A 
ATOM     30  C   UNL     1       5.263  16.980  20.278  0.00  0.00    +0.000 A 
ATOM     31  C   UNL     1       4.870  16.791  18.953  0.00  0.00    +0.000 A 
ATOM     32  C   UNL     1       3.808  15.934  18.635  0.00  0.00    +0.000 A 
ATOM     33  C   UNL     1       3.436  15.727  17.195  0.00  0.00    +0.000 C 
ENDBRANCH  25  27
ENDBRANCH  22  23
ENDBRANCH   6  22
TORSDOF 4
ENDMDL
MODEL 5
REMARK VINA RESULT:      -8.4      3.298      5.973
REMARK  Name = 
REMARK  7 active torsions:
REMARK  status: ('A' for Active; 'I' for Inactive)
REMARK    1  A    between atoms: C_1  and  C_2
REMARK    2  A    between atoms: C_5  and  C_6
REMARK    3  A    between atoms: N_11  and  C_12
REMARK    4  A    between atoms: C_12  and  C_13
REMARK    5  A    between atoms: N_15  and  C_16
REMARK    6  A    between atoms: C_21  and  C_22
REMARK    7  A    between atoms: C_31  and  C_32
REMARK                            x       y       z     vdW  Elec       q    Type
REMARK                         _______ _______ _______ _____ _____    ______ ____
ROOT
ATOM      1  C   UNL     1       1.885   7.868  19.418  0.00  0.00    +0.000 A 
ATOM      2  C   UNL     1       1.482   9.191  19.110  0.00  0.00    +0.000 A 
ATOM      3  C   UNL     1       0.815   9.629  20.223  0.00  0.00    +0.000 A 
ATOM      4  C   UNL     1       0.177  10.857  20.579  0.00  0.00    +0.000 A 
ATOM      5  N   UNL     1      -0.011  11.906  19.839  0.00  0.00    +0.000 NA
ATOM      6  N   UNL     1      -0.641  12.796  20.702  0.00  0.00    +0.000 N 
ATOM      7  C   UNL     1      -0.727  12.248  21.996  0.00  0.00    +0.000 A 
ATOM      8  O   UNL     1      -1.062  12.818  23.024  0.00  0.00    +0.000 OA
ATOM      9  N   UNL     1      -0.270  10.960  21.866  0.00  0.00    +0.000 N 
ATOM     10  C   UNL     1      -0.203   9.954  22.797  0.00  0.00    +0.000 A 
ATOM     11  C   UNL     1       0.342   8.776  22.440  0.00  0.00    +0.000 A 
ATOM     12  N   UNL     1       0.867   8.604  21.154  0.00  0.00    +0.000 N 
ATOM     13  N   UNL     1       1.490   7.517  20.653  0.00  0.00    +0.000 NA
ENDROOT
BRANCH   1  18
ATOM     14  C   UNL     1       5.034   4.276  16.152  0.00  0.00    +0.000 C 
ATOM     15  C   UNL     1       4.194   5.190  17.000  0.00  0.00    +0.000 A 
ATOM     16  C   UNL     1       4.513   6.556  17.062  0.00  0.00    +0.000 A 
ATOM     17  C   UNL     1       3.750   7.431  17.838  0.00  0.00    +0.000 A 
ATOM     18  C   UNL     1       2.653   6.961  18.567  0.00  0.00    +0.000 A 
ATOM     19  C   UNL     1       2.327   5.600  18.497  0.00  0.00    +0.000 A 
ATOM     20  C   UNL     1       3.090   4.706  17.727  0.00  0.00    +0.000 A 
ATOM     21  C   UNL     1       2.712   3.249  17.707  0.00  0.00    +0.000 C 
ENDBRANCH   1  18
BRANCH   6  22
ATOM     22  C   UNL     1      -0.986  14.151  20.327  0.00  0.00    +0.000 C 
BRANCH  22  23
ATOM     23  C   UNL     1       0.154  14.899  19.651  0.00  0.00    +0.000 C 
ATOM     24  O   UNL     1      -0.082  15.676  18.712  0.00  0.00    +0.000 OA
ATOM     25  N   UNL     1       1.421  14.601  20.099  0.00  0.00    +0.000 N 
ATOM     26  H   UNL     1       1.514  13.637  20.408  0.00  0.00    +0.000 HD
BRANCH  25  27
ATOM     27  C   UNL     1       2.559  15.222  19.551  0.00  0.00    +0.000 A 
ATOM     28  C   UNL     1       2.971  16.476  20.018  0.00  0.00    +0.000 A 
ATOM     29  C   UNL     1       4.135  17.062  19.520  0.00  0.00    +0.000 A 
ATOM     30  C   UNL     1       4.856  16.419  18.519  0.00  0.00    +0.000 A 
ATOM     31  C   UNL     1       4.424  15.188  18.023  0.00  0.00    +0.000 A 
ATOM     32  C   UNL     1       3.286  14.563  18.550  0.00  0.00    +0.000 A 
ATOM     33  C   UNL     1       2.871  13.222  18.017  0.00  0.00    +0.000 C 
ENDBRANCH  25  27
ENDBRANCH  22  23
ENDBRANCH   6  22
TORSDOF 4
ENDMDL
MODEL 6
REMARK VINA RESULT:      -8.3      0.766      1.754
REMARK  Name = 
REMARK  7 active torsions:
REMARK  status: ('A' for Active; 'I' for Inactive)
REMARK    1  A    between atoms: C_1  and  C_2
REMARK    2  A    between atoms: C_5  and  C_6
REMARK    3  A    between atoms: N_11  and  C_12
REMARK    4  A    between atoms: C_12  and  C_13
REMARK    5  A    between atoms: N_15  and  C_16
REMARK    6  A    between atoms: C_21  and  C_22
REMARK    7  A    between atoms: C_31  and  C_32
REMARK                            x       y       z     vdW  Elec       q    Type
REMARK                         _______ _______ _______ _____ _____    ______ ____
ROOT
ATOM      1  C   UNL     1       1.793   7.862  19.774  0.00  0.00    +0.000 A 
ATOM      2  C   UNL     1       1.101   8.487  20.841  0.00  0.00    +0.000 A 
ATOM      3  C   UNL     1       0.921   9.784  20.438  0.00  0.00    +0.000 A 
ATOM      4  C   UNL     1       0.295  10.927  21.021  0.00  0.00    +0.000 A 
ATOM      5  N   UNL     1      -0.223  11.039  22.207  0.00  0.00    +0.000 NA
ATOM      6  N   UNL     1      -0.713  12.341  22.218  0.00  0.00    +0.000 N 
ATOM      7  C   UNL     1      -0.535  12.944  20.959  0.00  0.00    +0.000 A 
ATOM      8  O   UNL     1      -0.996  14.007  20.572  0.00  0.00    +0.000 OA
ATOM      9  N   UNL     1       0.197  12.037  20.233  0.00  0.00    +0.000 N 
ATOM     10  C   UNL     1       0.713  12.141  18.965  0.00  0.00    +0.000 A 
ATOM     11  C   UNL     1       1.358  11.081  18.440  0.00  0.00    +0.000 A 
ATOM     12  N   UNL     1       1.460   9.889  19.165  0.00  0.00    +0.000 N 
ATOM     13  N   UNL     1       2.022   8.727  18.772  0.00  0.00    +0.000 NA
ENDROOT
BRANCH   1  18
ATOM     14  C   UNL     1       3.297   2.285  19.423  0.00  0.00    +0.000 C 
ATOM     15  C   UNL     1       2.927   3.740  19.495  0.00  0.00    +0.000 A 
ATOM     16  C   UNL     1       2.229   4.217  20.614  0.00  0.00    +0.000 A 
ATOM     17  C   UNL     1       1.874   5.564  20.712  0.00  0.00    +0.000 A 
ATOM     18  C   UNL     1       2.208   6.462  19.695  0.00  0.00    +0.000 A 
ATOM     19  C   UNL     1       2.916   5.990  18.581  0.00  0.00    +0.000 A 
ATOM     20  C   UNL     1       3.273   4.636  18.464  0.00  0.00    +0.000 A 
ATOM     21  C   UNL     1       4.010   4.175  17.236  0.00  0.00    +0.000 C 
ENDBRANCH   1  18
BRANCH   6  22
ATOM     22  C   UNL     1      -1.449  12.898  23.332  0.00  0.00    +0.000 C 
BRANCH  22  23
ATOM     23  C   UNL     1      -2.955  12.697  23.222  0.00  0.00    +0.000 C 
ATOM     24  O   UNL     1      -3.518  11.826  23.903  0.00  0.00    +0.000 OA
ATOM     25  N   UNL     1      -3.600  13.479  22.290  0.00  0.00    +0.000 N 
ATOM     26  H   UNL     1      -3.021  13.690  21.481  0.00  0.00    +0.000 HD
BRANCH  25  27
ATOM     27  C   UNL     1      -4.990  13.383  22.089  0.00  0.00    +0.000 A 
ATOM     28  C   UNL     1      -5.510  12.434  21.200  0.00  0.00    +0.000 A 
ATOM     29  C   UNL     1      -6.890  12.297  21.050  0.00  0.00    +0.000 A 
ATOM     30  C   UNL     1      -7.747  13.142  21.748  0.00  0.00    +0.000 A 
ATOM     31  C   UNL     1      -7.229  14.115  22.603  0.00  0.00    +0.000 A 
ATOM     32  C   UNL     1      -5.847  14.231  22.804  0.00  0.00    +0.000 A 
ATOM     33  C   UNL     1      -5.327  15.267  23.758  0.00  0.00    +0.000 C 
ENDBRANCH  25  27
ENDBRANCH  22  23
ENDBRANCH   6  22
TORSDOF 4
ENDMDL
MODEL 7
REMARK VINA RESULT:      -8.3      3.718      6.238
REMARK  Name = 
REMARK  7 active torsions:
REMARK  status: ('A' for Active; 'I' for Inactive)
REMARK    1  A    between atoms: C_1  and  C_2
REMARK    2  A    between atoms: C_5  and  C_6
REMARK    3  A    between atoms: N_11  and  C_12
REMARK    4  A    between atoms: C_12  and  C_13
REMARK    5  A    between atoms: N_15  and  C_16
REMARK    6  A    between atoms: C_21  and  C_22
REMARK    7  A    between atoms: C_31  and  C_32
REMARK                            x       y       z     vdW  Elec       q    Type
REMARK                         _______ _______ _______ _____ _____    ______ ____
ROOT
ATOM      1  C   UNL     1       2.681   7.143  18.707  0.00  0.00    +0.000 A 
ATOM      2  C   UNL     1       2.122   8.361  18.245  0.00  0.00    +0.000 A 
ATOM      3  C   UNL     1       1.410   8.851  19.307  0.00  0.00    +0.000 A 
ATOM      4  C   UNL     1       0.631  10.029  19.521  0.00  0.00    +0.000 A 
ATOM      5  N   UNL     1       0.318  10.949  18.661  0.00  0.00    +0.000 NA
ATOM      6  N   UNL     1      -0.412  11.859  19.419  0.00  0.00    +0.000 N 
ATOM      7  C   UNL     1      -0.429  11.468  20.772  0.00  0.00    +0.000 A 
ATOM      8  O   UNL     1      -0.828  12.117  21.727  0.00  0.00    +0.000 OA
ATOM      9  N   UNL     1       0.178  10.237  20.793  0.00  0.00    +0.000 N 
ATOM     10  C   UNL     1       0.366   9.369  21.839  0.00  0.00    +0.000 A 
ATOM     11  C   UNL     1       1.048   8.229  21.620  0.00  0.00    +0.000 A 
ATOM     12  N   UNL     1       1.587   7.963  20.356  0.00  0.00    +0.000 N 
ATOM     13  N   UNL     1       2.334   6.903  19.982  0.00  0.00    +0.000 NA
ENDROOT
BRANCH   1  18
ATOM     14  C   UNL     1       6.041   3.575  15.629  0.00  0.00    +0.000 C 
ATOM     15  C   UNL     1       5.192   4.517  16.436  0.00  0.00    +0.000 A 
ATOM     16  C   UNL     1       3.923   4.100  16.869  0.00  0.00    +0.000 A 
ATOM     17  C   UNL     1       3.113   4.951  17.623  0.00  0.00    +0.000 A 
ATOM     18  C   UNL     1       3.550   6.235  17.960  0.00  0.00    +0.000 A 
ATOM     19  C   UNL     1       4.821   6.649  17.538  0.00  0.00    +0.000 A 
ATOM     20  C   UNL     1       5.645   5.807  16.772  0.00  0.00    +0.000 A 
ATOM     21  C   UNL     1       6.990   6.310  16.322  0.00  0.00    +0.000 C 
ENDBRANCH   1  18
BRANCH   6  22
ATOM     22  C   UNL     1      -0.917  13.106  18.887  0.00  0.00    +0.000 C 
BRANCH  22  23
ATOM     23  C   UNL     1       0.132  14.209  18.835  0.00  0.00    +0.000 C 
ATOM     24  O   UNL     1      -0.193  15.361  18.504  0.00  0.00    +0.000 OA
ATOM     25  N   UNL     1       1.426  13.823  19.103  0.00  0.00    +0.000 N 
ATOM     26  H   UNL     1       1.625  12.873  18.804  0.00  0.00    +0.000 HD
BRANCH  25  27
ATOM     27  C   UNL     1       2.486  14.749  19.081  0.00  0.00    +0.000 A 
ATOM     28  C   UNL     1       3.102  15.087  17.870  0.00  0.00    +0.000 A 
ATOM     29  C   UNL     1       4.109  16.052  17.840  0.00  0.00    +0.000 A 
ATOM     30  C   UNL     1       4.535  16.640  19.027  0.00  0.00    +0.000 A 
ATOM     31  C   UNL     1       3.950  16.275  20.240  0.00  0.00    +0.000 A 
ATOM     32  C   UNL     1       2.902  15.345  20.280  0.00  0.00    +0.000 A 
ATOM     33  C   UNL     1       2.273  15.002  21.599  0.00  0.00    +0.000 C 
ENDBRANCH  25  27
ENDBRANCH  22  23
ENDBRANCH   6  22
TORSDOF 4
ENDMDL
MODEL 8
REMARK VINA RESULT:      -8.3      1.130      1.311
REMARK  Name = 
REMARK  7 active torsions:
REMARK  status: ('A' for Active; 'I' for Inactive)
REMARK    1  A    between atoms: C_1  and  C_2
REMARK    2  A    between atoms: C_5  and  C_6
REMARK    3  A    between atoms: N_11  and  C_12
REMARK    4  A    between atoms: C_12  and  C_13
REMARK    5  A    between atoms: N_15  and  C_16
REMARK    6  A    between atoms: C_21  and  C_22
REMARK    7  A    between atoms: C_31  and  C_32
REMARK                            x       y       z     vdW  Elec       q    Type
REMARK                         _______ _______ _______ _____ _____    ______ ____
ROOT
ATOM      1  C   UNL     1       1.939   7.565  19.904  0.00  0.00    +0.000 A 
ATOM      2  C   UNL     1       1.280   8.248  20.956  0.00  0.00    +0.000 A 
ATOM      3  C   UNL     1       1.049   9.508  20.473  0.00  0.00    +0.000 A 
ATOM      4  C   UNL     1       0.420  10.676  21.005  0.00  0.00    +0.000 A 
ATOM      5  N   UNL     1      -0.047  10.858  22.202  0.00  0.00    +0.000 NA
ATOM      6  N   UNL     1      -0.569  12.147  22.147  0.00  0.00    +0.000 N 
ATOM      7  C   UNL     1      -0.464  12.664  20.841  0.00  0.00    +0.000 A 
ATOM      8  O   UNL     1      -0.969  13.686  20.404  0.00  0.00    +0.000 OA
ATOM      9  N   UNL     1       0.258  11.725  20.146  0.00  0.00    +0.000 N 
ATOM     10  C   UNL     1       0.713  11.750  18.852  0.00  0.00    +0.000 A 
ATOM     11  C   UNL     1       1.362  10.672  18.372  0.00  0.00    +0.000 A 
ATOM     12  N   UNL     1       1.527   9.536  19.172  0.00  0.00    +0.000 N 
ATOM     13  N   UNL     1       2.100   8.362  18.835  0.00  0.00    +0.000 NA
ENDROOT
BRANCH   1  18
ATOM     14  C   UNL     1       3.816   2.091  19.997  0.00  0.00    +0.000 C 
ATOM     15  C   UNL     1       3.302   3.504  19.980  0.00  0.00    +0.000 A 
ATOM     16  C   UNL     1       4.009   4.484  19.266  0.00  0.00    +0.000 A 
ATOM     17  C   UNL     1       3.555   5.804  19.229  0.00  0.00    +0.000 A 
ATOM     18  C   UNL     1       2.387   6.173  19.902  0.00  0.00    +0.000 A 
ATOM     19  C   UNL     1       1.674   5.193  20.606  0.00  0.00    +0.000 A 
ATOM     20  C   UNL     1       2.122   3.862  20.660  0.00  0.00    +0.000 A 
ATOM     21  C   UNL     1       1.333   2.855  21.451  0.00  0.00    +0.000 C 
ENDBRANCH   1  18
BRANCH   6  22
ATOM     22  C   UNL     1      -1.269  12.764  23.253  0.00  0.00    +0.000 C 
BRANCH  22  23
ATOM     23  C   UNL     1      -2.777  12.828  23.053  0.00  0.00    +0.000 C 
ATOM     24  O   UNL     1      -3.296  12.297  22.058  0.00  0.00    +0.000 OA
ATOM     25  N   UNL     1      -3.478  13.555  23.988  0.00  0.00    +0.000 N 
ATOM     26  H   UNL     1      -2.947  14.338  24.360  0.00  0.00    +0.000 HD
BRANCH  25  27
ATOM     27  C   UNL     1      -4.877  13.694  23.911  0.00  0.00    +0.000 A 
ATOM     28  C   UNL     1      -5.711  12.619  24.244  0.00  0.00    +0.000 A 
ATOM     29  C   UNL     1      -7.097  12.778  24.230  0.00  0.00    +0.000 A 
ATOM     30  C   UNL     1      -7.648  13.992  23.832  0.00  0.00    +0.000 A 
ATOM     31  C   UNL     1      -6.819  15.050  23.461  0.00  0.00    +0.000 A 
ATOM     32  C   UNL     1      -5.424  14.923  23.520  0.00  0.00    +0.000 A 
ATOM     33  C   UNL     1      -4.563  16.095  23.146  0.00  0.00    +0.000 C 
ENDBRANCH  25  27
ENDBRANCH  22  23
ENDBRANCH   6  22
TORSDOF 4
ENDMDL
MODEL 9
REMARK VINA RESULT:      -8.2      1.909      2.865
REMARK  Name = 
REMARK  7 active torsions:
REMARK  status: ('A' for Active; 'I' for Inactive)
REMARK    1  A    between atoms: C_1  and  C_2
REMARK    2  A    between atoms: C_5  and  C_6
REMARK    3  A    between atoms: N_11  and  C_12
REMARK    4  A    between atoms: C_12  and  C_13
REMARK    5  A    between atoms: N_15  and  C_16
REMARK    6  A    between atoms: C_21  and  C_22
REMARK    7  A    between atoms: C_31  and  C_32
REMARK                            x       y       z     vdW  Elec       q    Type
REMARK                         _______ _______ _______ _____ _____    ______ ____
ROOT
ATOM      1  C   UNL     1       2.193   7.667  19.145  0.00  0.00    +0.000 A 
ATOM      2  C   UNL     1       1.369   8.771  18.812  0.00  0.00    +0.000 A 
ATOM      3  C   UNL     1       0.860   9.209  20.006  0.00  0.00    +0.000 A 
ATOM      4  C   UNL     1      -0.012  10.276  20.382  0.00  0.00    +0.000 A 
ATOM      5  N   UNL     1      -0.649  11.101  19.607  0.00  0.00    +0.000 NA
ATOM      6  N   UNL     1      -1.307  11.935  20.504  0.00  0.00    +0.000 N 
ATOM      7  C   UNL     1      -0.952  11.612  21.828  0.00  0.00    +0.000 A 
ATOM      8  O   UNL     1      -1.208  12.245  22.841  0.00  0.00    +0.000 OA
ATOM      9  N   UNL     1      -0.182  10.480  21.721  0.00  0.00    +0.000 N 
ATOM     10  C   UNL     1       0.369   9.698  22.706  0.00  0.00    +0.000 A 
ATOM     11  C   UNL     1       1.141   8.655  22.347  0.00  0.00    +0.000 A 
ATOM     12  N   UNL     1       1.404   8.405  20.996  0.00  0.00    +0.000 N 
ATOM     13  N   UNL     1       2.191   7.443  20.469  0.00  0.00    +0.000 NA
ENDROOT
BRANCH   1  18
ATOM     14  C   UNL     1       5.457   4.459  15.603  0.00  0.00    +0.000 C 
ATOM     15  C   UNL     1       4.590   5.271  16.524  0.00  0.00    +0.000 A 
ATOM     16  C   UNL     1       4.744   6.665  16.563  0.00  0.00    +0.000 A 
ATOM     17  C   UNL     1       3.951   7.447  17.405  0.00  0.00    +0.000 A 
ATOM     18  C   UNL     1       2.988   6.854  18.227  0.00  0.00    +0.000 A 
ATOM     19  C   UNL     1       2.825   5.462  18.182  0.00  0.00    +0.000 A 
ATOM     20  C   UNL     1       3.621   4.661  17.345  0.00  0.00    +0.000 A 
ATOM     21  C   UNL     1       3.423   3.170  17.354  0.00  0.00    +0.000 C 
ENDBRANCH   1  18
BRANCH   6  22
ATOM     22  C   UNL     1      -2.100  13.073  20.090  0.00  0.00    +0.000 C 
BRANCH  22  23
ATOM     23  C   UNL     1      -3.552  12.994  20.540  0.00  0.00    +0.000 C 
ATOM     24  O   UNL     1      -4.384  12.381  19.853  0.00  0.00    +0.000 OA
ATOM     25  N   UNL     1      -3.866  13.690  21.685  0.00  0.00    +0.000 N 
ATOM     26  H   UNL     1      -3.307  14.532  21.802  0.00  0.00    +0.000 HD
BRANCH  25  27
ATOM     27  C   UNL     1      -5.175  13.700  22.202  0.00  0.00    +0.000 A 
ATOM     28  C   UNL     1      -6.220  14.270  21.463  0.00  0.00    +0.000 A 
ATOM     29  C   UNL     1      -7.528  14.221  21.946  0.00  0.00    +0.000 A 
ATOM     30  C   UNL     1      -7.783  13.652  23.190  0.00  0.00    +0.000 A 
ATOM     31  C   UNL     1      -6.737  13.120  23.945  0.00  0.00    +0.000 A 
ATOM     32  C   UNL     1      -5.425  13.115  23.450  0.00  0.00    +0.000 A 
ATOM     33  C   UNL     1      -4.331  12.502  24.276  0.00  0.00    +0.000 C 
ENDBRANCH  25  27
ENDBRANCH  22  23
ENDBRANCH   6  22
TORSDOF 4
ENDMDL
