MODEL 1
REMARK VINA RESULT:      -7.8      0.000      0.000
REMARK  Name = 
REMARK  6 active torsions:
REMARK  status: ('A' for Active; 'I' for Inactive)
REMARK    1  A    between atoms: C_1  and  N_2
REMARK    2  A    between atoms: N_14  and  C_15
REMARK    3  A    between atoms: C_15  and  C_16
REMARK    4  A    between atoms: C_16  and  C_17
REMARK    5  A    between atoms: C_17  and  C_18
REMARK    6  A    between atoms: C_18  and  C_20
REMARK                            x       y       z     vdW  Elec       q    Type
REMARK                         _______ _______ _______ _____ _____    ______ ____
ROOT
ATOM      1  C   UNL     1       1.464   7.462  20.941  0.00  0.00    +0.000 C 
ATOM      2  N   UNL     1       1.833   6.656  19.790  0.00  0.00    +0.000 N 
ATOM      3  C   UNL     1       2.679   7.360  18.785  0.00  0.00    +0.000 C 
ATOM      4  C   UNL     1       2.626   6.607  17.438  0.00  0.00    +0.000 C 
ATOM      5  N   UNL     1       3.133   5.264  17.614  0.00  0.00    +0.000 N 
ATOM      6  C   UNL     1       3.038   4.750  18.917  0.00  0.00    +0.000 A 
ATOM      7  C   UNL     1       3.909   3.685  19.128  0.00  0.00    +0.000 A 
ATOM      8  C   UNL     1       3.845   2.949  20.294  0.00  0.00    +0.000 A 
ATOM      9  C   UNL     1       2.918   3.356  21.262  0.00  0.00    +0.000 A 
ATOM     10  C   UNL     1       2.195   4.566  21.122  0.00  0.00    +0.000 A 
ATOM     11  C   UNL     1       2.312   5.336  19.964  0.00  0.00    +0.000 A 
ATOM     12  C   UNL     1       4.990   3.803  18.074  0.00  0.00    +0.000 C 
ATOM     13  C   UNL     1       6.122   4.695  18.663  0.00  0.00    +0.000 C 
ATOM     14  N   UNL     1       6.895   5.515  17.701  0.00  0.00    +0.000 NA
ATOM     15  C   UNL     1       5.989   6.298  16.847  0.00  0.00    +0.000 C 
ATOM     16  C   UNL     1       5.080   5.385  16.046  0.00  0.00    +0.000 C 
ATOM     17  C   UNL     1       4.207   4.533  16.946  0.00  0.00    +0.000 C 
ENDROOT
BRANCH  14  18
ATOM     18  C   UNL     1       7.780   6.465  18.415  0.00  0.00    +0.000 C 
BRANCH  18  19
ATOM     19  C   UNL     1       7.708   7.901  17.895  0.00  0.00    +0.000 C 
BRANCH  19  20
ATOM     20  C   UNL     1       8.680   8.806  18.645  0.00  0.00    +0.000 C 
BRANCH  20  21
ATOM     21  C   UNL     1       8.652  10.232  18.139  0.00  0.00    +0.000 C 
ATOM     22  O   UNL     1       7.770  10.657  17.399  0.00  0.00    +0.000 OA
BRANCH  21  23
ATOM     23  C   UNL     1       9.751  11.144  18.569  0.00  0.00    +0.000 A 
ATOM     24  C   UNL     1      10.329  12.068  17.698  0.00  0.00    +0.000 A 
ATOM     25  C   UNL     1      11.340  12.875  18.184  0.00  0.00    +0.000 A 
ATOM     26  N   UNL     1      11.799  12.815  19.449  0.00  0.00    +0.000 NA
ATOM     27  C   UNL     1      11.228  11.910  20.274  0.00  0.00    +0.000 A 
ATOM     28  C   UNL     1      10.205  11.054  19.885  0.00  0.00    +0.000 A 
ENDBRANCH  21  23
ENDBRANCH  20  21
ENDBRANCH  19  20
ENDBRANCH  18  19
ENDBRANCH  14  18
TORSDOF 5
ENDMDL
MODEL 2
REMARK VINA RESULT:      -7.6      2.784      9.660
REMARK  Name = 
REMARK  6 active torsions:
REMARK  status: ('A' for Active; 'I' for Inactive)
REMARK    1  A    between atoms: C_1  and  N_2
REMARK    2  A    between atoms: N_14  and  C_15
REMARK    3  A    between atoms: C_15  and  C_16
REMARK    4  A    between atoms: C_16  and  C_17
REMARK    5  A    between atoms: C_17  and  C_18
REMARK    6  A    between atoms: C_18  and  C_20
REMARK                            x       y       z     vdW  Elec       q    Type
REMARK                         _______ _______ _______ _____ _____    ______ ____
ROOT
ATOM      1  C   UNL     1       8.265  15.426  22.688  0.00  0.00    +0.000 C 
ATOM      2  N   UNL     1       9.145  15.231  21.549  0.00  0.00    +0.000 N 
ATOM      3  C   UNL     1       9.970  13.992  21.606  0.00  0.00    +0.000 C 
ATOM      4  C   UNL     1      11.160  14.110  20.628  0.00  0.00    +0.000 C 
ATOM      5  N   UNL     1      10.662  14.275  19.280  0.00  0.00    +0.000 N 
ATOM      6  C   UNL     1       9.375  14.827  19.176  0.00  0.00    +0.000 A 
ATOM      7  C   UNL     1       8.785  14.558  17.944  0.00  0.00    +0.000 A 
ATOM      8  C   UNL     1       7.589  15.152  17.597  0.00  0.00    +0.000 A 
ATOM      9  C   UNL     1       6.978  15.976  18.551  0.00  0.00    +0.000 A 
ATOM     10  C   UNL     1       7.482  16.065  19.872  0.00  0.00    +0.000 A 
ATOM     11  C   UNL     1       8.661  15.412  20.232  0.00  0.00    +0.000 A 
ATOM     12  C   UNL     1       9.510  13.355  17.378  0.00  0.00    +0.000 C 
ATOM     13  C   UNL     1       8.768  12.083  17.881  0.00  0.00    +0.000 C 
ATOM     14  N   UNL     1       9.589  10.866  18.080  0.00  0.00    +0.000 NA
ATOM     15  C   UNL     1      10.759  11.165  18.918  0.00  0.00    +0.000 C 
ATOM     16  C   UNL     1      11.640  12.210  18.259  0.00  0.00    +0.000 C 
ATOM     17  C   UNL     1      10.901  13.518  18.054  0.00  0.00    +0.000 C 
ENDROOT
BRANCH  14  18
ATOM     18  C   UNL     1       8.803   9.808  18.760  0.00  0.00    +0.000 C 
BRANCH  18  19
ATOM     19  C   UNL     1       7.969   8.941  17.816  0.00  0.00    +0.000 C 
BRANCH  19  20
ATOM     20  C   UNL     1       8.053   7.470  18.204  0.00  0.00    +0.000 C 
BRANCH  20  21
ATOM     21  C   UNL     1       7.223   6.583  17.302  0.00  0.00    +0.000 C 
ATOM     22  O   UNL     1       7.569   6.289  16.160  0.00  0.00    +0.000 OA
BRANCH  21  23
ATOM     23  C   UNL     1       5.936   6.053  17.838  0.00  0.00    +0.000 A 
ATOM     24  C   UNL     1       5.888   4.944  18.682  0.00  0.00    +0.000 A 
ATOM     25  C   UNL     1       4.651   4.524  19.133  0.00  0.00    +0.000 A 
ATOM     26  N   UNL     1       3.492   5.125  18.799  0.00  0.00    +0.000 NA
ATOM     27  C   UNL     1       3.563   6.195  17.977  0.00  0.00    +0.000 A 
ATOM     28  C   UNL     1       4.755   6.696  17.470  0.00  0.00    +0.000 A 
ENDBRANCH  21  23
ENDBRANCH  20  21
ENDBRANCH  19  20
ENDBRANCH  18  19
ENDBRANCH  14  18
TORSDOF 5
ENDMDL
MODEL 3
REMARK VINA RESULT:      -7.3      3.114      9.320
REMARK  Name = 
REMARK  6 active torsions:
REMARK  status: ('A' for Active; 'I' for Inactive)
REMARK    1  A    between atoms: C_1  and  N_2
REMARK    2  A    between atoms: N_14  and  C_15
REMARK    3  A    between atoms: C_15  and  C_16
REMARK    4  A    between atoms: C_16  and  C_17
REMARK    5  A    between atoms: C_17  and  C_18
REMARK    6  A    between atoms: C_18  and  C_20
REMARK                            x       y       z     vdW  Elec       q    Type
REMARK                         _______ _______ _______ _____ _____    ______ ____
ROOT
ATOM      1  C   UNL     1       5.784  14.342  22.474  0.00  0.00    +0.000 C 
ATOM      2  N   UNL     1       7.138  14.203  21.967  0.00  0.00    +0.000 N 
ATOM      3  C   UNL     1       7.703  12.829  22.072  0.00  0.00    +0.000 C 
ATOM      4  C   UNL     1       9.242  12.885  21.950  0.00  0.00    +0.000 C 
ATOM      5  N   UNL     1       9.605  13.440  20.665  0.00  0.00    +0.000 N 
ATOM      6  C   UNL     1       8.641  14.273  20.075  0.00  0.00    +0.000 A 
ATOM      7  C   UNL     1       8.834  14.411  18.703  0.00  0.00    +0.000 A 
ATOM      8  C   UNL     1       8.085  15.316  17.978  0.00  0.00    +0.000 A 
ATOM      9  C   UNL     1       7.098  16.033  18.667  0.00  0.00    +0.000 A 
ATOM     10  C   UNL     1       6.772  15.724  20.010  0.00  0.00    +0.000 A 
ATOM     11  C   UNL     1       7.496  14.763  20.718  0.00  0.00    +0.000 A 
ATOM     12  C   UNL     1       9.671  13.225  18.268  0.00  0.00    +0.000 C 
ATOM     13  C   UNL     1       8.692  12.073  17.898  0.00  0.00    +0.000 C 
ATOM     14  N   UNL     1       9.175  10.690  18.121  0.00  0.00    +0.000 NA
ATOM     15  C   UNL     1       9.684  10.536  19.492  0.00  0.00    +0.000 C 
ATOM     16  C   UNL     1      10.850  11.475  19.741  0.00  0.00    +0.000 C 
ATOM     17  C   UNL     1      10.444  12.927  19.585  0.00  0.00    +0.000 C 
ENDROOT
BRANCH  14  18
ATOM     18  C   UNL     1       8.075   9.714  17.934  0.00  0.00    +0.000 C 
BRANCH  18  19
ATOM     19  C   UNL     1       8.461   8.267  18.243  0.00  0.00    +0.000 C 
BRANCH  19  20
ATOM     20  C   UNL     1       7.485   7.289  17.599  0.00  0.00    +0.000 C 
BRANCH  20  21
ATOM     21  C   UNL     1       7.191   6.096  18.483  0.00  0.00    +0.000 C 
ATOM     22  O   UNL     1       7.929   5.752  19.401  0.00  0.00    +0.000 OA
BRANCH  21  23
ATOM     23  C   UNL     1       5.947   5.319  18.212  0.00  0.00    +0.000 A 
ATOM     24  C   UNL     1       4.959   5.144  19.181  0.00  0.00    +0.000 A 
ATOM     25  C   UNL     1       3.838   4.410  18.841  0.00  0.00    +0.000 A 
ATOM     26  N   UNL     1       3.650   3.855  17.627  0.00  0.00    +0.000 NA
ATOM     27  C   UNL     1       4.621   4.035  16.706  0.00  0.00    +0.000 A 
ATOM     28  C   UNL     1       5.784   4.755  16.947  0.00  0.00    +0.000 A 
ENDBRANCH  21  23
ENDBRANCH  20  21
ENDBRANCH  19  20
ENDBRANCH  18  19
ENDBRANCH  14  18
TORSDOF 5
ENDMDL
MODEL 4
REMARK VINA RESULT:      -7.2      1.119      1.325
REMARK  Name = 
REMARK  6 active torsions:
REMARK  status: ('A' for Active; 'I' for Inactive)
REMARK    1  A    between atoms: C_1  and  N_2
REMARK    2  A    between atoms: N_14  and  C_15
REMARK    3  A    between atoms: C_15  and  C_16
REMARK    4  A    between atoms: C_16  and  C_17
REMARK    5  A    between atoms: C_17  and  C_18
REMARK    6  A    between atoms: C_18  and  C_20
REMARK                            x       y       z     vdW  Elec       q    Type
REMARK                         _______ _______ _______ _____ _____    ______ ____
ROOT
ATOM      1  C   UNL     1       1.505   6.664  21.138  0.00  0.00    +0.000 C 
ATOM      2  N   UNL     1       1.937   6.129  19.858  0.00  0.00    +0.000 N 
ATOM      3  C   UNL     1       2.645   7.107  18.984  0.00  0.00    +0.000 C 
ATOM      4  C   UNL     1       2.643   6.599  17.525  0.00  0.00    +0.000 C 
ATOM      5  N   UNL     1       3.332   5.329  17.454  0.00  0.00    +0.000 N 
ATOM      6  C   UNL     1       3.354   4.589  18.648  0.00  0.00    +0.000 A 
ATOM      7  C   UNL     1       4.367   3.634  18.656  0.00  0.00    +0.000 A 
ATOM      8  C   UNL     1       4.444   2.705  19.673  0.00  0.00    +0.000 A 
ATOM      9  C   UNL     1       3.507   2.806  20.710  0.00  0.00    +0.000 A 
ATOM     10  C   UNL     1       2.624   3.909  20.794  0.00  0.00    +0.000 A 
ATOM     11  C   UNL     1       2.594   4.878  19.790  0.00  0.00    +0.000 A 
ATOM     12  C   UNL     1       5.383   4.081  17.626  0.00  0.00    +0.000 C 
ATOM     13  C   UNL     1       6.406   5.005  18.350  0.00  0.00    +0.000 C 
ATOM     14  N   UNL     1       7.027   6.078  17.539  0.00  0.00    +0.000 NA
ATOM     15  C   UNL     1       5.995   6.866  16.849  0.00  0.00    +0.000 C 
ATOM     16  C   UNL     1       5.188   5.989  15.909  0.00  0.00    +0.000 C 
ATOM     17  C   UNL     1       4.469   4.881  16.655  0.00  0.00    +0.000 C 
ENDROOT
BRANCH  14  18
ATOM     18  C   UNL     1       7.803   7.003  18.399  0.00  0.00    +0.000 C 
BRANCH  18  19
ATOM     19  C   UNL     1       7.588   8.483  18.082  0.00  0.00    +0.000 C 
BRANCH  19  20
ATOM     20  C   UNL     1       8.916   9.191  17.838  0.00  0.00    +0.000 C 
BRANCH  20  21
ATOM     21  C   UNL     1       9.184  10.287  18.847  0.00  0.00    +0.000 C 
ATOM     22  O   UNL     1       9.031  10.129  20.055  0.00  0.00    +0.000 OA
BRANCH  21  23
ATOM     23  C   UNL     1       9.652  11.607  18.333  0.00  0.00    +0.000 A 
ATOM     24  C   UNL     1       8.870  12.758  18.429  0.00  0.00    +0.000 A 
ATOM     25  C   UNL     1       9.386  13.938  17.928  0.00  0.00    +0.000 A 
ATOM     26  N   UNL     1      10.600  14.036  17.351  0.00  0.00    +0.000 NA
ATOM     27  C   UNL     1      11.338  12.907  17.267  0.00  0.00    +0.000 A 
ATOM     28  C   UNL     1      10.912  11.673  17.739  0.00  0.00    +0.000 A 
ENDBRANCH  21  23
ENDBRANCH  20  21
ENDBRANCH  19  20
ENDBRANCH  18  19
ENDBRANCH  14  18
TORSDOF 5
ENDMDL
MODEL 5
REMARK VINA RESULT:      -7.2      7.895     11.638
REMARK  Name = 
REMARK  6 active torsions:
REMARK  status: ('A' for Active; 'I' for Inactive)
REMARK    1  A    between atoms: C_1  and  N_2
REMARK    2  A    between atoms: N_14  and  C_15
REMARK    3  A    between atoms: C_15  and  C_16
REMARK    4  A    between atoms: C_16  and  C_17
REMARK    5  A    between atoms: C_17  and  C_18
REMARK    6  A    between atoms: C_18  and  C_20
REMARK                            x       y       z     vdW  Elec       q    Type
REMARK                         _______ _______ _______ _____ _____    ______ ____
ROOT
ATOM      1  C   UNL     1       0.480   9.853  18.215  0.00  0.00    +0.000 C 
ATOM      2  N   UNL     1       0.614  10.848  19.264  0.00  0.00    +0.000 N 
ATOM      3  C   UNL     1       0.018  12.175  18.941  0.00  0.00    +0.000 C 
ATOM      4  C   UNL     1       0.602  13.253  19.881  0.00  0.00    +0.000 C 
ATOM      5  N   UNL     1       0.284  12.922  21.253  0.00  0.00    +0.000 N 
ATOM      6  C   UNL     1       0.054  11.560  21.505  0.00  0.00    +0.000 A 
ATOM      7  C   UNL     1      -0.659  11.357  22.683  0.00  0.00    +0.000 A 
ATOM      8  C   UNL     1      -0.842  10.083  23.181  0.00  0.00    +0.000 A 
ATOM      9  C   UNL     1      -0.334   9.018  22.424  0.00  0.00    +0.000 A 
ATOM     10  C   UNL     1       0.196   9.228  21.128  0.00  0.00    +0.000 A 
ATOM     11  C   UNL     1       0.321  10.517  20.607  0.00  0.00    +0.000 A 
ATOM     12  C   UNL     1      -1.368  12.662  22.983  0.00  0.00    +0.000 C 
ATOM     13  C   UNL     1      -2.752  12.615  22.272  0.00  0.00    +0.000 C 
ATOM     14  N   UNL     1      -3.311  13.909  21.814  0.00  0.00    +0.000 NA
ATOM     15  C   UNL     1      -2.324  14.641  21.008  0.00  0.00    +0.000 C 
ATOM     16  C   UNL     1      -1.080  14.942  21.824  0.00  0.00    +0.000 C 
ATOM     17  C   UNL     1      -0.402  13.672  22.301  0.00  0.00    +0.000 C 
ENDROOT
BRANCH  14  18
ATOM     18  C   UNL     1      -4.513  13.693  20.973  0.00  0.00    +0.000 C 
BRANCH  18  19
ATOM     19  C   UNL     1      -4.336  12.628  19.890  0.00  0.00    +0.000 C 
BRANCH  19  20
ATOM     20  C   UNL     1      -5.664  12.308  19.213  0.00  0.00    +0.000 C 
BRANCH  20  21
ATOM     21  C   UNL     1      -5.649  10.968  18.510  0.00  0.00    +0.000 C 
ATOM     22  O   UNL     1      -6.499  10.105  18.709  0.00  0.00    +0.000 OA
BRANCH  21  23
ATOM     23  C   UNL     1      -4.549  10.703  17.539  0.00  0.00    +0.000 A 
ATOM     24  C   UNL     1      -3.563   9.746  17.780  0.00  0.00    +0.000 A 
ATOM     25  C   UNL     1      -2.583   9.566  16.823  0.00  0.00    +0.000 A 
ATOM     26  N   UNL     1      -2.527  10.266  15.673  0.00  0.00    +0.000 NA
ATOM     27  C   UNL     1      -3.490  11.190  15.462  0.00  0.00    +0.000 A 
ATOM     28  C   UNL     1      -4.518  11.446  16.359  0.00  0.00    +0.000 A 
ENDBRANCH  21  23
ENDBRANCH  20  21
ENDBRANCH  19  20
ENDBRANCH  18  19
ENDBRANCH  14  18
TORSDOF 5
ENDMDL
MODEL 6
REMARK VINA RESULT:      -7.1      0.990      1.177
REMARK  Name = 
REMARK  6 active torsions:
REMARK  status: ('A' for Active; 'I' for Inactive)
REMARK    1  A    between atoms: C_1  and  N_2
REMARK    2  A    between atoms: N_14  and  C_15
REMARK    3  A    between atoms: C_15  and  C_16
REMARK    4  A    between atoms: C_16  and  C_17
REMARK    5  A    between atoms: C_17  and  C_18
REMARK    6  A    between atoms: C_18  and  C_20
REMARK                            x       y       z     vdW  Elec       q    Type
REMARK                         _______ _______ _______ _____ _____    ______ ____
ROOT
ATOM      1  C   UNL     1       1.825   7.430  21.147  0.00  0.00    +0.000 C 
ATOM      2  N   UNL     1       1.943   6.555  19.994  0.00  0.00    +0.000 N 
ATOM      3  C   UNL     1       2.845   7.060  18.920  0.00  0.00    +0.000 C 
ATOM      4  C   UNL     1       2.547   6.322  17.597  0.00  0.00    +0.000 C 
ATOM      5  N   UNL     1       2.780   4.905  17.771  0.00  0.00    +0.000 N 
ATOM      6  C   UNL     1       2.670   4.434  19.090  0.00  0.00    +0.000 A 
ATOM      7  C   UNL     1       3.318   3.215  19.268  0.00  0.00    +0.000 A 
ATOM      8  C   UNL     1       3.184   2.518  20.452  0.00  0.00    +0.000 A 
ATOM      9  C   UNL     1       2.428   3.117  21.469  0.00  0.00    +0.000 A 
ATOM     10  C   UNL     1       1.960   4.448  21.347  0.00  0.00    +0.000 A 
ATOM     11  C   UNL     1       2.152   5.167  20.167  0.00  0.00    +0.000 A 
ATOM     12  C   UNL     1       4.326   3.098  18.144  0.00  0.00    +0.000 C 
ATOM     13  C   UNL     1       5.653   3.744  18.638  0.00  0.00    +0.000 C 
ATOM     14  N   UNL     1       6.510   4.378  17.608  0.00  0.00    +0.000 NA
ATOM     15  C   UNL     1       5.728   5.323  16.798  0.00  0.00    +0.000 C 
ATOM     16  C   UNL     1       4.599   4.608  16.078  0.00  0.00    +0.000 C 
ATOM     17  C   UNL     1       3.633   3.963  17.052  0.00  0.00    +0.000 C 
ENDROOT
BRANCH  14  18
ATOM     18  C   UNL     1       7.618   5.133  18.241  0.00  0.00    +0.000 C 
BRANCH  18  19
ATOM     19  C   UNL     1       7.225   6.524  18.739  0.00  0.00    +0.000 C 
BRANCH  19  20
ATOM     20  C   UNL     1       8.408   7.483  18.679  0.00  0.00    +0.000 C 
BRANCH  20  21
ATOM     21  C   UNL     1       8.069   8.782  17.981  0.00  0.00    +0.000 C 
ATOM     22  O   UNL     1       7.281   8.844  17.040  0.00  0.00    +0.000 OA
BRANCH  21  23
ATOM     23  C   UNL     1       8.726  10.028  18.469  0.00  0.00    +0.000 A 
ATOM     24  C   UNL     1       8.794  11.183  17.690  0.00  0.00    +0.000 A 
ATOM     25  C   UNL     1       9.421  12.293  18.225  0.00  0.00    +0.000 A 
ATOM     26  N   UNL     1       9.971  12.318  19.455  0.00  0.00    +0.000 NA
ATOM     27  C   UNL     1       9.897  11.186  20.190  0.00  0.00    +0.000 A 
ATOM     28  C   UNL     1       9.289  10.020  19.746  0.00  0.00    +0.000 A 
ENDBRANCH  21  23
ENDBRANCH  20  21
ENDBRANCH  19  20
ENDBRANCH  18  19
ENDBRANCH  14  18
TORSDOF 5
ENDMDL
MODEL 7
REMARK VINA RESULT:      -7.1      1.010      1.292
REMARK  Name = 
REMARK  6 active torsions:
REMARK  status: ('A' for Active; 'I' for Inactive)
REMARK    1  A    between atoms: C_1  and  N_2
REMARK    2  A    between atoms: N_14  and  C_15
REMARK    3  A    between atoms: C_15  and  C_16
REMARK    4  A    between atoms: C_16  and  C_17
REMARK    5  A    between atoms: C_17  and  C_18
REMARK    6  A    between atoms: C_18  and  C_20
REMARK                            x       y       z     vdW  Elec       q    Type
REMARK                         _______ _______ _______ _____ _____    ______ ____
ROOT
ATOM      1  C   UNL     1       1.392   7.459  21.048  0.00  0.00    +0.000 C 
ATOM      2  N   UNL     1       1.829   6.803  19.827  0.00  0.00    +0.000 N 
ATOM      3  C   UNL     1       2.618   7.668  18.905  0.00  0.00    +0.000 C 
ATOM      4  C   UNL     1       2.629   7.049  17.490  0.00  0.00    +0.000 C 
ATOM      5  N   UNL     1       3.243   5.740  17.539  0.00  0.00    +0.000 N 
ATOM      6  C   UNL     1       3.186   5.095  18.785  0.00  0.00    +0.000 A 
ATOM      7  C   UNL     1       4.140   4.088  18.900  0.00  0.00    +0.000 A 
ATOM      8  C   UNL     1       4.133   3.238  19.987  0.00  0.00    +0.000 A 
ATOM      9  C   UNL     1       3.173   3.472  20.981  0.00  0.00    +0.000 A 
ATOM     10  C   UNL     1       2.355   4.627  20.952  0.00  0.00    +0.000 A 
ATOM     11  C   UNL     1       2.412   5.515  19.876  0.00  0.00    +0.000 A 
ATOM     12  C   UNL     1       5.211   4.395  17.874  0.00  0.00    +0.000 C 
ATOM     13  C   UNL     1       6.265   5.313  18.559  0.00  0.00    +0.000 C 
ATOM     14  N   UNL     1       6.972   6.283  17.690  0.00  0.00    +0.000 NA
ATOM     15  C   UNL     1       6.008   7.071  16.908  0.00  0.00    +0.000 C 
ATOM     16  C   UNL     1       5.178   6.171  16.011  0.00  0.00    +0.000 C 
ATOM     17  C   UNL     1       4.374   5.168  16.815  0.00  0.00    +0.000 C 
ENDROOT
BRANCH  14  18
ATOM     18  C   UNL     1       7.776   7.226  18.503  0.00  0.00    +0.000 C 
BRANCH  18  19
ATOM     19  C   UNL     1       8.475   8.316  17.690  0.00  0.00    +0.000 C 
BRANCH  19  20
ATOM     20  C   UNL     1       8.084   9.705  18.183  0.00  0.00    +0.000 C 
BRANCH  20  21
ATOM     21  C   UNL     1       9.115  10.301  19.116  0.00  0.00    +0.000 C 
ATOM     22  O   UNL     1       9.228   9.956  20.289  0.00  0.00    +0.000 OA
BRANCH  21  23
ATOM     23  C   UNL     1      10.024  11.350  18.570  0.00  0.00    +0.000 A 
ATOM     24  C   UNL     1      11.370  11.423  18.930  0.00  0.00    +0.000 A 
ATOM     25  C   UNL     1      12.139  12.428  18.373  0.00  0.00    +0.000 A 
ATOM     26  N   UNL     1      11.659  13.339  17.504  0.00  0.00    +0.000 NA
ATOM     27  C   UNL     1      10.352  13.251  17.172  0.00  0.00    +0.000 A 
ATOM     28  C   UNL     1       9.496  12.280  17.675  0.00  0.00    +0.000 A 
ENDBRANCH  21  23
ENDBRANCH  20  21
ENDBRANCH  19  20
ENDBRANCH  18  19
ENDBRANCH  14  18
TORSDOF 5
ENDMDL
MODEL 8
REMARK VINA RESULT:      -7.0      3.122      9.325
REMARK  Name = 
REMARK  6 active torsions:
REMARK  status: ('A' for Active; 'I' for Inactive)
REMARK    1  A    between atoms: C_1  and  N_2
REMARK    2  A    between atoms: N_14  and  C_15
REMARK    3  A    between atoms: C_15  and  C_16
REMARK    4  A    between atoms: C_16  and  C_17
REMARK    5  A    between atoms: C_17  and  C_18
REMARK    6  A    between atoms: C_18  and  C_20
REMARK                            x       y       z     vdW  Elec       q    Type
REMARK                         _______ _______ _______ _____ _____    ______ ____
ROOT
ATOM      1  C   UNL     1       5.901  14.551  22.479  0.00  0.00    +0.000 C 
ATOM      2  N   UNL     1       7.229  14.410  21.907  0.00  0.00    +0.000 N 
ATOM      3  C   UNL     1       7.820  13.048  22.036  0.00  0.00    +0.000 C 
ATOM      4  C   UNL     1       9.349  13.120  21.831  0.00  0.00    +0.000 C 
ATOM      5  N   UNL     1       9.636  13.628  20.507  0.00  0.00    +0.000 N 
ATOM      6  C   UNL     1       8.630  14.425  19.937  0.00  0.00    +0.000 A 
ATOM      7  C   UNL     1       8.749  14.510  18.552  0.00  0.00    +0.000 A 
ATOM      8  C   UNL     1       7.950  15.376  17.833  0.00  0.00    +0.000 A 
ATOM      9  C   UNL     1       6.989  16.106  18.545  0.00  0.00    +0.000 A 
ATOM     10  C   UNL     1       6.738  15.847  19.915  0.00  0.00    +0.000 A 
ATOM     11  C   UNL     1       7.513  14.925  20.620  0.00  0.00    +0.000 A 
ATOM     12  C   UNL     1       9.580  13.320  18.121  0.00  0.00    +0.000 C 
ATOM     13  C   UNL     1       8.601  12.141  17.848  0.00  0.00    +0.000 C 
ATOM     14  N   UNL     1       9.117  10.774  18.099  0.00  0.00    +0.000 NA
ATOM     15  C   UNL     1       9.699  10.682  19.446  0.00  0.00    +0.000 C 
ATOM     16  C   UNL     1      10.862  11.645  19.596  0.00  0.00    +0.000 C 
ATOM     17  C   UNL     1      10.425  13.084  19.405  0.00  0.00    +0.000 C 
ENDROOT
BRANCH  14  18
ATOM     18  C   UNL     1       8.023   9.777  18.008  0.00  0.00    +0.000 C 
BRANCH  18  19
ATOM     19  C   UNL     1       8.490   8.365  17.656  0.00  0.00    +0.000 C 
BRANCH  19  20
ATOM     20  C   UNL     1       7.550   7.314  18.235  0.00  0.00    +0.000 C 
BRANCH  20  21
ATOM     21  C   UNL     1       7.094   6.309  17.200  0.00  0.00    +0.000 C 
ATOM     22  O   UNL     1       7.539   6.285  16.056  0.00  0.00    +0.000 OA
BRANCH  21  23
ATOM     23  C   UNL     1       6.060   5.313  17.605  0.00  0.00    +0.000 A 
ATOM     24  C   UNL     1       5.338   4.574  16.668  0.00  0.00    +0.000 A 
ATOM     25  C   UNL     1       4.401   3.671  17.134  0.00  0.00    +0.000 A 
ATOM     26  N   UNL     1       4.147   3.469  18.442  0.00  0.00    +0.000 NA
ATOM     27  C   UNL     1       4.856   4.198  19.331  0.00  0.00    +0.000 A 
ATOM     28  C   UNL     1       5.819   5.129  18.966  0.00  0.00    +0.000 A 
ENDBRANCH  21  23
ENDBRANCH  20  21
ENDBRANCH  19  20
ENDBRANCH  18  19
ENDBRANCH  14  18
TORSDOF 5
ENDMDL
MODEL 9
REMARK VINA RESULT:      -7.0      3.057      9.118
REMARK  Name = 
REMARK  6 active torsions:
REMARK  status: ('A' for Active; 'I' for Inactive)
REMARK    1  A    between atoms: C_1  and  N_2
REMARK    2  A    between atoms: N_14  and  C_15
REMARK    3  A    between atoms: C_15  and  C_16
REMARK    4  A    between atoms: C_16  and  C_17
REMARK    5  A    between atoms: C_17  and  C_18
REMARK    6  A    between atoms: C_18  and  C_20
REMARK                            x       y       z     vdW  Elec       q    Type
REMARK                         _______ _______ _______ _____ _____    ______ ____
ROOT
ATOM      1  C   UNL     1       5.950  14.470  22.449  0.00  0.00    +0.000 C 
ATOM      2  N   UNL     1       7.249  14.310  21.819  0.00  0.00    +0.000 N 
ATOM      3  C   UNL     1       7.864  12.965  21.997  0.00  0.00    +0.000 C 
ATOM      4  C   UNL     1       9.380  13.041  21.709  0.00  0.00    +0.000 C 
ATOM      5  N   UNL     1       9.592  13.472  20.345  0.00  0.00    +0.000 N 
ATOM      6  C   UNL     1       8.547  14.222  19.781  0.00  0.00    +0.000 A 
ATOM      7  C   UNL     1       8.594  14.226  18.390  0.00  0.00    +0.000 A 
ATOM      8  C   UNL     1       7.747  15.038  17.663  0.00  0.00    +0.000 A 
ATOM      9  C   UNL     1       6.814  15.799  18.380  0.00  0.00    +0.000 A 
ATOM     10  C   UNL     1       6.637  15.620  19.773  0.00  0.00    +0.000 A 
ATOM     11  C   UNL     1       7.459  14.750  20.491  0.00  0.00    +0.000 A 
ATOM     12  C   UNL     1       9.419  13.021  17.987  0.00  0.00    +0.000 C 
ATOM     13  C   UNL     1       8.444  11.817  17.836  0.00  0.00    +0.000 C 
ATOM     14  N   UNL     1       8.991  10.473  18.140  0.00  0.00    +0.000 NA
ATOM     15  C   UNL     1       9.642  10.468  19.458  0.00  0.00    +0.000 C 
ATOM     16  C   UNL     1      10.797  11.452  19.491  0.00  0.00    +0.000 C 
ATOM     17  C   UNL     1      10.331  12.872  19.238  0.00  0.00    +0.000 C 
ENDROOT
BRANCH  14  18
ATOM     18  C   UNL     1       7.908   9.461  18.165  0.00  0.00    +0.000 C 
BRANCH  18  19
ATOM     19  C   UNL     1       8.205   8.206  17.344  0.00  0.00    +0.000 C 
BRANCH  19  20
ATOM     20  C   UNL     1       7.461   6.997  17.901  0.00  0.00    +0.000 C 
BRANCH  20  21
ATOM     21  C   UNL     1       6.198   6.686  17.128  0.00  0.00    +0.000 C 
ATOM     22  O   UNL     1       6.157   6.669  15.901  0.00  0.00    +0.000 OA
BRANCH  21  23
ATOM     23  C   UNL     1       4.960   6.390  17.906  0.00  0.00    +0.000 A 
ATOM     24  C   UNL     1       4.943   5.454  18.940  0.00  0.00    +0.000 A 
ATOM     25  C   UNL     1       3.752   5.246  19.609  0.00  0.00    +0.000 A 
ATOM     26  N   UNL     1       2.608   5.895  19.315  0.00  0.00    +0.000 NA
ATOM     27  C   UNL     1       2.648   6.795  18.307  0.00  0.00    +0.000 A 
ATOM     28  C   UNL     1       3.793   7.077  17.574  0.00  0.00    +0.000 A 
ENDBRANCH  21  23
ENDBRANCH  20  21
ENDBRANCH  19  20
ENDBRANCH  18  19
ENDBRANCH  14  18
TORSDOF 5
ENDMDL
