MODEL 1
REMARK VINA RESULT:      -7.7      0.000      0.000
REMARK  Name = 
REMARK  4 active torsions:
REMARK  status: ('A' for Active; 'I' for Inactive)
REMARK    1  A    between atoms: C_1  and  C_2
REMARK    2  A    between atoms: C_2  and  C_3
REMARK    3  A    between atoms: C_6  and  C_7
REMARK    4  A    between atoms: C_15  and  C_16
REMARK                            x       y       z     vdW  Elec       q    Type
REMARK                         _______ _______ _______ _____ _____    ______ ____
ROOT
ATOM      1  C   UNL     1       0.341  10.536  20.686  0.00  0.00    +0.000 C 
ATOM      2  C   UNL     1       0.246  10.480  19.163  0.00  0.00    +0.000 C 
ATOM      3  C   UNL     1      -1.141  10.117  18.668  0.00  0.00    +0.000 C 
ATOM      4  C   UNL     1      -1.706  11.485  18.484  0.00  0.00    +0.000 C 
ATOM      5  N   UNL     1      -0.802  12.412  18.425  0.00  0.00    +0.000 NA
ATOM      6  O   UNL     1       0.466  11.792  18.615  0.00  0.00    +0.000 OA
ENDROOT
BRANCH   4   7
ATOM      7  C   UNL     1      -3.170  11.745  18.346  0.00  0.00    +0.000 A 
ATOM      8  C   UNL     1      -3.829  11.463  17.129  0.00  0.00    +0.000 A 
ATOM      9 CL   UNL     1      -3.014  10.962  15.685  0.00  0.00    +0.000 Cl
ATOM     10  C   UNL     1      -5.218  11.642  17.002  0.00  0.00    +0.000 A 
ATOM     11  C   UNL     1      -5.972  12.119  18.066  0.00  0.00    +0.000 A 
ATOM     12  C   UNL     1      -5.336  12.427  19.262  0.00  0.00    +0.000 A 
ATOM     13  C   UNL     1      -3.952  12.241  19.409  0.00  0.00    +0.000 A 
ATOM     14 CL   UNL     1      -3.351  12.628  20.983  0.00  0.00    +0.000 Cl
ENDBRANCH   4   7
BRANCH   2  15
ATOM     15  C   UNL     1       1.269   9.539  18.612  0.00  0.00    +0.000 A 
ATOM     16  N   UNL     1       1.999   9.682  17.523  0.00  0.00    +0.000 NA
ATOM     17  N   UNL     1       2.777   8.551  17.421  0.00  0.00    +0.000 NA
ATOM     18  C   UNL     1       2.465   7.784  18.447  0.00  0.00    +0.000 A 
ATOM     19  O   UNL     1       1.499   8.344  19.246  0.00  0.00    +0.000 OA
BRANCH  18  20
ATOM     20  C   UNL     1       2.994   6.479  18.815  0.00  0.00    +0.000 A 
ATOM     21  C   UNL     1       4.091   5.959  18.115  0.00  0.00    +0.000 A 
ATOM     22  C   UNL     1       4.588   4.719  18.483  0.00  0.00    +0.000 A 
ATOM     23  N   UNL     1       4.071   3.972  19.480  0.00  0.00    +0.000 NA
ATOM     24  C   UNL     1       3.013   4.489  20.141  0.00  0.00    +0.000 A 
ATOM     25  C   UNL     1       2.444   5.718  19.849  0.00  0.00    +0.000 A 
ENDBRANCH  18  20
ENDBRANCH   2  15
TORSDOF 3
ENDMDL
MODEL 2
REMARK VINA RESULT:      -7.6      0.182      1.850
REMARK  Name = 
REMARK  4 active torsions:
REMARK  status: ('A' for Active; 'I' for Inactive)
REMARK    1  A    between atoms: C_1  and  C_2
REMARK    2  A    between atoms: C_2  and  C_3
REMARK    3  A    between atoms: C_6  and  C_7
REMARK    4  A    between atoms: C_15  and  C_16
REMARK                            x       y       z     vdW  Elec       q    Type
REMARK                         _______ _______ _______ _____ _____    ______ ____
ROOT
ATOM      1  C   UNL     1       0.416  10.536  20.750  0.00  0.00    +0.000 C 
ATOM      2  C   UNL     1       0.282  10.470  19.231  0.00  0.00    +0.000 C 
ATOM      3  C   UNL     1      -1.121  10.122  18.772  0.00  0.00    +0.000 C 
ATOM      4  C   UNL     1      -1.672  11.497  18.593  0.00  0.00    +0.000 C 
ATOM      5  N   UNL     1      -0.758  12.411  18.505  0.00  0.00    +0.000 NA
ATOM      6  O   UNL     1       0.506  11.776  18.668  0.00  0.00    +0.000 OA
ENDROOT
BRANCH   4   7
ATOM      7  C   UNL     1      -3.136  11.775  18.489  0.00  0.00    +0.000 A 
ATOM      8  C   UNL     1      -3.830  12.340  19.582  0.00  0.00    +0.000 A 
ATOM      9 CL   UNL     1      -3.122  12.606  21.140  0.00  0.00    +0.000 Cl
ATOM     10  C   UNL     1      -5.194  12.666  19.480  0.00  0.00    +0.000 A 
ATOM     11  C   UNL     1      -5.896  12.423  18.307  0.00  0.00    +0.000 A 
ATOM     12  C   UNL     1      -5.235  11.844  17.231  0.00  0.00    +0.000 A 
ATOM     13  C   UNL     1      -3.871  11.524  17.313  0.00  0.00    +0.000 A 
ATOM     14 CL   UNL     1      -3.213  10.861  15.858  0.00  0.00    +0.000 Cl
ENDBRANCH   4   7
BRANCH   2  15
ATOM     15  C   UNL     1       1.279   9.512  18.662  0.00  0.00    +0.000 A 
ATOM     16  N   UNL     1       1.970   9.629  17.544  0.00  0.00    +0.000 NA
ATOM     17  N   UNL     1       2.737   8.492  17.436  0.00  0.00    +0.000 NA
ATOM     18  C   UNL     1       2.459   7.747  18.488  0.00  0.00    +0.000 A 
ATOM     19  O   UNL     1       1.526   8.329  19.311  0.00  0.00    +0.000 OA
BRANCH  18  20
ATOM     20  C   UNL     1       2.994   6.447  18.862  0.00  0.00    +0.000 A 
ATOM     21  C   UNL     1       4.178   5.993  18.267  0.00  0.00    +0.000 A 
ATOM     22  C   UNL     1       4.680   4.756  18.640  0.00  0.00    +0.000 A 
ATOM     23  N   UNL     1       4.087   3.952  19.547  0.00  0.00    +0.000 NA
ATOM     24  C   UNL     1       2.946   4.405  20.108  0.00  0.00    +0.000 A 
ATOM     25  C   UNL     1       2.366   5.626  19.802  0.00  0.00    +0.000 A 
ENDBRANCH  18  20
ENDBRANCH   2  15
TORSDOF 3
ENDMDL
MODEL 3
REMARK VINA RESULT:      -7.5      6.605      9.213
REMARK  Name = 
REMARK  4 active torsions:
REMARK  status: ('A' for Active; 'I' for Inactive)
REMARK    1  A    between atoms: C_1  and  C_2
REMARK    2  A    between atoms: C_2  and  C_3
REMARK    3  A    between atoms: C_6  and  C_7
REMARK    4  A    between atoms: C_15  and  C_16
REMARK                            x       y       z     vdW  Elec       q    Type
REMARK                         _______ _______ _______ _____ _____    ______ ____
ROOT
ATOM      1  C   UNL     1       7.579   4.527  18.093  0.00  0.00    +0.000 C 
ATOM      2  C   UNL     1       6.338   4.894  17.285  0.00  0.00    +0.000 C 
ATOM      3  C   UNL     1       5.128   4.048  17.635  0.00  0.00    +0.000 C 
ATOM      4  C   UNL     1       4.505   4.921  18.671  0.00  0.00    +0.000 C 
ATOM      5  N   UNL     1       4.930   6.145  18.636  0.00  0.00    +0.000 NA
ATOM      6  O   UNL     1       5.920   6.231  17.617  0.00  0.00    +0.000 OA
ENDROOT
BRANCH   4   7
ATOM      7  C   UNL     1       3.468   4.430  19.627  0.00  0.00    +0.000 A 
ATOM      8  C   UNL     1       2.348   5.234  19.934  0.00  0.00    +0.000 A 
ATOM      9 CL   UNL     1       2.153   6.865  19.384  0.00  0.00    +0.000 Cl
ATOM     10  C   UNL     1       1.331   4.763  20.782  0.00  0.00    +0.000 A 
ATOM     11  C   UNL     1       1.413   3.500  21.354  0.00  0.00    +0.000 A 
ATOM     12  C   UNL     1       2.520   2.706  21.084  0.00  0.00    +0.000 A 
ATOM     13  C   UNL     1       3.538   3.158  20.229  0.00  0.00    +0.000 A 
ATOM     14 CL   UNL     1       4.805   2.010  19.973  0.00  0.00    +0.000 Cl
ENDBRANCH   4   7
BRANCH   2  15
ATOM     15  C   UNL     1       6.629   4.820  15.820  0.00  0.00    +0.000 A 
ATOM     16  N   UNL     1       7.490   5.540  15.127  0.00  0.00    +0.000 NA
ATOM     17  N   UNL     1       7.387   5.124  13.819  0.00  0.00    +0.000 NA
ATOM     18  C   UNL     1       6.463   4.184  13.794  0.00  0.00    +0.000 A 
ATOM     19  O   UNL     1       5.924   3.943  15.034  0.00  0.00    +0.000 OA
BRANCH  18  20
ATOM     20  C   UNL     1       5.968   3.410  12.665  0.00  0.00    +0.000 A 
ATOM     21  C   UNL     1       4.669   3.636  12.192  0.00  0.00    +0.000 A 
ATOM     22  C   UNL     1       4.215   2.897  11.112  0.00  0.00    +0.000 A 
ATOM     23  N   UNL     1       4.954   1.958  10.486  0.00  0.00    +0.000 NA
ATOM     24  C   UNL     1       6.202   1.752  10.957  0.00  0.00    +0.000 A 
ATOM     25  C   UNL     1       6.747   2.439  12.030  0.00  0.00    +0.000 A 
ENDBRANCH  18  20
ENDBRANCH   2  15
TORSDOF 3
ENDMDL
MODEL 4
REMARK VINA RESULT:      -7.4      0.587      1.112
REMARK  Name = 
REMARK  4 active torsions:
REMARK  status: ('A' for Active; 'I' for Inactive)
REMARK    1  A    between atoms: C_1  and  C_2
REMARK    2  A    between atoms: C_2  and  C_3
REMARK    3  A    between atoms: C_6  and  C_7
REMARK    4  A    between atoms: C_15  and  C_16
REMARK                            x       y       z     vdW  Elec       q    Type
REMARK                         _______ _______ _______ _____ _____    ______ ____
ROOT
ATOM      1  C   UNL     1       0.883  10.977  20.731  0.00  0.00    +0.000 C 
ATOM      2  C   UNL     1       0.491  10.722  19.278  0.00  0.00    +0.000 C 
ATOM      3  C   UNL     1      -0.969  10.343  19.115  0.00  0.00    +0.000 C 
ATOM      4  C   UNL     1      -1.549  11.693  18.859  0.00  0.00    +0.000 C 
ATOM      5  N   UNL     1      -0.669  12.574  18.500  0.00  0.00    +0.000 NA
ATOM      6  O   UNL     1       0.608  11.943  18.524  0.00  0.00    +0.000 OA
ENDROOT
BRANCH   4   7
ATOM      7  C   UNL     1      -3.010  11.980  18.972  0.00  0.00    +0.000 A 
ATOM      8  C   UNL     1      -3.891  11.602  17.935  0.00  0.00    +0.000 A 
ATOM      9 CL   UNL     1      -3.370  10.942  16.421  0.00  0.00    +0.000 Cl
ATOM     10  C   UNL     1      -5.277  11.808  18.053  0.00  0.00    +0.000 A 
ATOM     11  C   UNL     1      -5.811  12.406  19.186  0.00  0.00    +0.000 A 
ATOM     12  C   UNL     1      -4.957  12.809  20.205  0.00  0.00    +0.000 A 
ATOM     13  C   UNL     1      -3.573  12.598  20.108  0.00  0.00    +0.000 A 
ATOM     14 CL   UNL     1      -2.681  13.117  21.495  0.00  0.00    +0.000 Cl
ENDBRANCH   4   7
BRANCH   2  15
ATOM     15  C   UNL     1       1.380   9.684  18.673  0.00  0.00    +0.000 A 
ATOM     16  N   UNL     1       2.070   9.760  17.552  0.00  0.00    +0.000 NA
ATOM     17  N   UNL     1       2.716   8.554  17.406  0.00  0.00    +0.000 NA
ATOM     18  C   UNL     1       2.371   7.813  18.440  0.00  0.00    +0.000 A 
ATOM     19  O   UNL     1       1.509   8.464  19.288  0.00  0.00    +0.000 OA
BRANCH  18  20
ATOM     20  C   UNL     1       2.773   6.455  18.775  0.00  0.00    +0.000 A 
ATOM     21  C   UNL     1       2.438   5.927  20.029  0.00  0.00    +0.000 A 
ATOM     22  C   UNL     1       2.820   4.630  20.330  0.00  0.00    +0.000 A 
ATOM     23  N   UNL     1       3.509   3.838  19.481  0.00  0.00    +0.000 NA
ATOM     24  C   UNL     1       3.825   4.364  18.279  0.00  0.00    +0.000 A 
ATOM     25  C   UNL     1       3.488   5.649  17.885  0.00  0.00    +0.000 A 
ENDBRANCH  18  20
ENDBRANCH   2  15
TORSDOF 3
ENDMDL
MODEL 5
REMARK VINA RESULT:      -7.4      6.550      8.981
REMARK  Name = 
REMARK  4 active torsions:
REMARK  status: ('A' for Active; 'I' for Inactive)
REMARK    1  A    between atoms: C_1  and  C_2
REMARK    2  A    between atoms: C_2  and  C_3
REMARK    3  A    between atoms: C_6  and  C_7
REMARK    4  A    between atoms: C_15  and  C_16
REMARK                            x       y       z     vdW  Elec       q    Type
REMARK                         _______ _______ _______ _____ _____    ______ ____
ROOT
ATOM      1  C   UNL     1       6.558   6.342  17.848  0.00  0.00    +0.000 C 
ATOM      2  C   UNL     1       5.607   5.628  16.890  0.00  0.00    +0.000 C 
ATOM      3  C   UNL     1       4.964   4.396  17.501  0.00  0.00    +0.000 C 
ATOM      4  C   UNL     1       3.708   5.006  18.025  0.00  0.00    +0.000 C 
ATOM      5  N   UNL     1       3.431   6.156  17.493  0.00  0.00    +0.000 NA
ATOM      6  O   UNL     1       4.486   6.481  16.594  0.00  0.00    +0.000 OA
ENDROOT
BRANCH   4   7
ATOM      7  C   UNL     1       2.842   4.332  19.038  0.00  0.00    +0.000 A 
ATOM      8  C   UNL     1       2.146   5.098  19.999  0.00  0.00    +0.000 A 
ATOM      9 CL   UNL     1       2.342   6.808  20.194  0.00  0.00    +0.000 Cl
ATOM     10  C   UNL     1       1.277   4.485  20.920  0.00  0.00    +0.000 A 
ATOM     11  C   UNL     1       1.099   3.108  20.918  0.00  0.00    +0.000 A 
ATOM     12  C   UNL     1       1.797   2.337  19.997  0.00  0.00    +0.000 A 
ATOM     13  C   UNL     1       2.657   2.935  19.063  0.00  0.00    +0.000 A 
ATOM     14 CL   UNL     1       3.394   1.819  17.967  0.00  0.00    +0.000 Cl
ENDBRANCH   4   7
BRANCH   2  15
ATOM     15  C   UNL     1       6.312   5.282  15.618  0.00  0.00    +0.000 A 
ATOM     16  N   UNL     1       7.426   5.803  15.140  0.00  0.00    +0.000 NA
ATOM     17  N   UNL     1       7.666   5.178  13.938  0.00  0.00    +0.000 NA
ATOM     18  C   UNL     1       6.680   4.324  13.751  0.00  0.00    +0.000 A 
ATOM     19  O   UNL     1       5.768   4.342  14.778  0.00  0.00    +0.000 OA
BRANCH  18  20
ATOM     20  C   UNL     1       6.451   3.410  12.642  0.00  0.00    +0.000 A 
ATOM     21  C   UNL     1       7.548   2.843  11.980  0.00  0.00    +0.000 A 
ATOM     22  C   UNL     1       7.314   1.969  10.931  0.00  0.00    +0.000 A 
ATOM     23  N   UNL     1       6.080   1.631  10.501  0.00  0.00    +0.000 NA
ATOM     24  C   UNL     1       5.036   2.189  11.150  0.00  0.00    +0.000 A 
ATOM     25  C   UNL     1       5.166   3.073  12.208  0.00  0.00    +0.000 A 
ENDBRANCH  18  20
ENDBRANCH   2  15
TORSDOF 3
ENDMDL
MODEL 6
REMARK VINA RESULT:      -7.4      6.509      8.877
REMARK  Name = 
REMARK  4 active torsions:
REMARK  status: ('A' for Active; 'I' for Inactive)
REMARK    1  A    between atoms: C_1  and  C_2
REMARK    2  A    between atoms: C_2  and  C_3
REMARK    3  A    between atoms: C_6  and  C_7
REMARK    4  A    between atoms: C_15  and  C_16
REMARK                            x       y       z     vdW  Elec       q    Type
REMARK                         _______ _______ _______ _____ _____    ______ ____
ROOT
ATOM      1  C   UNL     1       6.742   6.088  17.946  0.00  0.00    +0.000 C 
ATOM      2  C   UNL     1       5.717   5.566  16.943  0.00  0.00    +0.000 C 
ATOM      3  C   UNL     1       4.940   4.368  17.455  0.00  0.00    +0.000 C 
ATOM      4  C   UNL     1       3.761   5.067  18.042  0.00  0.00    +0.000 C 
ATOM      5  N   UNL     1       3.614   6.280  17.610  0.00  0.00    +0.000 NA
ATOM      6  O   UNL     1       4.697   6.560  16.730  0.00  0.00    +0.000 OA
ENDROOT
BRANCH   4   7
ATOM      7  C   UNL     1       2.827   4.411  19.005  0.00  0.00    +0.000 A 
ATOM      8  C   UNL     1       2.657   3.009  18.985  0.00  0.00    +0.000 A 
ATOM      9 CL   UNL     1       3.359   1.970  17.790  0.00  0.00    +0.000 Cl
ATOM     10  C   UNL     1       1.831   2.368  19.925  0.00  0.00    +0.000 A 
ATOM     11  C   UNL     1       1.146   3.102  20.885  0.00  0.00    +0.000 A 
ATOM     12  C   UNL     1       1.281   4.484  20.902  0.00  0.00    +0.000 A 
ATOM     13  C   UNL     1       2.113   5.137  19.979  0.00  0.00    +0.000 A 
ATOM     14 CL   UNL     1       2.193   6.851  20.191  0.00  0.00    +0.000 Cl
ENDBRANCH   4   7
BRANCH   2  15
ATOM     15  C   UNL     1       6.376   5.252  15.639  0.00  0.00    +0.000 A 
ATOM     16  N   UNL     1       7.452   5.811  15.118  0.00  0.00    +0.000 NA
ATOM     17  N   UNL     1       7.660   5.204  13.901  0.00  0.00    +0.000 NA
ATOM     18  C   UNL     1       6.693   4.320  13.750  0.00  0.00    +0.000 A 
ATOM     19  O   UNL     1       5.827   4.302  14.815  0.00  0.00    +0.000 OA
BRANCH  18  20
ATOM     20  C   UNL     1       6.445   3.408  12.643  0.00  0.00    +0.000 A 
ATOM     21  C   UNL     1       5.126   3.153  12.244  0.00  0.00    +0.000 A 
ATOM     22  C   UNL     1       4.907   2.289  11.184  0.00  0.00    +0.000 A 
ATOM     23  N   UNL     1       5.896   1.666  10.510  0.00  0.00    +0.000 NA
ATOM     24  C   UNL     1       7.159   1.922  10.911  0.00  0.00    +0.000 A 
ATOM     25  C   UNL     1       7.482   2.769  11.958  0.00  0.00    +0.000 A 
ENDBRANCH  18  20
ENDBRANCH   2  15
TORSDOF 3
ENDMDL
MODEL 7
REMARK VINA RESULT:      -7.4      7.062      9.247
REMARK  Name = 
REMARK  4 active torsions:
REMARK  status: ('A' for Active; 'I' for Inactive)
REMARK    1  A    between atoms: C_1  and  C_2
REMARK    2  A    between atoms: C_2  and  C_3
REMARK    3  A    between atoms: C_6  and  C_7
REMARK    4  A    between atoms: C_15  and  C_16
REMARK                            x       y       z     vdW  Elec       q    Type
REMARK                         _______ _______ _______ _____ _____    ______ ____
ROOT
ATOM      1  C   UNL     1       7.837   4.424  17.802  0.00  0.00    +0.000 C 
ATOM      2  C   UNL     1       6.945   5.563  18.288  0.00  0.00    +0.000 C 
ATOM      3  C   UNL     1       5.506   5.431  17.826  0.00  0.00    +0.000 C 
ATOM      4  C   UNL     1       4.934   4.708  18.998  0.00  0.00    +0.000 C 
ATOM      5  N   UNL     1       5.669   4.786  20.062  0.00  0.00    +0.000 NA
ATOM      6  O   UNL     1       6.842   5.520  19.724  0.00  0.00    +0.000 OA
ENDROOT
BRANCH   4   7
ATOM      7  C   UNL     1       3.622   3.996  18.948  0.00  0.00    +0.000 A 
ATOM      8  C   UNL     1       2.470   4.663  18.475  0.00  0.00    +0.000 A 
ATOM      9 CL   UNL     1       2.428   6.347  18.074  0.00  0.00    +0.000 Cl
ATOM     10  C   UNL     1       1.241   3.989  18.361  0.00  0.00    +0.000 A 
ATOM     11  C   UNL     1       1.126   2.656  18.731  0.00  0.00    +0.000 A 
ATOM     12  C   UNL     1       2.242   1.992  19.223  0.00  0.00    +0.000 A 
ATOM     13  C   UNL     1       3.479   2.646  19.329  0.00  0.00    +0.000 A 
ATOM     14 CL   UNL     1       4.761   1.643  19.912  0.00  0.00    +0.000 Cl
ENDBRANCH   4   7
BRANCH   2  15
ATOM     15  C   UNL     1       7.515   6.883  17.877  0.00  0.00    +0.000 A 
ATOM     16  N   UNL     1       7.757   7.316  16.654  0.00  0.00    +0.000 NA
ATOM     17  N   UNL     1       8.296   8.575  16.784  0.00  0.00    +0.000 NA
ATOM     18  C   UNL     1       8.359   8.828  18.076  0.00  0.00    +0.000 A 
ATOM     19  O   UNL     1       7.889   7.787  18.839  0.00  0.00    +0.000 OA
BRANCH  18  20
ATOM     20  C   UNL     1       8.845  10.018  18.759  0.00  0.00    +0.000 A 
ATOM     21  C   UNL     1       8.991  11.212  18.040  0.00  0.00    +0.000 A 
ATOM     22  C   UNL     1       9.447  12.338  18.706  0.00  0.00    +0.000 A 
ATOM     23  N   UNL     1       9.768  12.353  20.016  0.00  0.00    +0.000 NA
ATOM     24  C   UNL     1       9.624  11.193  20.691  0.00  0.00    +0.000 A 
ATOM     25  C   UNL     1       9.176  10.015  20.116  0.00  0.00    +0.000 A 
ENDBRANCH  18  20
ENDBRANCH   2  15
TORSDOF 3
ENDMDL
MODEL 8
REMARK VINA RESULT:      -7.3      6.812      9.113
REMARK  Name = 
REMARK  4 active torsions:
REMARK  status: ('A' for Active; 'I' for Inactive)
REMARK    1  A    between atoms: C_1  and  C_2
REMARK    2  A    between atoms: C_2  and  C_3
REMARK    3  A    between atoms: C_6  and  C_7
REMARK    4  A    between atoms: C_15  and  C_16
REMARK                            x       y       z     vdW  Elec       q    Type
REMARK                         _______ _______ _______ _____ _____    ______ ____
ROOT
ATOM      1  C   UNL     1       7.301   4.650  17.358  0.00  0.00    +0.000 C 
ATOM      2  C   UNL     1       6.744   5.743  18.266  0.00  0.00    +0.000 C 
ATOM      3  C   UNL     1       5.228   5.811  18.252  0.00  0.00    +0.000 C 
ATOM      4  C   UNL     1       4.929   4.927  19.415  0.00  0.00    +0.000 C 
ATOM      5  N   UNL     1       5.944   4.748  20.201  0.00  0.00    +0.000 NA
ATOM      6  O   UNL     1       7.054   5.439  19.638  0.00  0.00    +0.000 OA
ENDROOT
BRANCH   4   7
ATOM      7  C   UNL     1       3.577   4.341  19.660  0.00  0.00    +0.000 A 
ATOM      8  C   UNL     1       3.412   2.939  19.720  0.00  0.00    +0.000 A 
ATOM      9 CL   UNL     1       4.673   1.804  19.371  0.00  0.00    +0.000 Cl
ATOM     10  C   UNL     1       2.159   2.371  20.012  0.00  0.00    +0.000 A 
ATOM     11  C   UNL     1       1.049   3.177  20.229  0.00  0.00    +0.000 A 
ATOM     12  C   UNL     1       1.188   4.556  20.148  0.00  0.00    +0.000 A 
ATOM     13  C   UNL     1       2.434   5.138  19.870  0.00  0.00    +0.000 A 
ATOM     14 CL   UNL     1       2.420   6.867  19.862  0.00  0.00    +0.000 Cl
ENDBRANCH   4   7
BRANCH   2  15
ATOM     15  C   UNL     1       7.337   7.068  17.910  0.00  0.00    +0.000 A 
ATOM     16  N   UNL     1       7.336   7.668  16.735  0.00  0.00    +0.000 NA
ATOM     17  N   UNL     1       8.017   8.852  16.899  0.00  0.00    +0.000 NA
ATOM     18  C   UNL     1       8.400   8.897  18.159  0.00  0.00    +0.000 A 
ATOM     19  O   UNL     1       8.012   7.785  18.865  0.00  0.00    +0.000 OA
BRANCH  18  20
ATOM     20  C   UNL     1       9.150   9.930  18.858  0.00  0.00    +0.000 A 
ATOM     21  C   UNL     1      10.092  10.692  18.154  0.00  0.00    +0.000 A 
ATOM     22  C   UNL     1      10.791  11.678  18.831  0.00  0.00    +0.000 A 
ATOM     23  N   UNL     1      10.623  11.947  20.142  0.00  0.00    +0.000 NA
ATOM     24  C   UNL     1       9.713  11.201  20.804  0.00  0.00    +0.000 A 
ATOM     25  C   UNL     1       8.965  10.194  20.217  0.00  0.00    +0.000 A 
ENDBRANCH  18  20
ENDBRANCH   2  15
TORSDOF 3
ENDMDL
MODEL 9
REMARK VINA RESULT:      -7.2      6.565      9.121
REMARK  Name = 
REMARK  4 active torsions:
REMARK  status: ('A' for Active; 'I' for Inactive)
REMARK    1  A    between atoms: C_1  and  C_2
REMARK    2  A    between atoms: C_2  and  C_3
REMARK    3  A    between atoms: C_6  and  C_7
REMARK    4  A    between atoms: C_15  and  C_16
REMARK                            x       y       z     vdW  Elec       q    Type
REMARK                         _______ _______ _______ _____ _____    ______ ____
ROOT
ATOM      1  C   UNL     1       7.614   4.652  18.105  0.00  0.00    +0.000 C 
ATOM      2  C   UNL     1       6.387   4.998  17.267  0.00  0.00    +0.000 C 
ATOM      3  C   UNL     1       5.175   4.153  17.610  0.00  0.00    +0.000 C 
ATOM      4  C   UNL     1       4.528   5.042  18.618  0.00  0.00    +0.000 C 
ATOM      5  N   UNL     1       4.947   6.268  18.568  0.00  0.00    +0.000 NA
ATOM      6  O   UNL     1       5.957   6.339  17.566  0.00  0.00    +0.000 OA
ENDROOT
BRANCH   4   7
ATOM      7  C   UNL     1       3.475   4.564  19.563  0.00  0.00    +0.000 A 
ATOM      8  C   UNL     1       3.540   3.257  20.095  0.00  0.00    +0.000 A 
ATOM      9 CL   UNL     1       4.704   2.073  19.603  0.00  0.00    +0.000 Cl
ATOM     10  C   UNL     1       2.593   2.812  21.034  0.00  0.00    +0.000 A 
ATOM     11  C   UNL     1       1.559   3.642  21.447  0.00  0.00    +0.000 A 
ATOM     12  C   UNL     1       1.465   4.921  20.914  0.00  0.00    +0.000 A 
ATOM     13  C   UNL     1       2.411   5.385  19.986  0.00  0.00    +0.000 A 
ATOM     14 CL   UNL     1       2.158   7.018  19.478  0.00  0.00    +0.000 Cl
ENDBRANCH   4   7
BRANCH   2  15
ATOM     15  C   UNL     1       6.706   4.899  15.810  0.00  0.00    +0.000 A 
ATOM     16  N   UNL     1       7.585   5.602  15.122  0.00  0.00    +0.000 NA
ATOM     17  N   UNL     1       7.504   5.165  13.819  0.00  0.00    +0.000 NA
ATOM     18  C   UNL     1       6.575   4.231  13.791  0.00  0.00    +0.000 A 
ATOM     19  O   UNL     1       6.011   4.014  15.024  0.00  0.00    +0.000 OA
BRANCH  18  20
ATOM     20  C   UNL     1       6.098   3.441  12.666  0.00  0.00    +0.000 A 
ATOM     21  C   UNL     1       6.982   2.575  12.008  0.00  0.00    +0.000 A 
ATOM     22  C   UNL     1       6.510   1.824  10.944  0.00  0.00    +0.000 A 
ATOM     23  N   UNL     1       5.239   1.882  10.494  0.00  0.00    +0.000 NA
ATOM     24  C   UNL     1       4.403   2.723  11.138  0.00  0.00    +0.000 A 
ATOM     25  C   UNL     1       4.779   3.515  12.211  0.00  0.00    +0.000 A 
ENDBRANCH  18  20
ENDBRANCH   2  15
TORSDOF 3
ENDMDL
