MODEL 1
REMARK VINA RESULT:      -7.4      0.000      0.000
REMARK  Name = 
REMARK  5 active torsions:
REMARK  status: ('A' for Active; 'I' for Inactive)
REMARK    1  A    between atoms: C_1  and  O_2
REMARK    2  A    between atoms: O_2  and  C_3
REMARK    3  A    between atoms: N_6  and  N_7
REMARK    4  A    between atoms: C_8  and  C_9
REMARK    5  A    between atoms: C_12  and  C_13
REMARK                            x       y       z     vdW  Elec       q    Type
REMARK                         _______ _______ _______ _____ _____    ______ ____
ROOT
ATOM      1  C   UNL     1      -2.856  10.099  16.667  0.00  0.00    +0.000 A 
ATOM      2  N   UNL     1      -1.563  10.064  16.934  0.00  0.00    +0.000 NA
ATOM      3  C   UNL     1      -1.199  10.750  18.007  0.00  0.00    +0.000 A 
ATOM      4  N   UNL     1       0.159  10.768  18.394  0.00  0.00    +0.000 N 
ATOM      5  N   UNL     1      -2.045  11.443  18.767  0.00  0.00    +0.000 NA
ATOM      6  C   UNL     1      -3.338  11.380  18.445  0.00  0.00    +0.000 A 
ATOM      7  N   UNL     1      -4.255  11.976  19.281  0.00  0.00    +0.000 N 
ATOM      8  C   UNL     1      -3.859  13.077  20.146  0.00  0.00    +0.000 C 
ATOM      9  C   UNL     1      -4.505  12.877  21.517  0.00  0.00    +0.000 C 
ATOM     10  C   UNL     1      -6.018  12.668  21.411  0.00  0.00    +0.000 C 
ATOM     11  C   UNL     1      -6.367  11.578  20.394  0.00  0.00    +0.000 C 
ATOM     12  C   UNL     1      -5.685  11.821  19.046  0.00  0.00    +0.000 C 
ATOM     13  N   UNL     1      -3.780  10.717  17.386  0.00  0.00    +0.000 NA
ATOM     14  H   UNL     1       0.209  11.179  19.323  0.00  0.00    +0.000 HD
ENDROOT
BRANCH   1  16
ATOM     15  C   UNL     1      -3.451  10.339  14.423  0.00  0.00    +0.000 C 
ATOM     16  O   UNL     1      -3.335   9.463  15.539  0.00  0.00    +0.000 OA
ENDBRANCH   1  16
BRANCH   4  17
ATOM     17  N   UNL     1       0.900   9.659  18.104  0.00  0.00    +0.000 NA
ATOM     18  C   UNL     1       1.427   9.056  19.123  0.00  0.00    +0.000 C 
BRANCH  18  19
ATOM     19  C   UNL     1       2.241   7.834  18.950  0.00  0.00    +0.000 A 
ATOM     20  C   UNL     1       3.055   7.676  17.824  0.00  0.00    +0.000 A 
ATOM     21  C   UNL     1       3.822   6.519  17.675  0.00  0.00    +0.000 A 
ATOM     22  C   UNL     1       3.783   5.511  18.645  0.00  0.00    +0.000 A 
ATOM     23  C   UNL     1       4.609   4.266  18.493  0.00  0.00    +0.000 C 
ATOM     24  C   UNL     1       2.962   5.677  19.770  0.00  0.00    +0.000 A 
ATOM     25  C   UNL     1       2.191   6.834  19.923  0.00  0.00    +0.000 A 
ENDBRANCH  18  19
ENDBRANCH   4  17
TORSDOF 3
ENDMDL
MODEL 2
REMARK VINA RESULT:      -7.4      2.875      9.297
REMARK  Name = 
REMARK  5 active torsions:
REMARK  status: ('A' for Active; 'I' for Inactive)
REMARK    1  A    between atoms: C_1  and  O_2
REMARK    2  A    between atoms: O_2  and  C_3
REMARK    3  A    between atoms: N_6  and  N_7
REMARK    4  A    between atoms: C_8  and  C_9
REMARK    5  A    between atoms: C_12  and  C_13
REMARK                            x       y       z     vdW  Elec       q    Type
REMARK                         _______ _______ _______ _____ _____    ______ ____
ROOT
ATOM      1  C   UNL     1       2.237   6.052  19.992  0.00  0.00    +0.000 A 
ATOM      2  N   UNL     1       1.799   7.285  19.813  0.00  0.00    +0.000 NA
ATOM      3  C   UNL     1       2.374   7.938  18.814  0.00  0.00    +0.000 A 
ATOM      4  N   UNL     1       1.970   9.260  18.523  0.00  0.00    +0.000 N 
ATOM      5  N   UNL     1       3.330   7.423  18.043  0.00  0.00    +0.000 NA
ATOM      6  C   UNL     1       3.673   6.155  18.271  0.00  0.00    +0.000 A 
ATOM      7  N   UNL     1       4.564   5.548  17.413  0.00  0.00    +0.000 N 
ATOM      8  C   UNL     1       5.512   6.345  16.650  0.00  0.00    +0.000 C 
ATOM      9  C   UNL     1       5.583   5.790  15.228  0.00  0.00    +0.000 C 
ATOM     10  C   UNL     1       5.867   4.284  15.216  0.00  0.00    +0.000 C 
ATOM     11  C   UNL     1       4.907   3.523  16.134  0.00  0.00    +0.000 C 
ATOM     12  C   UNL     1       4.866   4.129  17.539  0.00  0.00    +0.000 C 
ATOM     13  N   UNL     1       3.146   5.436  19.252  0.00  0.00    +0.000 NA
ATOM     14  H   UNL     1       2.379   9.517  17.628  0.00  0.00    +0.000 HD
ENDROOT
BRANCH   1  16
ATOM     15  C   UNL     1       1.289   4.017  20.629  0.00  0.00    +0.000 C 
ATOM     16  O   UNL     1       1.745   5.301  21.041  0.00  0.00    +0.000 OA
ENDBRANCH   1  16
BRANCH   4  17
ATOM     17  N   UNL     1       0.671   9.584  18.791  0.00  0.00    +0.000 NA
ATOM     18  C   UNL     1       0.014  10.119  17.811  0.00  0.00    +0.000 C 
BRANCH  18  19
ATOM     19  C   UNL     1      -1.405  10.503  17.964  0.00  0.00    +0.000 A 
ATOM     20  C   UNL     1      -2.396   9.879  17.199  0.00  0.00    +0.000 A 
ATOM     21  C   UNL     1      -3.734  10.248  17.356  0.00  0.00    +0.000 A 
ATOM     22  C   UNL     1      -4.094  11.239  18.275  0.00  0.00    +0.000 A 
ATOM     23  C   UNL     1      -5.531  11.638  18.452  0.00  0.00    +0.000 C 
ATOM     24  C   UNL     1      -3.094  11.861  19.037  0.00  0.00    +0.000 A 
ATOM     25  C   UNL     1      -1.752  11.497  18.882  0.00  0.00    +0.000 A 
ENDBRANCH  18  19
ENDBRANCH   4  17
TORSDOF 3
ENDMDL
MODEL 3
REMARK VINA RESULT:      -7.3      2.882      9.364
REMARK  Name = 
REMARK  5 active torsions:
REMARK  status: ('A' for Active; 'I' for Inactive)
REMARK    1  A    between atoms: C_1  and  O_2
REMARK    2  A    between atoms: O_2  and  C_3
REMARK    3  A    between atoms: N_6  and  N_7
REMARK    4  A    between atoms: C_8  and  C_9
REMARK    5  A    between atoms: C_12  and  C_13
REMARK                            x       y       z     vdW  Elec       q    Type
REMARK                         _______ _______ _______ _____ _____    ______ ____
ROOT
ATOM      1  C   UNL     1       2.300   6.069  19.996  0.00  0.00    +0.000 A 
ATOM      2  N   UNL     1       1.833   7.287  19.792  0.00  0.00    +0.000 NA
ATOM      3  C   UNL     1       2.372   7.922  18.761  0.00  0.00    +0.000 A 
ATOM      4  N   UNL     1       1.934   9.226  18.442  0.00  0.00    +0.000 N 
ATOM      5  N   UNL     1       3.321   7.404  17.984  0.00  0.00    +0.000 NA
ATOM      6  C   UNL     1       3.695   6.150  18.240  0.00  0.00    +0.000 A 
ATOM      7  N   UNL     1       4.579   5.537  17.380  0.00  0.00    +0.000 N 
ATOM      8  C   UNL     1       5.493   6.329  16.573  0.00  0.00    +0.000 C 
ATOM      9  C   UNL     1       5.544   5.734  15.165  0.00  0.00    +0.000 C 
ATOM     10  C   UNL     1       5.858   4.235  15.191  0.00  0.00    +0.000 C 
ATOM     11  C   UNL     1       4.935   3.482  16.152  0.00  0.00    +0.000 C 
ATOM     12  C   UNL     1       4.913   4.128  17.539  0.00  0.00    +0.000 C 
ATOM     13  N   UNL     1       3.205   5.449  19.253  0.00  0.00    +0.000 NA
ATOM     14  H   UNL     1       2.318   9.465  17.531  0.00  0.00    +0.000 HD
ENDROOT
BRANCH   1  16
ATOM     15  C   UNL     1       2.041   3.938  20.913  0.00  0.00    +0.000 C 
ATOM     16  O   UNL     1       1.848   5.339  21.077  0.00  0.00    +0.000 OA
ENDBRANCH   1  16
BRANCH   4  17
ATOM     17  N   UNL     1       0.636   9.532  18.731  0.00  0.00    +0.000 NA
ATOM     18  C   UNL     1      -0.007  10.172  17.806  0.00  0.00    +0.000 C 
BRANCH  18  19
ATOM     19  C   UNL     1      -1.425  10.551  17.985  0.00  0.00    +0.000 A 
ATOM     20  C   UNL     1      -1.782  11.568  18.874  0.00  0.00    +0.000 A 
ATOM     21  C   UNL     1      -3.124  11.920  19.031  0.00  0.00    +0.000 A 
ATOM     22  C   UNL     1      -4.120  11.260  18.302  0.00  0.00    +0.000 A 
ATOM     23  C   UNL     1      -5.566  11.635  18.461  0.00  0.00    +0.000 C 
ATOM     24  C   UNL     1      -3.754  10.240  17.412  0.00  0.00    +0.000 A 
ATOM     25  C   UNL     1      -2.410   9.883  17.254  0.00  0.00    +0.000 A 
ENDBRANCH  18  19
ENDBRANCH   4  17
TORSDOF 3
ENDMDL
MODEL 4
REMARK VINA RESULT:      -7.3      1.202      1.541
REMARK  Name = 
REMARK  5 active torsions:
REMARK  status: ('A' for Active; 'I' for Inactive)
REMARK    1  A    between atoms: C_1  and  O_2
REMARK    2  A    between atoms: O_2  and  C_3
REMARK    3  A    between atoms: N_6  and  N_7
REMARK    4  A    between atoms: C_8  and  C_9
REMARK    5  A    between atoms: C_12  and  C_13
REMARK                            x       y       z     vdW  Elec       q    Type
REMARK                         _______ _______ _______ _____ _____    ______ ____
ROOT
ATOM      1  C   UNL     1      -3.712  11.243  16.908  0.00  0.00    +0.000 A 
ATOM      2  N   UNL     1      -2.452  11.321  17.294  0.00  0.00    +0.000 NA
ATOM      3  C   UNL     1      -2.274  11.791  18.520  0.00  0.00    +0.000 A 
ATOM      4  N   UNL     1      -0.966  11.901  19.040  0.00  0.00    +0.000 N 
ATOM      5  N   UNL     1      -3.268  12.175  19.319  0.00  0.00    +0.000 NA
ATOM      6  C   UNL     1      -4.510  12.015  18.859  0.00  0.00    +0.000 A 
ATOM      7  N   UNL     1      -5.565  12.280  19.704  0.00  0.00    +0.000 N 
ATOM      8  C   UNL     1      -5.404  13.200  20.818  0.00  0.00    +0.000 C 
ATOM      9  C   UNL     1      -6.107  12.613  22.042  0.00  0.00    +0.000 C 
ATOM     10  C   UNL     1      -7.560  12.234  21.738  0.00  0.00    +0.000 C 
ATOM     11  C   UNL     1      -7.664  11.364  20.483  0.00  0.00    +0.000 C 
ATOM     12  C   UNL     1      -6.933  11.993  19.295  0.00  0.00    +0.000 C 
ATOM     13  N   UNL     1      -4.769  11.554  17.643  0.00  0.00    +0.000 NA
ATOM     14  H   UNL     1      -1.046  12.096  20.035  0.00  0.00    +0.000 HD
ENDROOT
BRANCH   1  16
ATOM     15  C   UNL     1      -2.906  10.178  14.995  0.00  0.00    +0.000 C 
ATOM     16  O   UNL     1      -4.008  10.820  15.629  0.00  0.00    +0.000 OA
ENDBRANCH   1  16
BRANCH   4  17
ATOM     17  N   UNL     1      -0.045  10.995  18.599  0.00  0.00    +0.000 NA
ATOM     18  C   UNL     1       0.294  10.082  19.453  0.00  0.00    +0.000 C 
BRANCH  18  19
ATOM     19  C   UNL     1       1.271   9.030  19.098  0.00  0.00    +0.000 A 
ATOM     20  C   UNL     1       1.914   9.047  17.858  0.00  0.00    +0.000 A 
ATOM     21  C   UNL     1       2.838   8.051  17.536  0.00  0.00    +0.000 A 
ATOM     22  C   UNL     1       3.126   7.030  18.449  0.00  0.00    +0.000 A 
ATOM     23  C   UNL     1       4.122   5.957  18.112  0.00  0.00    +0.000 C 
ATOM     24  C   UNL     1       2.475   7.019  19.691  0.00  0.00    +0.000 A 
ATOM     25  C   UNL     1       1.548   8.014  20.016  0.00  0.00    +0.000 A 
ENDBRANCH  18  19
ENDBRANCH   4  17
TORSDOF 3
ENDMDL
MODEL 5
REMARK VINA RESULT:      -7.2      1.772      2.582
REMARK  Name = 
REMARK  5 active torsions:
REMARK  status: ('A' for Active; 'I' for Inactive)
REMARK    1  A    between atoms: C_1  and  O_2
REMARK    2  A    between atoms: O_2  and  C_3
REMARK    3  A    between atoms: N_6  and  N_7
REMARK    4  A    between atoms: C_8  and  C_9
REMARK    5  A    between atoms: C_12  and  C_13
REMARK                            x       y       z     vdW  Elec       q    Type
REMARK                         _______ _______ _______ _____ _____    ______ ____
ROOT
ATOM      1  C   UNL     1      -1.753  10.190  17.776  0.00  0.00    +0.000 A 
ATOM      2  N   UNL     1      -0.526   9.712  17.680  0.00  0.00    +0.000 NA
ATOM      3  C   UNL     1       0.335  10.212  18.555  0.00  0.00    +0.000 A 
ATOM      4  N   UNL     1       1.672   9.759  18.553  0.00  0.00    +0.000 N 
ATOM      5  N   UNL     1       0.019  11.134  19.462  0.00  0.00    +0.000 NA
ATOM      6  C   UNL     1      -1.256  11.521  19.512  0.00  0.00    +0.000 A 
ATOM      7  N   UNL     1      -1.646  12.376  20.519  0.00  0.00    +0.000 N 
ATOM      8  C   UNL     1      -0.680  13.258  21.154  0.00  0.00    +0.000 C 
ATOM      9  C   UNL     1      -0.936  13.261  22.661  0.00  0.00    +0.000 C 
ATOM     10  C   UNL     1      -2.398  13.581  22.990  0.00  0.00    +0.000 C 
ATOM     11  C   UNL     1      -3.361  12.695  22.197  0.00  0.00    +0.000 C 
ATOM     12  C   UNL     1      -3.051  12.720  20.698  0.00  0.00    +0.000 C 
ATOM     13  N   UNL     1      -2.175  11.069  18.671  0.00  0.00    +0.000 NA
ATOM     14  H   UNL     1       2.118  10.109  19.396  0.00  0.00    +0.000 HD
ENDROOT
BRANCH   1  16
ATOM     15  C   UNL     1      -2.682  10.517  15.660  0.00  0.00    +0.000 C 
ATOM     16  O   UNL     1      -2.715   9.778  16.876  0.00  0.00    +0.000 OA
ENDBRANCH   1  16
BRANCH   4  17
ATOM     17  N   UNL     1       1.889   8.470  18.158  0.00  0.00    +0.000 NA
ATOM     18  C   UNL     1       2.273   7.656  19.090  0.00  0.00    +0.000 C 
BRANCH  18  19
ATOM     19  C   UNL     1       2.527   6.229  18.800  0.00  0.00    +0.000 A 
ATOM     20  C   UNL     1       1.952   5.230  19.590  0.00  0.00    +0.000 A 
ATOM     21  C   UNL     1       2.196   3.885  19.304  0.00  0.00    +0.000 A 
ATOM     22  C   UNL     1       3.016   3.527  18.228  0.00  0.00    +0.000 A 
ATOM     23  C   UNL     1       3.280   2.083  17.910  0.00  0.00    +0.000 C 
ATOM     24  C   UNL     1       3.591   4.536  17.441  0.00  0.00    +0.000 A 
ATOM     25  C   UNL     1       3.350   5.884  17.725  0.00  0.00    +0.000 A 
ENDBRANCH  18  19
ENDBRANCH   4  17
TORSDOF 3
ENDMDL
MODEL 6
REMARK VINA RESULT:      -7.2      3.564      9.494
REMARK  Name = 
REMARK  5 active torsions:
REMARK  status: ('A' for Active; 'I' for Inactive)
REMARK    1  A    between atoms: C_1  and  O_2
REMARK    2  A    between atoms: O_2  and  C_3
REMARK    3  A    between atoms: N_6  and  N_7
REMARK    4  A    between atoms: C_8  and  C_9
REMARK    5  A    between atoms: C_12  and  C_13
REMARK                            x       y       z     vdW  Elec       q    Type
REMARK                         _______ _______ _______ _____ _____    ______ ____
ROOT
ATOM      1  C   UNL     1       1.823   4.439  18.157  0.00  0.00    +0.000 A 
ATOM      2  N   UNL     1       1.686   5.463  18.980  0.00  0.00    +0.000 NA
ATOM      3  C   UNL     1       2.783   6.186  19.153  0.00  0.00    +0.000 A 
ATOM      4  N   UNL     1       2.746   7.315  20.001  0.00  0.00    +0.000 N 
ATOM      5  N   UNL     1       3.949   5.918  18.567  0.00  0.00    +0.000 NA
ATOM      6  C   UNL     1       3.976   4.891  17.716  0.00  0.00    +0.000 A 
ATOM      7  N   UNL     1       5.127   4.664  16.995  0.00  0.00    +0.000 N 
ATOM      8  C   UNL     1       6.414   5.120  17.497  0.00  0.00    +0.000 C 
ATOM      9  C   UNL     1       7.210   5.711  16.333  0.00  0.00    +0.000 C 
ATOM     10  C   UNL     1       7.298   4.742  15.150  0.00  0.00    +0.000 C 
ATOM     11  C   UNL     1       5.918   4.210  14.754  0.00  0.00    +0.000 C 
ATOM     12  C   UNL     1       5.162   3.642  15.958  0.00  0.00    +0.000 C 
ATOM     13  N   UNL     1       2.922   4.120  17.492  0.00  0.00    +0.000 NA
ATOM     14  H   UNL     1       3.608   7.835  19.859  0.00  0.00    +0.000 HD
ENDROOT
BRANCH   1  16
ATOM     15  C   UNL     1       0.765   2.472  18.833  0.00  0.00    +0.000 C 
ATOM     16  O   UNL     1       0.757   3.587  17.949  0.00  0.00    +0.000 OA
ENDBRANCH   1  16
BRANCH   4  17
ATOM     17  N   UNL     1       1.559   7.983  20.092  0.00  0.00    +0.000 NA
ATOM     18  C   UNL     1       1.529   9.149  19.528  0.00  0.00    +0.000 C 
BRANCH  18  19
ATOM     19  C   UNL     1       0.300   9.970  19.539  0.00  0.00    +0.000 A 
ATOM     20  C   UNL     1      -0.546   9.999  18.426  0.00  0.00    +0.000 A 
ATOM     21  C   UNL     1      -1.706  10.775  18.451  0.00  0.00    +0.000 A 
ATOM     22  C   UNL     1      -2.032  11.529  19.584  0.00  0.00    +0.000 A 
ATOM     23  C   UNL     1      -3.280  12.363  19.620  0.00  0.00    +0.000 C 
ATOM     24  C   UNL     1      -1.177  11.496  20.695  0.00  0.00    +0.000 A 
ATOM     25  C   UNL     1      -0.012  10.721  20.674  0.00  0.00    +0.000 A 
ENDBRANCH  18  19
ENDBRANCH   4  17
TORSDOF 3
ENDMDL
MODEL 7
REMARK VINA RESULT:      -7.2      1.209      1.579
REMARK  Name = 
REMARK  5 active torsions:
REMARK  status: ('A' for Active; 'I' for Inactive)
REMARK    1  A    between atoms: C_1  and  O_2
REMARK    2  A    between atoms: O_2  and  C_3
REMARK    3  A    between atoms: N_6  and  N_7
REMARK    4  A    between atoms: C_8  and  C_9
REMARK    5  A    between atoms: C_12  and  C_13
REMARK                            x       y       z     vdW  Elec       q    Type
REMARK                         _______ _______ _______ _____ _____    ______ ____
ROOT
ATOM      1  C   UNL     1      -2.000  10.134  17.217  0.00  0.00    +0.000 A 
ATOM      2  N   UNL     1      -0.794   9.797  17.635  0.00  0.00    +0.000 NA
ATOM      3  C   UNL     1      -0.417  10.373  18.767  0.00  0.00    +0.000 A 
ATOM      4  N   UNL     1       0.850  10.071  19.313  0.00  0.00    +0.000 N 
ATOM      5  N   UNL     1      -1.168  11.239  19.445  0.00  0.00    +0.000 NA
ATOM      6  C   UNL     1      -2.391  11.481  18.970  0.00  0.00    +0.000 A 
ATOM      7  N   UNL     1      -3.243  12.268  19.712  0.00  0.00    +0.000 N 
ATOM      8  C   UNL     1      -2.714  13.241  20.655  0.00  0.00    +0.000 C 
ATOM      9  C   UNL     1      -3.552  13.188  21.933  0.00  0.00    +0.000 C 
ATOM     10  C   UNL     1      -5.048  13.337  21.640  0.00  0.00    +0.000 C 
ATOM     11  C   UNL     1      -5.510  12.365  20.552  0.00  0.00    +0.000 C 
ATOM     12  C   UNL     1      -4.629  12.451  19.303  0.00  0.00    +0.000 C 
ATOM     13  N   UNL     1      -2.839  10.945  17.843  0.00  0.00    +0.000 NA
ATOM     14  H   UNL     1       0.878  10.454  20.255  0.00  0.00    +0.000 HD
ENDROOT
BRANCH   1  16
ATOM     15  C   UNL     1      -3.081  10.634  15.210  0.00  0.00    +0.000 C 
ATOM     16  O   UNL     1      -2.470   9.635  16.020  0.00  0.00    +0.000 OA
ENDBRANCH   1  16
BRANCH   4  17
ATOM     17  N   UNL     1       1.346   8.822  19.075  0.00  0.00    +0.000 NA
ATOM     18  C   UNL     1       2.290   8.755  18.190  0.00  0.00    +0.000 C 
BRANCH  18  19
ATOM     19  C   UNL     1       2.925   7.464  17.848  0.00  0.00    +0.000 A 
ATOM     20  C   UNL     1       2.307   6.257  18.186  0.00  0.00    +0.000 A 
ATOM     21  C   UNL     1       2.915   5.044  17.853  0.00  0.00    +0.000 A 
ATOM     22  C   UNL     1       4.142   5.027  17.182  0.00  0.00    +0.000 A 
ATOM     23  C   UNL     1       4.800   3.727  16.817  0.00  0.00    +0.000 C 
ATOM     24  C   UNL     1       4.757   6.243  16.848  0.00  0.00    +0.000 A 
ATOM     25  C   UNL     1       4.152   7.460  17.181  0.00  0.00    +0.000 A 
ENDBRANCH  18  19
ENDBRANCH   4  17
TORSDOF 3
ENDMDL
MODEL 8
REMARK VINA RESULT:      -7.2      1.803      2.457
REMARK  Name = 
REMARK  5 active torsions:
REMARK  status: ('A' for Active; 'I' for Inactive)
REMARK    1  A    between atoms: C_1  and  O_2
REMARK    2  A    between atoms: O_2  and  C_3
REMARK    3  A    between atoms: N_6  and  N_7
REMARK    4  A    between atoms: C_8  and  C_9
REMARK    5  A    between atoms: C_12  and  C_13
REMARK                            x       y       z     vdW  Elec       q    Type
REMARK                         _______ _______ _______ _____ _____    ______ ____
ROOT
ATOM      1  C   UNL     1      -1.569  10.206  17.784  0.00  0.00    +0.000 A 
ATOM      2  N   UNL     1      -0.347   9.707  17.759  0.00  0.00    +0.000 NA
ATOM      3  C   UNL     1       0.464  10.177  18.696  0.00  0.00    +0.000 A 
ATOM      4  N   UNL     1       1.791   9.699  18.772  0.00  0.00    +0.000 N 
ATOM      5  N   UNL     1       0.106  11.090  19.597  0.00  0.00    +0.000 NA
ATOM      6  C   UNL     1      -1.163  11.500  19.572  0.00  0.00    +0.000 A 
ATOM      7  N   UNL     1      -1.602  12.345  20.567  0.00  0.00    +0.000 N 
ATOM      8  C   UNL     1      -0.664  13.199  21.277  0.00  0.00    +0.000 C 
ATOM      9  C   UNL     1      -1.017  13.182  22.765  0.00  0.00    +0.000 C 
ATOM     10  C   UNL     1      -2.491  13.523  23.005  0.00  0.00    +0.000 C 
ATOM     11  C   UNL     1      -3.416  12.668  22.135  0.00  0.00    +0.000 C 
ATOM     12  C   UNL     1      -3.009  12.712  20.661  0.00  0.00    +0.000 C 
ATOM     13  N   UNL     1      -2.033  11.079  18.665  0.00  0.00    +0.000 NA
ATOM     14  H   UNL     1       2.186  10.028  19.649  0.00  0.00    +0.000 HD
ENDROOT
BRANCH   1  16
ATOM     15  C   UNL     1      -2.717  10.851  15.857  0.00  0.00    +0.000 C 
ATOM     16  O   UNL     1      -2.478   9.827  16.817  0.00  0.00    +0.000 OA
ENDBRANCH   1  16
BRANCH   4  17
ATOM     17  N   UNL     1       2.010   8.414  18.369  0.00  0.00    +0.000 NA
ATOM     18  C   UNL     1       2.192   7.553  19.321  0.00  0.00    +0.000 C 
BRANCH  18  19
ATOM     19  C   UNL     1       2.424   6.124  19.023  0.00  0.00    +0.000 A 
ATOM     20  C   UNL     1       3.042   5.738  17.829  0.00  0.00    +0.000 A 
ATOM     21  C   UNL     1       3.260   4.385  17.561  0.00  0.00    +0.000 A 
ATOM     22  C   UNL     1       2.865   3.407  18.481  0.00  0.00    +0.000 A 
ATOM     23  C   UNL     1       3.100   1.950  18.202  0.00  0.00    +0.000 C 
ATOM     24  C   UNL     1       2.244   3.802  19.675  0.00  0.00    +0.000 A 
ATOM     25  C   UNL     1       2.022   5.157  19.947  0.00  0.00    +0.000 A 
ENDBRANCH  18  19
ENDBRANCH   4  17
TORSDOF 3
ENDMDL
MODEL 9
REMARK VINA RESULT:      -7.1      2.573      8.737
REMARK  Name = 
REMARK  5 active torsions:
REMARK  status: ('A' for Active; 'I' for Inactive)
REMARK    1  A    between atoms: C_1  and  O_2
REMARK    2  A    between atoms: O_2  and  C_3
REMARK    3  A    between atoms: N_6  and  N_7
REMARK    4  A    between atoms: C_8  and  C_9
REMARK    5  A    between atoms: C_12  and  C_13
REMARK                            x       y       z     vdW  Elec       q    Type
REMARK                         _______ _______ _______ _____ _____    ______ ____
ROOT
ATOM      1  C   UNL     1       1.322   8.334  20.967  0.00  0.00    +0.000 A 
ATOM      2  N   UNL     1       0.995   9.258  20.083  0.00  0.00    +0.000 NA
ATOM      3  C   UNL     1       1.438   9.032  18.855  0.00  0.00    +0.000 A 
ATOM      4  N   UNL     1       1.132   9.949  17.825  0.00  0.00    +0.000 N 
ATOM      5  N   UNL     1       2.171   7.974  18.512  0.00  0.00    +0.000 NA
ATOM      6  C   UNL     1       2.411   7.072  19.465  0.00  0.00    +0.000 A 
ATOM      7  N   UNL     1       3.053   5.903  19.119  0.00  0.00    +0.000 N 
ATOM      8  C   UNL     1       3.921   5.856  17.953  0.00  0.00    +0.000 C 
ATOM      9  C   UNL     1       3.662   4.549  17.203  0.00  0.00    +0.000 C 
ATOM     10  C   UNL     1       3.774   3.331  18.126  0.00  0.00    +0.000 C 
ATOM     11  C   UNL     1       2.927   3.502  19.390  0.00  0.00    +0.000 C 
ATOM     12  C   UNL     1       3.218   4.831  20.091  0.00  0.00    +0.000 C 
ATOM     13  N   UNL     1       2.003   7.226  20.717  0.00  0.00    +0.000 NA
ATOM     14  H   UNL     1       1.391   9.518  16.942  0.00  0.00    +0.000 HD
ENDROOT
BRANCH   1  16
ATOM     15  C   UNL     1       0.048   9.575  22.477  0.00  0.00    +0.000 C 
ATOM     16  O   UNL     1       0.958   8.497  22.288  0.00  0.00    +0.000 OA
ENDBRANCH   1  16
BRANCH   4  17
ATOM     17  N   UNL     1      -0.050  10.625  17.928  0.00  0.00    +0.000 NA
ATOM     18  C   UNL     1      -1.084  10.021  17.435  0.00  0.00    +0.000 C 
BRANCH  18  19
ATOM     19  C   UNL     1      -2.427  10.635  17.495  0.00  0.00    +0.000 A 
ATOM     20  C   UNL     1      -2.853  11.301  18.648  0.00  0.00    +0.000 A 
ATOM     21  C   UNL     1      -4.123  11.881  18.690  0.00  0.00    +0.000 A 
ATOM     22  C   UNL     1      -4.976  11.802  17.584  0.00  0.00    +0.000 A 
ATOM     23  C   UNL     1      -6.341  12.427  17.620  0.00  0.00    +0.000 C 
ATOM     24  C   UNL     1      -4.542  11.131  16.432  0.00  0.00    +0.000 A 
ATOM     25  C   UNL     1      -3.271  10.546  16.385  0.00  0.00    +0.000 A 
ENDBRANCH  18  19
ENDBRANCH   4  17
TORSDOF 3
ENDMDL
