MODEL 1
REMARK VINA RESULT:      -7.1      0.000      0.000
REMARK  Name = 
REMARK  3 active torsions:
REMARK  status: ('A' for Active; 'I' for Inactive)
REMARK    1  A    between atoms: C_1  and  N_2
REMARK    2  A    between atoms: C_4  and  C_5
REMARK    3  A    between atoms: N_7  and  C_8
REMARK                            x       y       z     vdW  Elec       q    Type
REMARK                         _______ _______ _______ _____ _____    ______ ____
ROOT
ATOM      1  C   UNL     1       7.936   7.603  17.476  0.00  0.00    +0.000 C 
ATOM      2  N   UNL     1       7.136   6.399  17.487  0.00  0.00    +0.000 N 
ATOM      3  C   UNL     1       6.475   5.873  18.571  0.00  0.00    +0.000 A 
ATOM      4  C   UNL     1       5.812   4.716  18.169  0.00  0.00    +0.000 A 
ATOM      5  C   UNL     1       6.110   4.556  16.770  0.00  0.00    +0.000 A 
ATOM      6  C   UNL     1       5.774   3.625  15.769  0.00  0.00    +0.000 A 
ATOM      7  C   UNL     1       6.274   3.829  14.483  0.00  0.00    +0.000 A 
ATOM      8  C   UNL     1       7.080   4.933  14.244  0.00  0.00    +0.000 A 
ATOM      9  N   UNL     1       7.439   5.856  15.161  0.00  0.00    +0.000 NA
ATOM     10  C   UNL     1       6.930   5.615  16.386  0.00  0.00    +0.000 A 
ENDROOT
BRANCH   4  11
ATOM     11  C   UNL     1       4.965   3.826  18.980  0.00  0.00    +0.000 C 
ATOM     12  O   UNL     1       5.444   2.995  19.745  0.00  0.00    +0.000 OA
ATOM     13  N   UNL     1       3.606   3.996  18.821  0.00  0.00    +0.000 N 
ATOM     14  H   UNL     1       3.298   4.747  18.225  0.00  0.00    +0.000 HD
BRANCH  13  15
ATOM     15  C   UNL     1       2.573   3.268  19.531  0.00  0.00    +0.000 C 
ATOM     16  C   UNL     1       2.427   3.560  21.022  0.00  0.00    +0.000 C 
ATOM     17  C   UNL     1       1.132   2.836  21.380  0.00  0.00    +0.000 C 
ATOM     18  C   UNL     1       0.271   2.871  20.114  0.00  0.00    +0.000 C 
ATOM     19  C   UNL     1       1.150   3.466  19.014  0.00  0.00    +0.000 C 
ENDBRANCH  13  15
ENDBRANCH   4  11
TORSDOF 2
ENDMDL
MODEL 2
REMARK VINA RESULT:      -7.0      2.276      6.343
REMARK  Name = 
REMARK  3 active torsions:
REMARK  status: ('A' for Active; 'I' for Inactive)
REMARK    1  A    between atoms: C_1  and  N_2
REMARK    2  A    between atoms: C_4  and  C_5
REMARK    3  A    between atoms: N_7  and  C_8
REMARK                            x       y       z     vdW  Elec       q    Type
REMARK                         _______ _______ _______ _____ _____    ______ ____
ROOT
ATOM      1  C   UNL     1       2.608   3.448  20.379  0.00  0.00    +0.000 C 
ATOM      2  N   UNL     1       3.377   4.093  19.338  0.00  0.00    +0.000 N 
ATOM      3  C   UNL     1       4.371   3.514  18.585  0.00  0.00    +0.000 A 
ATOM      4  C   UNL     1       4.855   4.459  17.685  0.00  0.00    +0.000 A 
ATOM      5  C   UNL     1       4.103   5.662  17.934  0.00  0.00    +0.000 A 
ATOM      6  C   UNL     1       4.081   6.963  17.398  0.00  0.00    +0.000 A 
ATOM      7  C   UNL     1       3.167   7.877  17.921  0.00  0.00    +0.000 A 
ATOM      8  C   UNL     1       2.323   7.470  18.945  0.00  0.00    +0.000 A 
ATOM      9  N   UNL     1       2.301   6.240  19.501  0.00  0.00    +0.000 NA
ATOM     10  C   UNL     1       3.201   5.395  18.960  0.00  0.00    +0.000 A 
ENDROOT
BRANCH   4  11
ATOM     11  C   UNL     1       5.910   4.293  16.672  0.00  0.00    +0.000 C 
ATOM     12  O   UNL     1       7.099   4.275  16.971  0.00  0.00    +0.000 OA
ATOM     13  N   UNL     1       5.465   4.153  15.374  0.00  0.00    +0.000 N 
ATOM     14  H   UNL     1       4.470   4.109  15.225  0.00  0.00    +0.000 HD
BRANCH  13  15
ATOM     15  C   UNL     1       6.303   3.941  14.210  0.00  0.00    +0.000 C 
ATOM     16  C   UNL     1       5.598   3.515  12.925  0.00  0.00    +0.000 C 
ATOM     17  C   UNL     1       6.708   3.625  11.882  0.00  0.00    +0.000 C 
ATOM     18  C   UNL     1       7.627   4.749  12.369  0.00  0.00    +0.000 C 
ATOM     19  C   UNL     1       7.120   5.147  13.756  0.00  0.00    +0.000 C 
ENDBRANCH  13  15
ENDBRANCH   4  11
TORSDOF 2
ENDMDL
MODEL 3
REMARK VINA RESULT:      -7.0      0.426      1.026
REMARK  Name = 
REMARK  3 active torsions:
REMARK  status: ('A' for Active; 'I' for Inactive)
REMARK    1  A    between atoms: C_1  and  N_2
REMARK    2  A    between atoms: C_4  and  C_5
REMARK    3  A    between atoms: N_7  and  C_8
REMARK                            x       y       z     vdW  Elec       q    Type
REMARK                         _______ _______ _______ _____ _____    ______ ____
ROOT
ATOM      1  C   UNL     1       8.015   7.620  17.556  0.00  0.00    +0.000 C 
ATOM      2  N   UNL     1       7.113   6.490  17.553  0.00  0.00    +0.000 N 
ATOM      3  C   UNL     1       6.333   6.071  18.604  0.00  0.00    +0.000 A 
ATOM      4  C   UNL     1       5.601   4.958  18.199  0.00  0.00    +0.000 A 
ATOM      5  C   UNL     1       5.982   4.711  16.833  0.00  0.00    +0.000 A 
ATOM      6  C   UNL     1       5.637   3.768  15.846  0.00  0.00    +0.000 A 
ATOM      7  C   UNL     1       6.242   3.871  14.594  0.00  0.00    +0.000 A 
ATOM      8  C   UNL     1       7.157   4.891  14.373  0.00  0.00    +0.000 A 
ATOM      9  N   UNL     1       7.531   5.820  15.279  0.00  0.00    +0.000 NA
ATOM     10  C   UNL     1       6.917   5.678  16.471  0.00  0.00    +0.000 A 
ENDROOT
BRANCH   4  11
ATOM     11  C   UNL     1       4.624   4.180  18.978  0.00  0.00    +0.000 C 
ATOM     12  O   UNL     1       4.919   3.113  19.507  0.00  0.00    +0.000 OA
ATOM     13  N   UNL     1       3.366   4.735  19.072  0.00  0.00    +0.000 N 
ATOM     14  H   UNL     1       3.228   5.647  18.667  0.00  0.00    +0.000 HD
BRANCH  13  15
ATOM     15  C   UNL     1       2.248   4.181  19.810  0.00  0.00    +0.000 C 
ATOM     16  C   UNL     1       1.480   3.044  19.141  0.00  0.00    +0.000 C 
ATOM     17  C   UNL     1       0.567   2.552  20.261  0.00  0.00    +0.000 C 
ATOM     18  C   UNL     1       1.328   2.812  21.565  0.00  0.00    +0.000 C 
ATOM     19  C   UNL     1       2.584   3.593  21.178  0.00  0.00    +0.000 C 
ENDBRANCH  13  15
ENDBRANCH   4  11
TORSDOF 2
ENDMDL
MODEL 4
REMARK VINA RESULT:      -6.7      1.184      1.184
REMARK  Name = 
REMARK  3 active torsions:
REMARK  status: ('A' for Active; 'I' for Inactive)
REMARK    1  A    between atoms: C_1  and  N_2
REMARK    2  A    between atoms: C_4  and  C_5
REMARK    3  A    between atoms: N_7  and  C_8
REMARK                            x       y       z     vdW  Elec       q    Type
REMARK                         _______ _______ _______ _____ _____    ______ ____
ROOT
ATOM      1  C   UNL     1       7.923   7.760  17.305  0.00  0.00    +0.000 C 
ATOM      2  N   UNL     1       6.863   6.779  17.250  0.00  0.00    +0.000 N 
ATOM      3  C   UNL     1       5.841   6.636  18.158  0.00  0.00    +0.000 A 
ATOM      4  C   UNL     1       5.023   5.587  17.745  0.00  0.00    +0.000 A 
ATOM      5  C   UNL     1       5.608   5.086  16.529  0.00  0.00    +0.000 A 
ATOM      6  C   UNL     1       5.302   4.062  15.613  0.00  0.00    +0.000 A 
ATOM      7  C   UNL     1       6.140   3.889  14.512  0.00  0.00    +0.000 A 
ATOM      8  C   UNL     1       7.236   4.727  14.366  0.00  0.00    +0.000 A 
ATOM      9  N   UNL     1       7.583   5.721  15.211  0.00  0.00    +0.000 NA
ATOM     10  C   UNL     1       6.741   5.848  16.256  0.00  0.00    +0.000 A 
ENDROOT
BRANCH   4  11
ATOM     11  C   UNL     1       3.801   5.079  18.391  0.00  0.00    +0.000 C 
ATOM     12  O   UNL     1       2.766   5.736  18.428  0.00  0.00    +0.000 OA
ATOM     13  N   UNL     1       3.904   3.819  18.941  0.00  0.00    +0.000 N 
ATOM     14  H   UNL     1       4.769   3.321  18.805  0.00  0.00    +0.000 HD
BRANCH  13  15
ATOM     15  C   UNL     1       2.835   3.092  19.596  0.00  0.00    +0.000 C 
ATOM     16  C   UNL     1       2.313   3.672  20.909  0.00  0.00    +0.000 C 
ATOM     17  C   UNL     1       1.073   2.824  21.179  0.00  0.00    +0.000 C 
ATOM     18  C   UNL     1       0.530   2.427  19.803  0.00  0.00    +0.000 C 
ATOM     19  C   UNL     1       1.558   2.915  18.781  0.00  0.00    +0.000 C 
ENDBRANCH  13  15
ENDBRANCH   4  11
TORSDOF 2
ENDMDL
MODEL 5
REMARK VINA RESULT:      -6.6      4.381      6.162
REMARK  Name = 
REMARK  3 active torsions:
REMARK  status: ('A' for Active; 'I' for Inactive)
REMARK    1  A    between atoms: C_1  and  N_2
REMARK    2  A    between atoms: C_4  and  C_5
REMARK    3  A    between atoms: N_7  and  C_8
REMARK                            x       y       z     vdW  Elec       q    Type
REMARK                         _______ _______ _______ _____ _____    ______ ____
ROOT
ATOM      1  C   UNL     1       5.451   4.029  18.482  0.00  0.00    +0.000 C 
ATOM      2  N   UNL     1       4.284   4.726  18.973  0.00  0.00    +0.000 N 
ATOM      3  C   UNL     1       4.070   6.083  18.930  0.00  0.00    +0.000 A 
ATOM      4  C   UNL     1       2.825   6.356  19.491  0.00  0.00    +0.000 A 
ATOM      5  C   UNL     1       2.285   5.082  19.890  0.00  0.00    +0.000 A 
ATOM      6  C   UNL     1       1.098   4.640  20.505  0.00  0.00    +0.000 A 
ATOM      7  C   UNL     1       0.938   3.273  20.723  0.00  0.00    +0.000 A 
ATOM      8  C   UNL     1       1.950   2.408  20.332  0.00  0.00    +0.000 A 
ATOM      9  N   UNL     1       3.109   2.771  19.744  0.00  0.00    +0.000 NA
ATOM     10  C   UNL     1       3.215   4.101  19.553  0.00  0.00    +0.000 A 
ENDROOT
BRANCH   4  11
ATOM     11  C   UNL     1       2.166   7.663  19.649  0.00  0.00    +0.000 C 
ATOM     12  O   UNL     1       2.012   8.429  18.704  0.00  0.00    +0.000 OA
ATOM     13  N   UNL     1       1.732   7.956  20.924  0.00  0.00    +0.000 N 
ATOM     14  H   UNL     1       1.837   7.242  21.627  0.00  0.00    +0.000 HD
BRANCH  13  15
ATOM     15  C   UNL     1       1.028   9.158  21.324  0.00  0.00    +0.000 C 
ATOM     16  C   UNL     1      -0.238   9.504  20.543  0.00  0.00    +0.000 C 
ATOM     17  C   UNL     1      -0.836  10.644  21.364  0.00  0.00    +0.000 C 
ATOM     18  C   UNL     1      -0.417  10.380  22.813  0.00  0.00    +0.000 C 
ATOM     19  C   UNL     1       0.544   9.191  22.771  0.00  0.00    +0.000 C 
ENDBRANCH  13  15
ENDBRANCH   4  11
TORSDOF 2
ENDMDL
MODEL 6
REMARK VINA RESULT:      -6.6      2.163      6.295
REMARK  Name = 
REMARK  3 active torsions:
REMARK  status: ('A' for Active; 'I' for Inactive)
REMARK    1  A    between atoms: C_1  and  N_2
REMARK    2  A    between atoms: C_4  and  C_5
REMARK    3  A    between atoms: N_7  and  C_8
REMARK                            x       y       z     vdW  Elec       q    Type
REMARK                         _______ _______ _______ _____ _____    ______ ____
ROOT
ATOM      1  C   UNL     1       2.406   7.761  18.855  0.00  0.00    +0.000 C 
ATOM      2  N   UNL     1       3.201   6.611  18.486  0.00  0.00    +0.000 N 
ATOM      3  C   UNL     1       4.108   6.548  17.455  0.00  0.00    +0.000 A 
ATOM      4  C   UNL     1       4.672   5.275  17.436  0.00  0.00    +0.000 A 
ATOM      5  C   UNL     1       4.051   4.553  18.516  0.00  0.00    +0.000 A 
ATOM      6  C   UNL     1       4.152   3.252  19.046  0.00  0.00    +0.000 A 
ATOM      7  C   UNL     1       3.359   2.924  20.145  0.00  0.00    +0.000 A 
ATOM      8  C   UNL     1       2.505   3.886  20.667  0.00  0.00    +0.000 A 
ATOM      9  N   UNL     1       2.362   5.144  20.200  0.00  0.00    +0.000 NA
ATOM     10  C   UNL     1       3.150   5.412  19.140  0.00  0.00    +0.000 A 
ENDROOT
BRANCH   4  11
ATOM     11  C   UNL     1       5.698   4.748  16.521  0.00  0.00    +0.000 C 
ATOM     12  O   UNL     1       6.828   4.470  16.907  0.00  0.00    +0.000 OA
ATOM     13  N   UNL     1       5.296   4.587  15.212  0.00  0.00    +0.000 N 
ATOM     14  H   UNL     1       4.331   4.774  14.995  0.00  0.00    +0.000 HD
BRANCH  13  15
ATOM     15  C   UNL     1       6.110   4.056  14.136  0.00  0.00    +0.000 C 
ATOM     16  C   UNL     1       5.367   3.472  12.937  0.00  0.00    +0.000 C 
ATOM     17  C   UNL     1       6.488   3.246  11.926  0.00  0.00    +0.000 C 
ATOM     18  C   UNL     1       7.534   4.327  12.214  0.00  0.00    +0.000 C 
ATOM     19  C   UNL     1       7.070   5.045  13.482  0.00  0.00    +0.000 C 
ENDBRANCH  13  15
ENDBRANCH   4  11
TORSDOF 2
ENDMDL
MODEL 7
REMARK VINA RESULT:      -6.6      2.031      6.346
REMARK  Name = 
REMARK  3 active torsions:
REMARK  status: ('A' for Active; 'I' for Inactive)
REMARK    1  A    between atoms: C_1  and  N_2
REMARK    2  A    between atoms: C_4  and  C_5
REMARK    3  A    between atoms: N_7  and  C_8
REMARK                            x       y       z     vdW  Elec       q    Type
REMARK                         _______ _______ _______ _____ _____    ______ ____
ROOT
ATOM      1  C   UNL     1       2.473   2.497  21.486  0.00  0.00    +0.000 C 
ATOM      2  N   UNL     1       3.143   3.332  20.514  0.00  0.00    +0.000 N 
ATOM      3  C   UNL     1       4.202   2.962  19.720  0.00  0.00    +0.000 A 
ATOM      4  C   UNL     1       4.551   4.042  18.914  0.00  0.00    +0.000 A 
ATOM      5  C   UNL     1       3.646   5.106  19.265  0.00  0.00    +0.000 A 
ATOM      6  C   UNL     1       3.447   6.436  18.850  0.00  0.00    +0.000 A 
ATOM      7  C   UNL     1       2.421   7.167  19.448  0.00  0.00    +0.000 A 
ATOM      8  C   UNL     1       1.645   6.559  20.424  0.00  0.00    +0.000 A 
ATOM      9  N   UNL     1       1.790   5.292  20.865  0.00  0.00    +0.000 NA
ATOM     10  C   UNL     1       2.792   4.627  20.256  0.00  0.00    +0.000 A 
ENDROOT
BRANCH   4  11
ATOM     11  C   UNL     1       5.613   4.112  17.897  0.00  0.00    +0.000 C 
ATOM     12  O   UNL     1       6.778   4.358  18.192  0.00  0.00    +0.000 OA
ATOM     13  N   UNL     1       5.207   3.876  16.601  0.00  0.00    +0.000 N 
ATOM     14  H   UNL     1       4.246   3.613  16.455  0.00  0.00    +0.000 HD
BRANCH  13  15
ATOM     15  C   UNL     1       6.067   3.854  15.435  0.00  0.00    +0.000 C 
ATOM     16  C   UNL     1       5.385   3.676  14.080  0.00  0.00    +0.000 C 
ATOM     17  C   UNL     1       6.521   3.943  13.095  0.00  0.00    +0.000 C 
ATOM     18  C   UNL     1       7.450   4.943  13.790  0.00  0.00    +0.000 C 
ATOM     19  C   UNL     1       6.918   5.102  15.216  0.00  0.00    +0.000 C 
ENDBRANCH  13  15
ENDBRANCH   4  11
TORSDOF 2
ENDMDL
MODEL 8
REMARK VINA RESULT:      -6.5      2.476      6.576
REMARK  Name = 
REMARK  3 active torsions:
REMARK  status: ('A' for Active; 'I' for Inactive)
REMARK    1  A    between atoms: C_1  and  N_2
REMARK    2  A    between atoms: C_4  and  C_5
REMARK    3  A    between atoms: N_7  and  C_8
REMARK                            x       y       z     vdW  Elec       q    Type
REMARK                         _______ _______ _______ _____ _____    ______ ____
ROOT
ATOM      1  C   UNL     1       3.787   2.422  20.358  0.00  0.00    +0.000 C 
ATOM      2  N   UNL     1       3.873   3.548  19.456  0.00  0.00    +0.000 N 
ATOM      3  C   UNL     1       4.614   3.608  18.300  0.00  0.00    +0.000 A 
ATOM      4  C   UNL     1       4.421   4.855  17.712  0.00  0.00    +0.000 A 
ATOM      5  C   UNL     1       3.521   5.566  18.582  0.00  0.00    +0.000 A 
ATOM      6  C   UNL     1       2.926   6.842  18.589  0.00  0.00    +0.000 A 
ATOM      7  C   UNL     1       2.072   7.166  19.643  0.00  0.00    +0.000 A 
ATOM      8  C   UNL     1       1.847   6.226  20.637  0.00  0.00    +0.000 A 
ATOM      9  N   UNL     1       2.390   4.991  20.687  0.00  0.00    +0.000 NA
ATOM     10  C   UNL     1       3.205   4.726  19.647  0.00  0.00    +0.000 A 
ENDROOT
BRANCH   4  11
ATOM     11  C   UNL     1       4.997   5.368  16.458  0.00  0.00    +0.000 C 
ATOM     12  O   UNL     1       5.223   6.561  16.289  0.00  0.00    +0.000 OA
ATOM     13  N   UNL     1       5.266   4.415  15.499  0.00  0.00    +0.000 N 
ATOM     14  H   UNL     1       5.115   3.450  15.745  0.00  0.00    +0.000 HD
BRANCH  13  15
ATOM     15  C   UNL     1       5.863   4.664  14.202  0.00  0.00    +0.000 C 
ATOM     16  C   UNL     1       7.340   5.050  14.188  0.00  0.00    +0.000 C 
ATOM     17  C   UNL     1       7.688   4.993  12.702  0.00  0.00    +0.000 C 
ATOM     18  C   UNL     1       6.776   3.918  12.102  0.00  0.00    +0.000 C 
ATOM     19  C   UNL     1       5.816   3.500  13.216  0.00  0.00    +0.000 C 
ENDBRANCH  13  15
ENDBRANCH   4  11
TORSDOF 2
ENDMDL
MODEL 9
REMARK VINA RESULT:      -6.5      4.551      5.853
REMARK  Name = 
REMARK  3 active torsions:
REMARK  status: ('A' for Active; 'I' for Inactive)
REMARK    1  A    between atoms: C_1  and  N_2
REMARK    2  A    between atoms: C_4  and  C_5
REMARK    3  A    between atoms: N_7  and  C_8
REMARK                            x       y       z     vdW  Elec       q    Type
REMARK                         _______ _______ _______ _____ _____    ______ ____
ROOT
ATOM      1  C   UNL     1       2.652   2.702  20.887  0.00  0.00    +0.000 C 
ATOM      2  N   UNL     1       2.693   4.015  20.283  0.00  0.00    +0.000 N 
ATOM      3  C   UNL     1       2.047   5.139  20.738  0.00  0.00    +0.000 A 
ATOM      4  C   UNL     1       2.347   6.200  19.887  0.00  0.00    +0.000 A 
ATOM      5  C   UNL     1       3.215   5.659  18.873  0.00  0.00    +0.000 A 
ATOM      6  C   UNL     1       3.872   6.165  17.736  0.00  0.00    +0.000 A 
ATOM      7  C   UNL     1       4.659   5.293  16.986  0.00  0.00    +0.000 A 
ATOM      8  C   UNL     1       4.759   3.968  17.385  0.00  0.00    +0.000 A 
ATOM      9  N   UNL     1       4.151   3.424  18.460  0.00  0.00    +0.000 NA
ATOM     10  C   UNL     1       3.405   4.307  19.153  0.00  0.00    +0.000 A 
ENDROOT
BRANCH   4  11
ATOM     11  C   UNL     1       1.896   7.598  19.983  0.00  0.00    +0.000 C 
ATOM     12  O   UNL     1       2.011   8.381  19.047  0.00  0.00    +0.000 OA
ATOM     13  N   UNL     1       1.335   7.956  21.191  0.00  0.00    +0.000 N 
ATOM     14  H   UNL     1       1.216   7.233  21.882  0.00  0.00    +0.000 HD
BRANCH  13  15
ATOM     15  C   UNL     1       0.788   9.258  21.516  0.00  0.00    +0.000 C 
ATOM     16  C   UNL     1      -0.319   9.785  20.607  0.00  0.00    +0.000 C 
ATOM     17  C   UNL     1      -0.816  11.015  21.362  0.00  0.00    +0.000 C 
ATOM     18  C   UNL     1      -0.599  10.709  22.847  0.00  0.00    +0.000 C 
ATOM     19  C   UNL     1       0.165   9.385  22.904  0.00  0.00    +0.000 C 
ENDBRANCH  13  15
ENDBRANCH   4  11
TORSDOF 2
ENDMDL
