MODEL 1
REMARK VINA RESULT:      -8.6      0.000      0.000
REMARK  Name = 
REMARK  2 active torsions:
REMARK  status: ('A' for Active; 'I' for Inactive)
REMARK    1  A    between atoms: C_3  and  C_4
REMARK    2  A    between atoms: C_16  and  C_17
REMARK                            x       y       z     vdW  Elec       q    Type
REMARK                         _______ _______ _______ _____ _____    ______ ____
ROOT
ATOM      1  C   UNL     1       1.728   9.310  17.815  0.00  0.00    +0.000 A 
ATOM      2  C   UNL     1       2.502   8.161  17.537  0.00  0.00    +0.000 A 
ATOM      3  C   UNL     1       2.730   7.190  18.530  0.00  0.00    +0.000 A 
ATOM      4  C   UNL     1       2.160   7.388  19.796  0.00  0.00    +0.000 A 
ATOM      5  C   UNL     1       1.397   8.515  20.065  0.00  0.00    +0.000 A 
ATOM      6  C   UNL     1       1.174   9.501  19.088  0.00  0.00    +0.000 A 
ENDROOT
BRANCH   3   7
ATOM      7  C   UNL     1       3.611   5.967  18.365  0.00  0.00    +0.000 C 
ATOM      8  O   UNL     1       4.346   5.664  19.544  0.00  0.00    +0.000 OA
ATOM      9  C   UNL     1       5.094   4.453  19.385  0.00  0.00    +0.000 C 
ATOM     10  C   UNL     1       4.162   3.287  19.045  0.00  0.00    +0.000 C 
ATOM     11  O   UNL     1       3.275   3.098  20.161  0.00  0.00    +0.000 OA
ATOM     12  C   UNL     1       2.242   2.143  19.938  0.00  0.00    +0.000 C 
ATOM     13  C   UNL     1       1.421   2.437  18.686  0.00  0.00    +0.000 C 
ATOM     14  C   UNL     1       2.326   2.620  17.475  0.00  0.00    +0.000 C 
ATOM     15  C   UNL     1       3.396   3.665  17.777  0.00  0.00    +0.000 C 
ATOM     16  O   UNL     1       2.735   4.915  17.958  0.00  0.00    +0.000 OA
ENDBRANCH   3   7
BRANCH   6  17
ATOM     17  C   UNL     1       0.446  10.744  19.574  0.00  0.00    +0.000 C 
ATOM     18  O   UNL     1       0.572  10.675  20.998  0.00  0.00    +0.000 OA
ATOM     19  C   UNL     1      -0.158  11.691  21.665  0.00  0.00    +0.000 C 
ATOM     20  C   UNL     1       0.275  13.059  21.162  0.00  0.00    +0.000 C 
ATOM     21  O   UNL     1       1.654  13.255  21.503  0.00  0.00    +0.000 OA
ATOM     22  C   UNL     1       2.201  14.478  21.031  0.00  0.00    +0.000 C 
ATOM     23  C   UNL     1       1.955  14.746  19.549  0.00  0.00    +0.000 C 
ATOM     24  C   UNL     1       0.529  14.430  19.124  0.00  0.00    +0.000 C 
ATOM     25  C   UNL     1       0.100  13.063  19.638  0.00  0.00    +0.000 C 
ATOM     26  O   UNL     1       0.880  12.002  19.045  0.00  0.00    +0.000 OA
ENDBRANCH   6  17
TORSDOF 2
ENDMDL
MODEL 2
REMARK VINA RESULT:      -8.6      0.907      1.353
REMARK  Name = 
REMARK  2 active torsions:
REMARK  status: ('A' for Active; 'I' for Inactive)
REMARK    1  A    between atoms: C_3  and  C_4
REMARK    2  A    between atoms: C_16  and  C_17
REMARK                            x       y       z     vdW  Elec       q    Type
REMARK                         _______ _______ _______ _____ _____    ______ ____
ROOT
ATOM      1  C   UNL     1       1.426   8.227  20.459  0.00  0.00    +0.000 A 
ATOM      2  C   UNL     1       2.193   7.189  19.880  0.00  0.00    +0.000 A 
ATOM      3  C   UNL     1       2.594   7.259  18.532  0.00  0.00    +0.000 A 
ATOM      4  C   UNL     1       2.223   8.386  17.785  0.00  0.00    +0.000 A 
ATOM      5  C   UNL     1       1.474   9.405  18.357  0.00  0.00    +0.000 A 
ATOM      6  C   UNL     1       1.052   9.342  19.697  0.00  0.00    +0.000 A 
ENDROOT
BRANCH   3   7
ATOM      7  C   UNL     1       3.342   6.168  17.791  0.00  0.00    +0.000 C 
ATOM      8  O   UNL     1       4.696   6.056  18.211  0.00  0.00    +0.000 OA
ATOM      9  C   UNL     1       5.346   4.958  17.560  0.00  0.00    +0.000 C 
ATOM     10  C   UNL     1       4.607   3.649  17.852  0.00  0.00    +0.000 C 
ATOM     11  O   UNL     1       4.682   3.412  19.268  0.00  0.00    +0.000 OA
ATOM     12  C   UNL     1       3.909   2.305  19.721  0.00  0.00    +0.000 C 
ATOM     13  C   UNL     1       2.445   2.389  19.301  0.00  0.00    +0.000 C 
ATOM     14  C   UNL     1       2.324   2.617  17.800  0.00  0.00    +0.000 C 
ATOM     15  C   UNL     1       3.161   3.824  17.386  0.00  0.00    +0.000 C 
ATOM     16  O   UNL     1       2.585   4.974  18.000  0.00  0.00    +0.000 OA
ENDBRANCH   3   7
BRANCH   6  17
ATOM     17  C   UNL     1       0.117  10.457  20.136  0.00  0.00    +0.000 C 
ATOM     18  O   UNL     1       0.333  10.542  21.549  0.00  0.00    +0.000 OA
ATOM     19  C   UNL     1      -0.549  11.452  22.186  0.00  0.00    +0.000 C 
ATOM     20  C   UNL     1      -0.426  12.827  21.550  0.00  0.00    +0.000 C 
ATOM     21  O   UNL     1       0.902  13.319  21.775  0.00  0.00    +0.000 OA
ATOM     22  C   UNL     1       1.166  14.578  21.173  0.00  0.00    +0.000 C 
ATOM     23  C   UNL     1       0.790  14.658  19.695  0.00  0.00    +0.000 C 
ATOM     24  C   UNL     1      -0.565  14.034  19.400  0.00  0.00    +0.000 C 
ATOM     25  C   UNL     1      -0.682  12.660  20.047  0.00  0.00    +0.000 C 
ATOM     26  O   UNL     1       0.261  11.724  19.483  0.00  0.00    +0.000 OA
ENDBRANCH   6  17
TORSDOF 2
ENDMDL
MODEL 3
REMARK VINA RESULT:      -8.5      0.933      8.792
REMARK  Name = 
REMARK  2 active torsions:
REMARK  status: ('A' for Active; 'I' for Inactive)
REMARK    1  A    between atoms: C_3  and  C_4
REMARK    2  A    between atoms: C_16  and  C_17
REMARK                            x       y       z     vdW  Elec       q    Type
REMARK                         _______ _______ _______ _____ _____    ______ ____
ROOT
ATOM      1  C   UNL     1       2.280   8.434  17.648  0.00  0.00    +0.000 A 
ATOM      2  C   UNL     1       1.463   9.418  18.249  0.00  0.00    +0.000 A 
ATOM      3  C   UNL     1       1.041   9.285  19.585  0.00  0.00    +0.000 A 
ATOM      4  C   UNL     1       1.461   8.157  20.305  0.00  0.00    +0.000 A 
ATOM      5  C   UNL     1       2.267   7.194  19.714  0.00  0.00    +0.000 A 
ATOM      6  C   UNL     1       2.683   7.306  18.376  0.00  0.00    +0.000 A 
ENDROOT
BRANCH   3   7
ATOM      7  C   UNL     1       0.098  10.234  20.298  0.00  0.00    +0.000 C 
ATOM      8  O   UNL     1       0.452  10.428  21.662  0.00  0.00    +0.000 OA
ATOM      9  C   UNL     1      -0.400  11.400  22.280  0.00  0.00    +0.000 C 
ATOM     10  C   UNL     1      -0.321  12.735  21.532  0.00  0.00    +0.000 C 
ATOM     11  O   UNL     1       1.029  13.217  21.643  0.00  0.00    +0.000 OA
ATOM     12  C   UNL     1       1.304  14.380  20.870  0.00  0.00    +0.000 C 
ATOM     13  C   UNL     1       0.949  14.212  19.396  0.00  0.00    +0.000 C 
ATOM     14  C   UNL     1      -0.484  13.724  19.236  0.00  0.00    +0.000 C 
ATOM     15  C   UNL     1      -0.705  12.469  20.076  0.00  0.00    +0.000 C 
ATOM     16  O   UNL     1       0.118  11.440  19.533  0.00  0.00    +0.000 OA
ENDBRANCH   3   7
BRANCH   6  17
ATOM     17  C   UNL     1       3.436   6.104  17.827  0.00  0.00    +0.000 C 
ATOM     18  O   UNL     1       4.727   6.207  18.436  0.00  0.00    +0.000 OA
ATOM     19  C   UNL     1       5.642   5.238  17.953  0.00  0.00    +0.000 C 
ATOM     20  C   UNL     1       5.074   3.841  18.153  0.00  0.00    +0.000 C 
ATOM     21  O   UNL     1       4.930   3.604  19.560  0.00  0.00    +0.000 OA
ATOM     22  C   UNL     1       4.347   2.349  19.882  0.00  0.00    +0.000 C 
ATOM     23  C   UNL     1       3.049   2.050  19.135  0.00  0.00    +0.000 C 
ATOM     24  C   UNL     1       3.126   2.406  17.658  0.00  0.00    +0.000 C 
ATOM     25  C   UNL     1       3.703   3.802  17.466  0.00  0.00    +0.000 C 
ATOM     26  O   UNL     1       2.839   4.817  18.022  0.00  0.00    +0.000 OA
ENDBRANCH   6  17
TORSDOF 2
ENDMDL
MODEL 4
REMARK VINA RESULT:      -8.5      0.909      8.860
REMARK  Name = 
REMARK  2 active torsions:
REMARK  status: ('A' for Active; 'I' for Inactive)
REMARK    1  A    between atoms: C_3  and  C_4
REMARK    2  A    between atoms: C_16  and  C_17
REMARK                            x       y       z     vdW  Elec       q    Type
REMARK                         _______ _______ _______ _____ _____    ______ ____
ROOT
ATOM      1  C   UNL     1       2.054   7.303  19.966  0.00  0.00    +0.000 A 
ATOM      2  C   UNL     1       1.416   8.474  20.438  0.00  0.00    +0.000 A 
ATOM      3  C   UNL     1       1.135   9.540  19.563  0.00  0.00    +0.000 A 
ATOM      4  C   UNL     1       1.494   9.407  18.214  0.00  0.00    +0.000 A 
ATOM      5  C   UNL     1       2.117   8.255  17.753  0.00  0.00    +0.000 A 
ATOM      6  C   UNL     1       2.418   7.188  18.618  0.00  0.00    +0.000 A 
ENDROOT
BRANCH   3   7
ATOM      7  C   UNL     1       0.534  10.869  19.979  0.00  0.00    +0.000 C 
ATOM      8  O   UNL     1       0.636  11.097  21.379  0.00  0.00    +0.000 OA
ATOM      9  C   UNL     1       0.145  12.398  21.723  0.00  0.00    +0.000 C 
ATOM     10  C   UNL     1       0.919  13.481  20.968  0.00  0.00    +0.000 C 
ATOM     11  O   UNL     1       2.291  13.414  21.395  0.00  0.00    +0.000 OA
ATOM     12  C   UNL     1       3.175  14.263  20.669  0.00  0.00    +0.000 C 
ATOM     13  C   UNL     1       3.106  14.044  19.161  0.00  0.00    +0.000 C 
ATOM     14  C   UNL     1       1.669  14.131  18.666  0.00  0.00    +0.000 C 
ATOM     15  C   UNL     1       0.781  13.187  19.473  0.00  0.00    +0.000 C 
ATOM     16  O   UNL     1       1.207  11.856  19.195  0.00  0.00    +0.000 OA
ENDBRANCH   3   7
BRANCH   6  17
ATOM     17  C   UNL     1       3.231   6.062  17.999  0.00  0.00    +0.000 C 
ATOM     18  O   UNL     1       4.521   6.205  18.602  0.00  0.00    +0.000 OA
ATOM     19  C   UNL     1       5.483   5.315  18.061  0.00  0.00    +0.000 C 
ATOM     20  C   UNL     1       4.995   3.880  18.191  0.00  0.00    +0.000 C 
ATOM     21  O   UNL     1       4.881   3.561  19.584  0.00  0.00    +0.000 OA
ATOM     22  C   UNL     1       4.372   2.260  19.843  0.00  0.00    +0.000 C 
ATOM     23  C   UNL     1       3.085   1.929  19.091  0.00  0.00    +0.000 C 
ATOM     24  C   UNL     1       3.126   2.366  17.635  0.00  0.00    +0.000 C 
ATOM     25  C   UNL     1       3.622   3.801  17.513  0.00  0.00    +0.000 C 
ATOM     26  O   UNL     1       2.708   4.734  18.130  0.00  0.00    +0.000 OA
ENDBRANCH   6  17
TORSDOF 2
ENDMDL
MODEL 5
REMARK VINA RESULT:      -8.5      1.523      8.727
REMARK  Name = 
REMARK  2 active torsions:
REMARK  status: ('A' for Active; 'I' for Inactive)
REMARK    1  A    between atoms: C_3  and  C_4
REMARK    2  A    between atoms: C_16  and  C_17
REMARK                            x       y       z     vdW  Elec       q    Type
REMARK                         _______ _______ _______ _____ _____    ______ ____
ROOT
ATOM      1  C   UNL     1       2.513   7.744  18.206  0.00  0.00    +0.000 A 
ATOM      2  C   UNL     1       1.911   8.991  17.920  0.00  0.00    +0.000 A 
ATOM      3  C   UNL     1       1.193   9.686  18.911  0.00  0.00    +0.000 A 
ATOM      4  C   UNL     1       1.101   9.115  20.189  0.00  0.00    +0.000 A 
ATOM      5  C   UNL     1       1.696   7.893  20.468  0.00  0.00    +0.000 A 
ATOM      6  C   UNL     1       2.402   7.180  19.484  0.00  0.00    +0.000 A 
ENDROOT
BRANCH   3   7
ATOM      7  C   UNL     1       0.440  10.983  18.690  0.00  0.00    +0.000 C 
ATOM      8  O   UNL     1      -0.919  10.767  18.329  0.00  0.00    +0.000 OA
ATOM      9  C   UNL     1      -1.624  12.010  18.219  0.00  0.00    +0.000 C 
ATOM     10  C   UNL     1      -1.558  12.782  19.540  0.00  0.00    +0.000 C 
ATOM     11  O   UNL     1      -2.230  11.995  20.538  0.00  0.00    +0.000 OA
ATOM     12  C   UNL     1      -2.125  12.508  21.862  0.00  0.00    +0.000 C 
ATOM     13  C   UNL     1      -0.682  12.745  22.295  0.00  0.00    +0.000 C 
ATOM     14  C   UNL     1       0.058  13.597  21.273  0.00  0.00    +0.000 C 
ATOM     15  C   UNL     1      -0.082  12.982  19.883  0.00  0.00    +0.000 C 
ATOM     16  O   UNL     1       0.592  11.726  19.901  0.00  0.00    +0.000 OA
ENDBRANCH   3   7
BRANCH   6  17
ATOM     17  C   UNL     1       2.870   5.793  19.898  0.00  0.00    +0.000 C 
ATOM     18  O   UNL     1       1.871   5.363  20.829  0.00  0.00    +0.000 OA
ATOM     19  C   UNL     1       2.187   4.124  21.441  0.00  0.00    +0.000 C 
ATOM     20  C   UNL     1       2.410   3.060  20.378  0.00  0.00    +0.000 C 
ATOM     21  O   UNL     1       1.182   2.863  19.664  0.00  0.00    +0.000 OA
ATOM     22  C   UNL     1       1.274   1.932  18.595  0.00  0.00    +0.000 C 
ATOM     23  C   UNL     1       2.436   2.188  17.638  0.00  0.00    +0.000 C 
ATOM     24  C   UNL     1       3.731   2.522  18.362  0.00  0.00    +0.000 C 
ATOM     25  C   UNL     1       3.497   3.582  19.430  0.00  0.00    +0.000 C 
ATOM     26  O   UNL     1       3.089   4.841  18.851  0.00  0.00    +0.000 OA
ENDBRANCH   6  17
TORSDOF 2
ENDMDL
MODEL 6
REMARK VINA RESULT:      -8.5      1.346      2.206
REMARK  Name = 
REMARK  2 active torsions:
REMARK  status: ('A' for Active; 'I' for Inactive)
REMARK    1  A    between atoms: C_3  and  C_4
REMARK    2  A    between atoms: C_16  and  C_17
REMARK                            x       y       z     vdW  Elec       q    Type
REMARK                         _______ _______ _______ _____ _____    ______ ____
ROOT
ATOM      1  C   UNL     1       1.192   8.949  20.288  0.00  0.00    +0.000 A 
ATOM      2  C   UNL     1       1.837   7.705  20.101  0.00  0.00    +0.000 A 
ATOM      3  C   UNL     1       2.431   7.382  18.866  0.00  0.00    +0.000 A 
ATOM      4  C   UNL     1       2.375   8.329  17.834  0.00  0.00    +0.000 A 
ATOM      5  C   UNL     1       1.745   9.551  18.021  0.00  0.00    +0.000 A 
ATOM      6  C   UNL     1       1.133   9.882  19.243  0.00  0.00    +0.000 A 
ENDROOT
BRANCH   3   7
ATOM      7  C   UNL     1       3.072   6.049  18.532  0.00  0.00    +0.000 C 
ATOM      8  O   UNL     1       4.133   5.720  19.419  0.00  0.00    +0.000 OA
ATOM      9  C   UNL     1       4.654   4.416  19.134  0.00  0.00    +0.000 C 
ATOM     10  C   UNL     1       3.547   3.362  19.242  0.00  0.00    +0.000 C 
ATOM     11  O   UNL     1       3.086   3.351  20.604  0.00  0.00    +0.000 OA
ATOM     12  C   UNL     1       1.948   2.526  20.834  0.00  0.00    +0.000 C 
ATOM     13  C   UNL     1       0.780   2.853  19.909  0.00  0.00    +0.000 C 
ATOM     14  C   UNL     1       1.224   2.851  18.453  0.00  0.00    +0.000 C 
ATOM     15  C   UNL     1       2.433   3.765  18.275  0.00  0.00    +0.000 C 
ATOM     16  O   UNL     1       2.006   5.097  18.548  0.00  0.00    +0.000 OA
ENDBRANCH   3   7
BRANCH   6  17
ATOM     17  C   UNL     1       0.358  11.189  19.249  0.00  0.00    +0.000 C 
ATOM     18  O   UNL     1      -0.992  10.783  18.998  0.00  0.00    +0.000 OA
ATOM     19  C   UNL     1      -1.875  11.880  18.836  0.00  0.00    +0.000 C 
ATOM     20  C   UNL     1      -1.813  12.783  20.058  0.00  0.00    +0.000 C 
ATOM     21  O   UNL     1      -2.282  12.046  21.195  0.00  0.00    +0.000 OA
ATOM     22  C   UNL     1      -2.215  12.762  22.420  0.00  0.00    +0.000 C 
ATOM     23  C   UNL     1      -0.859  13.406  22.698  0.00  0.00    +0.000 C 
ATOM     24  C   UNL     1      -0.275  14.095  21.475  0.00  0.00    +0.000 C 
ATOM     25  C   UNL     1      -0.347  13.187  20.254  0.00  0.00    +0.000 C 
ATOM     26  O   UNL     1       0.476  12.011  20.416  0.00  0.00    +0.000 OA
ENDBRANCH   6  17
TORSDOF 2
ENDMDL
MODEL 7
REMARK VINA RESULT:      -8.5      1.583      8.549
REMARK  Name = 
REMARK  2 active torsions:
REMARK  status: ('A' for Active; 'I' for Inactive)
REMARK    1  A    between atoms: C_3  and  C_4
REMARK    2  A    between atoms: C_16  and  C_17
REMARK                            x       y       z     vdW  Elec       q    Type
REMARK                         _______ _______ _______ _____ _____    ______ ____
ROOT
ATOM      1  C   UNL     1       1.951   6.761  20.547  0.00  0.00    +0.000 A 
ATOM      2  C   UNL     1       1.249   7.949  20.853  0.00  0.00    +0.000 A 
ATOM      3  C   UNL     1       1.161   8.994  19.914  0.00  0.00    +0.000 A 
ATOM      4  C   UNL     1       1.777   8.820  18.666  0.00  0.00    +0.000 A 
ATOM      5  C   UNL     1       2.463   7.651  18.367  0.00  0.00    +0.000 A 
ATOM      6  C   UNL     1       2.573   6.606  19.300  0.00  0.00    +0.000 A 
ENDROOT
BRANCH   3   7
ATOM      7  C   UNL     1       0.508  10.339  20.169  0.00  0.00    +0.000 C 
ATOM      8  O   UNL     1       0.663  10.771  21.515  0.00  0.00    +0.000 OA
ATOM      9  C   UNL     1       0.118  12.083  21.698  0.00  0.00    +0.000 C 
ATOM     10  C   UNL     1       0.797  13.082  20.756  0.00  0.00    +0.000 C 
ATOM     11  O   UNL     1       2.188  13.142  21.114  0.00  0.00    +0.000 OA
ATOM     12  C   UNL     1       2.990  13.917  20.229  0.00  0.00    +0.000 C 
ATOM     13  C   UNL     1       2.863  13.480  18.773  0.00  0.00    +0.000 C 
ATOM     14  C   UNL     1       1.402  13.427  18.349  0.00  0.00    +0.000 C 
ATOM     15  C   UNL     1       0.605  12.569  19.328  0.00  0.00    +0.000 C 
ATOM     16  O   UNL     1       1.090  11.233  19.218  0.00  0.00    +0.000 OA
ENDBRANCH   3   7
BRANCH   6  17
ATOM     17  C   UNL     1       3.476   5.456  18.883  0.00  0.00    +0.000 C 
ATOM     18  O   UNL     1       2.822   4.913  17.731  0.00  0.00    +0.000 OA
ATOM     19  C   UNL     1       3.443   3.732  17.252  0.00  0.00    +0.000 C 
ATOM     20  C   UNL     1       4.909   4.001  16.950  0.00  0.00    +0.000 C 
ATOM     21  O   UNL     1       4.988   4.964  15.890  0.00  0.00    +0.000 OA
ATOM     22  C   UNL     1       6.313   5.350  15.553  0.00  0.00    +0.000 C 
ATOM     23  C   UNL     1       7.167   5.769  16.747  0.00  0.00    +0.000 C 
ATOM     24  C   UNL     1       7.013   4.834  17.936  0.00  0.00    +0.000 C 
ATOM     25  C   UNL     1       5.543   4.564  18.227  0.00  0.00    +0.000 C 
ATOM     26  O   UNL     1       4.853   5.764  18.638  0.00  0.00    +0.000 OA
ENDBRANCH   6  17
TORSDOF 2
ENDMDL
MODEL 8
REMARK VINA RESULT:      -8.5      1.610      8.702
REMARK  Name = 
REMARK  2 active torsions:
REMARK  status: ('A' for Active; 'I' for Inactive)
REMARK    1  A    between atoms: C_3  and  C_4
REMARK    2  A    between atoms: C_16  and  C_17
REMARK                            x       y       z     vdW  Elec       q    Type
REMARK                         _______ _______ _______ _____ _____    ______ ____
ROOT
ATOM      1  C   UNL     1       1.852   7.574  20.241  0.00  0.00    +0.000 A 
ATOM      2  C   UNL     1       1.200   8.827  20.173  0.00  0.00    +0.000 A 
ATOM      3  C   UNL     1       1.237   9.593  18.993  0.00  0.00    +0.000 A 
ATOM      4  C   UNL     1       1.927   9.077  17.886  0.00  0.00    +0.000 A 
ATOM      5  C   UNL     1       2.563   7.845  17.954  0.00  0.00    +0.000 A 
ATOM      6  C   UNL     1       2.548   7.076  19.131  0.00  0.00    +0.000 A 
ENDROOT
BRANCH   3   7
ATOM      7  C   UNL     1       0.647  10.981  18.839  0.00  0.00    +0.000 C 
ATOM      8  O   UNL     1      -0.656  10.957  18.268  0.00  0.00    +0.000 OA
ATOM      9  C   UNL     1      -1.220  12.273  18.223  0.00  0.00    +0.000 C 
ATOM     10  C   UNL     1      -1.286  12.876  19.630  0.00  0.00    +0.000 C 
ATOM     11  O   UNL     1      -2.169  12.057  20.414  0.00  0.00    +0.000 OA
ATOM     12  C   UNL     1      -2.219  12.401  21.796  0.00  0.00    +0.000 C 
ATOM     13  C   UNL     1      -0.842  12.428  22.452  0.00  0.00    +0.000 C 
ATOM     14  C   UNL     1       0.117  13.306  21.661  0.00  0.00    +0.000 C 
ATOM     15  C   UNL     1       0.134  12.874  20.197  0.00  0.00    +0.000 C 
ATOM     16  O   UNL     1       0.680  11.559  20.145  0.00  0.00    +0.000 OA
ENDBRANCH   3   7
BRANCH   6  17
ATOM     17  C   UNL     1       3.410   5.824  19.099  0.00  0.00    +0.000 C 
ATOM     18  O   UNL     1       2.591   4.867  18.417  0.00  0.00    +0.000 OA
ATOM     19  C   UNL     1       3.166   3.572  18.390  0.00  0.00    +0.000 C 
ATOM     20  C   UNL     1       4.549   3.628  17.760  0.00  0.00    +0.000 C 
ATOM     21  O   UNL     1       4.412   4.044  16.394  0.00  0.00    +0.000 OA
ATOM     22  C   UNL     1       5.645   4.197  15.706  0.00  0.00    +0.000 C 
ATOM     23  C   UNL     1       6.673   5.052  16.444  0.00  0.00    +0.000 C 
ATOM     24  C   UNL     1       6.757   4.720  17.926  0.00  0.00    +0.000 C 
ATOM     25  C   UNL     1       5.369   4.658  18.548  0.00  0.00    +0.000 C 
ATOM     26  O   UNL     1       4.713   5.944  18.518  0.00  0.00    +0.000 OA
ENDBRANCH   6  17
TORSDOF 2
ENDMDL
MODEL 9
REMARK VINA RESULT:      -8.4      1.417      2.434
REMARK  Name = 
REMARK  2 active torsions:
REMARK  status: ('A' for Active; 'I' for Inactive)
REMARK    1  A    between atoms: C_3  and  C_4
REMARK    2  A    between atoms: C_16  and  C_17
REMARK                            x       y       z     vdW  Elec       q    Type
REMARK                         _______ _______ _______ _____ _____    ______ ____
ROOT
ATOM      1  C   UNL     1       1.499   9.767  18.101  0.00  0.00    +0.000 A 
ATOM      2  C   UNL     1       2.055   8.514  17.757  0.00  0.00    +0.000 A 
ATOM      3  C   UNL     1       2.264   7.527  18.738  0.00  0.00    +0.000 A 
ATOM      4  C   UNL     1       1.897   7.815  20.060  0.00  0.00    +0.000 A 
ATOM      5  C   UNL     1       1.348   9.045  20.395  0.00  0.00    +0.000 A 
ATOM      6  C   UNL     1       1.148  10.046  19.429  0.00  0.00    +0.000 A 
ENDROOT
BRANCH   3   7
ATOM      7  C   UNL     1       2.929   6.186  18.494  0.00  0.00    +0.000 C 
ATOM      8  O   UNL     1       3.972   5.920  19.423  0.00  0.00    +0.000 OA
ATOM      9  C   UNL     1       4.515   4.610  19.224  0.00  0.00    +0.000 C 
ATOM     10  C   UNL     1       3.419   3.549  19.362  0.00  0.00    +0.000 C 
ATOM     11  O   UNL     1       2.925   3.607  20.711  0.00  0.00    +0.000 OA
ATOM     12  C   UNL     1       1.792   2.780  20.959  0.00  0.00    +0.000 C 
ATOM     13  C   UNL     1       0.643   3.040  19.989  0.00  0.00    +0.000 C 
ATOM     14  C   UNL     1       1.123   2.964  18.547  0.00  0.00    +0.000 C 
ATOM     15  C   UNL     1       2.325   3.883  18.347  0.00  0.00    +0.000 C 
ATOM     16  O   UNL     1       1.876   5.222  18.536  0.00  0.00    +0.000 OA
ENDBRANCH   3   7
BRANCH   6  17
ATOM     17  C   UNL     1       0.677  11.386  19.971  0.00  0.00    +0.000 C 
ATOM     18  O   UNL     1      -0.164  11.896  18.931  0.00  0.00    +0.000 OA
ATOM     19  C   UNL     1      -0.614  13.216  19.184  0.00  0.00    +0.000 C 
ATOM     20  C   UNL     1      -1.335  13.272  20.521  0.00  0.00    +0.000 C 
ATOM     21  O   UNL     1      -2.507  12.449  20.444  0.00  0.00    +0.000 OA
ATOM     22  C   UNL     1      -3.241  12.366  21.658  0.00  0.00    +0.000 C 
ATOM     23  C   UNL     1      -2.396  12.014  22.879  0.00  0.00    +0.000 C 
ATOM     24  C   UNL     1      -1.085  12.783  22.929  0.00  0.00    +0.000 C 
ATOM     25  C   UNL     1      -0.373  12.728  21.584  0.00  0.00    +0.000 C 
ATOM     26  O   UNL     1       0.028  11.381  21.248  0.00  0.00    +0.000 OA
ENDBRANCH   6  17
TORSDOF 2
ENDMDL
