MODEL 1
REMARK VINA RESULT:      -8.2      0.000      0.000
REMARK  Name = 
REMARK  5 active torsions:
REMARK  status: ('A' for Active; 'I' for Inactive)
REMARK    1  A    between atoms: C_2  and  O_3
REMARK    2  A    between atoms: C_2  and  C_4
REMARK    3  A    between atoms: C_9  and  C_10
REMARK    4  A    between atoms: C_14  and  O_15
REMARK    5  A    between atoms: C_16  and  O_17
REMARK                            x       y       z     vdW  Elec       q    Type
REMARK                         _______ _______ _______ _____ _____    ______ ____
ROOT
ATOM      1  C   UNL     1       4.008   4.223  18.139  0.00  0.00    +0.000 A 
ATOM      2  C   UNL     1       4.069   3.750  16.883  0.00  0.00    +0.000 A 
ATOM      3  C   UNL     1       5.129   4.192  15.983  0.00  0.00    +0.000 A 
ATOM      4  C   UNL     1       5.174   3.811  14.636  0.00  0.00    +0.000 A 
ATOM      5  C   UNL     1       6.247   4.226  13.848  0.00  0.00    +0.000 A 
ATOM      6  C   UNL     1       7.274   4.998  14.392  0.00  0.00    +0.000 A 
ATOM      7  C   UNL     1       7.240   5.389  15.720  0.00  0.00    +0.000 A 
ATOM      8  C   UNL     1       6.151   4.994  16.496  0.00  0.00    +0.000 A 
ATOM      9  O   UNL     1       6.089   5.485  17.812  0.00  0.00    +0.000 OA
ATOM     10  C   UNL     1       4.971   5.263  18.608  0.00  0.00    +0.000 A 
ATOM     11  O   UNL     1       4.775   5.911  19.633  0.00  0.00    +0.000 OA
ENDROOT
BRANCH   1  17
ATOM     12  C   UNL     1       3.094   2.568  19.847  0.00  0.00    +0.000 A 
ATOM     13  C   UNL     1       2.085   2.222  20.767  0.00  0.00    +0.000 A 
ATOM     14  C   UNL     1       0.929   2.995  20.875  0.00  0.00    +0.000 A 
ATOM     15  C   UNL     1       0.780   4.130  20.086  0.00  0.00    +0.000 A 
ATOM     16  C   UNL     1       1.791   4.505  19.198  0.00  0.00    +0.000 A 
ATOM     17  C   UNL     1       2.963   3.738  19.068  0.00  0.00    +0.000 A 
BRANCH  12  19
ATOM     18  O   UNL     1       5.259   1.788  20.507  0.00  0.00    +0.000 OA
ATOM     19  C   UNL     1       4.307   1.707  19.750  0.00  0.00    +0.000 C 
BRANCH  19  20
ATOM     20  O   UNL     1       4.288   0.852  18.704  0.00  0.00    +0.000 OA
ATOM     21  H   UNL     1       4.922   1.033  17.988  0.00  0.00    +0.000 HD
ENDBRANCH  19  20
ENDBRANCH  12  19
ENDBRANCH   1  17
BRANCH   5  22
ATOM     22  O   UNL     1       6.339   3.901  12.522  0.00  0.00    +0.000 OA
ATOM     23  H   UNL     1       5.756   4.491  12.017  0.00  0.00    +0.000 HD
ENDBRANCH   5  22
BRANCH   6  24
ATOM     24  O   UNL     1       8.322   5.386  13.608  0.00  0.00    +0.000 OA
ATOM     25  H   UNL     1       9.089   4.883  13.950  0.00  0.00    +0.000 HD
ENDBRANCH   6  24
TORSDOF 5
ENDMDL
MODEL 2
REMARK VINA RESULT:      -7.7      3.269      6.562
REMARK  Name = 
REMARK  5 active torsions:
REMARK  status: ('A' for Active; 'I' for Inactive)
REMARK    1  A    between atoms: C_2  and  O_3
REMARK    2  A    between atoms: C_2  and  C_4
REMARK    3  A    between atoms: C_9  and  C_10
REMARK    4  A    between atoms: C_14  and  O_15
REMARK    5  A    between atoms: C_16  and  O_17
REMARK                            x       y       z     vdW  Elec       q    Type
REMARK                         _______ _______ _______ _____ _____    ______ ____
ROOT
ATOM      1  C   UNL     1       4.142   6.064  17.781  0.00  0.00    +0.000 A 
ATOM      2  C   UNL     1       3.650   7.254  17.400  0.00  0.00    +0.000 A 
ATOM      3  C   UNL     1       2.675   7.948  18.237  0.00  0.00    +0.000 A 
ATOM      4  C   UNL     1       2.055   9.136  17.833  0.00  0.00    +0.000 A 
ATOM      5  C   UNL     1       1.174   9.774  18.707  0.00  0.00    +0.000 A 
ATOM      6  C   UNL     1       0.923   9.248  19.974  0.00  0.00    +0.000 A 
ATOM      7  C   UNL     1       1.523   8.069  20.385  0.00  0.00    +0.000 A 
ATOM      8  C   UNL     1       2.381   7.422  19.496  0.00  0.00    +0.000 A 
ATOM      9  O   UNL     1       2.901   6.178  19.897  0.00  0.00    +0.000 OA
ATOM     10  C   UNL     1       3.644   5.397  19.021  0.00  0.00    +0.000 A 
ATOM     11  O   UNL     1       3.858   4.208  19.245  0.00  0.00    +0.000 OA
ENDROOT
BRANCH   1  17
ATOM     12  C   UNL     1       6.530   5.304  17.320  0.00  0.00    +0.000 A 
ATOM     13  C   UNL     1       7.424   4.567  16.520  0.00  0.00    +0.000 A 
ATOM     14  C   UNL     1       6.988   3.962  15.341  0.00  0.00    +0.000 A 
ATOM     15  C   UNL     1       5.654   4.065  14.964  0.00  0.00    +0.000 A 
ATOM     16  C   UNL     1       4.749   4.761  15.769  0.00  0.00    +0.000 A 
ATOM     17  C   UNL     1       5.168   5.384  16.958  0.00  0.00    +0.000 A 
BRANCH  12  19
ATOM     18  O   UNL     1       7.689   6.978  18.578  0.00  0.00    +0.000 OA
ATOM     19  C   UNL     1       7.038   5.948  18.564  0.00  0.00    +0.000 C 
BRANCH  19  20
ATOM     20  O   UNL     1       6.758   5.257  19.691  0.00  0.00    +0.000 OA
ATOM     21  H   UNL     1       7.473   5.199  20.349  0.00  0.00    +0.000 HD
ENDBRANCH  19  20
ENDBRANCH  12  19
ENDBRANCH   1  17
BRANCH   5  22
ATOM     22  O   UNL     1       0.524  10.928  18.365  0.00  0.00    +0.000 OA
ATOM     23  H   UNL     1       1.102  11.682  18.570  0.00  0.00    +0.000 HD
ENDBRANCH   5  22
BRANCH   6  24
ATOM     24  O   UNL     1       0.067   9.891  20.821  0.00  0.00    +0.000 OA
ATOM     25  H   UNL     1       0.600  10.079  21.620  0.00  0.00    +0.000 HD
ENDBRANCH   6  24
TORSDOF 5
ENDMDL
MODEL 3
REMARK VINA RESULT:      -7.5      4.247      6.916
REMARK  Name = 
REMARK  5 active torsions:
REMARK  status: ('A' for Active; 'I' for Inactive)
REMARK    1  A    between atoms: C_2  and  O_3
REMARK    2  A    between atoms: C_2  and  C_4
REMARK    3  A    between atoms: C_9  and  C_10
REMARK    4  A    between atoms: C_14  and  O_15
REMARK    5  A    between atoms: C_16  and  O_17
REMARK                            x       y       z     vdW  Elec       q    Type
REMARK                         _______ _______ _______ _____ _____    ______ ____
ROOT
ATOM      1  C   UNL     1       2.813   6.778  18.557  0.00  0.00    +0.000 A 
ATOM      2  C   UNL     1       2.307   7.834  17.899  0.00  0.00    +0.000 A 
ATOM      3  C   UNL     1       1.444   8.786  18.590  0.00  0.00    +0.000 A 
ATOM      4  C   UNL     1       0.807   9.840  17.923  0.00  0.00    +0.000 A 
ATOM      5  C   UNL     1       0.040  10.744  18.658  0.00  0.00    +0.000 A 
ATOM      6  C   UNL     1      -0.084  10.614  20.041  0.00  0.00    +0.000 A 
ATOM      7  C   UNL     1       0.533   9.573  20.714  0.00  0.00    +0.000 A 
ATOM      8  C   UNL     1       1.276   8.656  19.971  0.00  0.00    +0.000 A 
ATOM      9  O   UNL     1       1.811   7.554  20.660  0.00  0.00    +0.000 OA
ATOM     10  C   UNL     1       2.440   6.518  19.979  0.00  0.00    +0.000 A 
ATOM     11  O   UNL     1       2.652   5.434  20.515  0.00  0.00    +0.000 OA
ENDROOT
BRANCH   1  17
ATOM     12  C   UNL     1       3.359   4.539  17.469  0.00  0.00    +0.000 A 
ATOM     13  C   UNL     1       4.268   3.743  16.747  0.00  0.00    +0.000 A 
ATOM     14  C   UNL     1       5.555   4.206  16.473  0.00  0.00    +0.000 A 
ATOM     15  C   UNL     1       5.936   5.476  16.894  0.00  0.00    +0.000 A 
ATOM     16  C   UNL     1       5.031   6.290  17.578  0.00  0.00    +0.000 A 
ATOM     17  C   UNL     1       3.730   5.841  17.870  0.00  0.00    +0.000 A 
BRANCH  12  19
ATOM     18  O   UNL     1       0.998   4.321  17.138  0.00  0.00    +0.000 OA
ATOM     19  C   UNL     1       1.998   4.001  17.755  0.00  0.00    +0.000 C 
BRANCH  19  20
ATOM     20  O   UNL     1       1.956   3.155  18.808  0.00  0.00    +0.000 OA
ATOM     21  H   UNL     1       1.486   3.475  19.599  0.00  0.00    +0.000 HD
ENDBRANCH  19  20
ENDBRANCH  12  19
ENDBRANCH   1  17
BRANCH   5  22
ATOM     22  O   UNL     1      -0.620  11.784  18.062  0.00  0.00    +0.000 OA
ATOM     23  H   UNL     1      -1.422  11.439  17.636  0.00  0.00    +0.000 HD
ENDBRANCH   5  22
BRANCH   6  24
ATOM     24  O   UNL     1      -0.830  11.515  20.746  0.00  0.00    +0.000 OA
ATOM     25  H   UNL     1      -0.914  12.288  20.152  0.00  0.00    +0.000 HD
ENDBRANCH   6  24
TORSDOF 5
ENDMDL
MODEL 4
REMARK VINA RESULT:      -7.2      4.010      7.102
REMARK  Name = 
REMARK  5 active torsions:
REMARK  status: ('A' for Active; 'I' for Inactive)
REMARK    1  A    between atoms: C_2  and  O_3
REMARK    2  A    between atoms: C_2  and  C_4
REMARK    3  A    between atoms: C_9  and  C_10
REMARK    4  A    between atoms: C_14  and  O_15
REMARK    5  A    between atoms: C_16  and  O_17
REMARK                            x       y       z     vdW  Elec       q    Type
REMARK                         _______ _______ _______ _____ _____    ______ ____
ROOT
ATOM      1  C   UNL     1       2.391   6.657  18.762  0.00  0.00    +0.000 A 
ATOM      2  C   UNL     1       1.969   6.785  20.031  0.00  0.00    +0.000 A 
ATOM      3  C   UNL     1       1.546   8.087  20.537  0.00  0.00    +0.000 A 
ATOM      4  C   UNL     1       1.201   8.292  21.878  0.00  0.00    +0.000 A 
ATOM      5  C   UNL     1       0.753   9.551  22.279  0.00  0.00    +0.000 A 
ATOM      6  C   UNL     1       0.633  10.591  21.359  0.00  0.00    +0.000 A 
ATOM      7  C   UNL     1       0.978  10.406  20.030  0.00  0.00    +0.000 A 
ATOM      8  C   UNL     1       1.452   9.154  19.641  0.00  0.00    +0.000 A 
ATOM      9  O   UNL     1       1.888   9.018  18.311  0.00  0.00    +0.000 OA
ATOM     10  C   UNL     1       2.508   7.853  17.875  0.00  0.00    +0.000 A 
ATOM     11  O   UNL     1       3.143   7.819  16.825  0.00  0.00    +0.000 OA
ENDROOT
BRANCH   1  17
ATOM     12  C   UNL     1       4.106   4.869  18.162  0.00  0.00    +0.000 A 
ATOM     13  C   UNL     1       4.373   3.559  17.722  0.00  0.00    +0.000 A 
ATOM     14  C   UNL     1       3.336   2.727  17.300  0.00  0.00    +0.000 A 
ATOM     15  C   UNL     1       2.023   3.185  17.338  0.00  0.00    +0.000 A 
ATOM     16  C   UNL     1       1.742   4.470  17.809  0.00  0.00    +0.000 A 
ATOM     17  C   UNL     1       2.772   5.328  18.234  0.00  0.00    +0.000 A 
BRANCH  12  19
ATOM     18  O   UNL     1       5.739   5.702  19.701  0.00  0.00    +0.000 OA
ATOM     19  C   UNL     1       5.243   5.733  18.589  0.00  0.00    +0.000 C 
BRANCH  19  20
ATOM     20  O   UNL     1       5.652   6.605  17.642  0.00  0.00    +0.000 OA
ATOM     21  H   UNL     1       6.513   6.418  17.226  0.00  0.00    +0.000 HD
ENDBRANCH  19  20
ENDBRANCH  12  19
ENDBRANCH   1  17
BRANCH   5  22
ATOM     22  O   UNL     1       0.416   9.818  23.578  0.00  0.00    +0.000 OA
ATOM     23  H   UNL     1       0.170   8.985  24.013  0.00  0.00    +0.000 HD
ENDBRANCH   5  22
BRANCH   6  24
ATOM     24  O   UNL     1       0.182  11.813  21.767  0.00  0.00    +0.000 OA
ATOM     25  H   UNL     1       0.628  11.972  22.623  0.00  0.00    +0.000 HD
ENDBRANCH   6  24
TORSDOF 5
ENDMDL
MODEL 5
REMARK VINA RESULT:      -7.2      1.628      2.483
REMARK  Name = 
REMARK  5 active torsions:
REMARK  status: ('A' for Active; 'I' for Inactive)
REMARK    1  A    between atoms: C_2  and  O_3
REMARK    2  A    between atoms: C_2  and  C_4
REMARK    3  A    between atoms: C_9  and  C_10
REMARK    4  A    between atoms: C_14  and  O_15
REMARK    5  A    between atoms: C_16  and  O_17
REMARK                            x       y       z     vdW  Elec       q    Type
REMARK                         _______ _______ _______ _____ _____    ______ ____
ROOT
ATOM      1  C   UNL     1       4.682   4.187  18.365  0.00  0.00    +0.000 A 
ATOM      2  C   UNL     1       4.390   3.773  17.121  0.00  0.00    +0.000 A 
ATOM      3  C   UNL     1       5.275   4.106  16.010  0.00  0.00    +0.000 A 
ATOM      4  C   UNL     1       4.960   3.790  14.682  0.00  0.00    +0.000 A 
ATOM      5  C   UNL     1       5.879   4.090  13.677  0.00  0.00    +0.000 A 
ATOM      6  C   UNL     1       7.104   4.682  13.984  0.00  0.00    +0.000 A 
ATOM      7  C   UNL     1       7.427   5.007  15.291  0.00  0.00    +0.000 A 
ATOM      8  C   UNL     1       6.492   4.730  16.289  0.00  0.00    +0.000 A 
ATOM      9  O   UNL     1       6.800   5.158  17.592  0.00  0.00    +0.000 OA
ATOM     10  C   UNL     1       5.869   5.056  18.619  0.00  0.00    +0.000 A 
ATOM     11  O   UNL     1       6.005   5.673  19.672  0.00  0.00    +0.000 OA
ENDROOT
BRANCH   1  17
ATOM     12  C   UNL     1       2.742   4.603  19.965  0.00  0.00    +0.000 A 
ATOM     13  C   UNL     1       1.913   4.128  20.999  0.00  0.00    +0.000 A 
ATOM     14  C   UNL     1       2.172   2.900  21.609  0.00  0.00    +0.000 A 
ATOM     15  C   UNL     1       3.243   2.126  21.176  0.00  0.00    +0.000 A 
ATOM     16  C   UNL     1       4.050   2.570  20.126  0.00  0.00    +0.000 A 
ATOM     17  C   UNL     1       3.811   3.807  19.501  0.00  0.00    +0.000 A 
BRANCH  12  19
ATOM     18  O   UNL     1       2.099   6.075  18.190  0.00  0.00    +0.000 OA
ATOM     19  C   UNL     1       2.441   5.927  19.350  0.00  0.00    +0.000 C 
BRANCH  19  20
ATOM     20  O   UNL     1       2.633   6.973  20.184  0.00  0.00    +0.000 OA
ATOM     21  H   UNL     1       1.899   7.610  20.251  0.00  0.00    +0.000 HD
ENDBRANCH  19  20
ENDBRANCH  12  19
ENDBRANCH   1  17
BRANCH   5  22
ATOM     22  O   UNL     1       5.623   3.821  12.360  0.00  0.00    +0.000 OA
ATOM     23  H   UNL     1       5.436   2.872  12.267  0.00  0.00    +0.000 HD
ENDBRANCH   5  22
BRANCH   6  24
ATOM     24  O   UNL     1       7.996   4.957  12.988  0.00  0.00    +0.000 OA
ATOM     25  H   UNL     1       8.721   4.313  13.116  0.00  0.00    +0.000 HD
ENDBRANCH   6  24
TORSDOF 5
ENDMDL
MODEL 6
REMARK VINA RESULT:      -7.2      1.509      2.299
REMARK  Name = 
REMARK  5 active torsions:
REMARK  status: ('A' for Active; 'I' for Inactive)
REMARK    1  A    between atoms: C_2  and  O_3
REMARK    2  A    between atoms: C_2  and  C_4
REMARK    3  A    between atoms: C_9  and  C_10
REMARK    4  A    between atoms: C_14  and  O_15
REMARK    5  A    between atoms: C_16  and  O_17
REMARK                            x       y       z     vdW  Elec       q    Type
REMARK                         _______ _______ _______ _____ _____    ______ ____
ROOT
ATOM      1  C   UNL     1       4.434   4.122  18.207  0.00  0.00    +0.000 A 
ATOM      2  C   UNL     1       4.445   3.634  16.956  0.00  0.00    +0.000 A 
ATOM      3  C   UNL     1       5.428   4.113  15.989  0.00  0.00    +0.000 A 
ATOM      4  C   UNL     1       5.413   3.715  14.647  0.00  0.00    +0.000 A 
ATOM      5  C   UNL     1       6.416   4.170  13.792  0.00  0.00    +0.000 A 
ATOM      6  C   UNL     1       7.434   4.999  14.265  0.00  0.00    +0.000 A 
ATOM      7  C   UNL     1       7.458   5.407  15.588  0.00  0.00    +0.000 A 
ATOM      8  C   UNL     1       6.437   4.971  16.431  0.00  0.00    +0.000 A 
ATOM      9  O   UNL     1       6.428   5.477  17.743  0.00  0.00    +0.000 OA
ATOM     10  C   UNL     1       5.371   5.213  18.606  0.00  0.00    +0.000 A 
ATOM     11  O   UNL     1       5.203   5.866  19.633  0.00  0.00    +0.000 OA
ENDROOT
BRANCH   1  17
ATOM     12  C   UNL     1       2.079   3.829  19.136  0.00  0.00    +0.000 A 
ATOM     13  C   UNL     1       1.224   3.227  20.079  0.00  0.00    +0.000 A 
ATOM     14  C   UNL     1       1.745   2.450  21.114  0.00  0.00    +0.000 A 
ATOM     15  C   UNL     1       3.118   2.247  21.202  0.00  0.00    +0.000 A 
ATOM     16  C   UNL     1       3.972   2.808  20.250  0.00  0.00    +0.000 A 
ATOM     17  C   UNL     1       3.470   3.599  19.202  0.00  0.00    +0.000 A 
BRANCH  12  19
ATOM     18  O   UNL     1       0.793   4.221  17.155  0.00  0.00    +0.000 OA
ATOM     19  C   UNL     1       1.484   4.665  18.054  0.00  0.00    +0.000 C 
BRANCH  19  20
ATOM     20  O   UNL     1       1.824   5.971  18.125  0.00  0.00    +0.000 OA
ATOM     21  H   UNL     1       1.596   6.518  17.352  0.00  0.00    +0.000 HD
ENDBRANCH  19  20
ENDBRANCH  12  19
ENDBRANCH   1  17
BRANCH   5  22
ATOM     22  O   UNL     1       6.447   3.830  12.467  0.00  0.00    +0.000 OA
ATOM     23  H   UNL     1       6.135   4.589  11.945  0.00  0.00    +0.000 HD
ENDBRANCH   5  22
BRANCH   6  24
ATOM     24  O   UNL     1       8.415   5.425  13.416  0.00  0.00    +0.000 OA
ATOM     25  H   UNL     1       8.590   4.660  12.832  0.00  0.00    +0.000 HD
ENDBRANCH   6  24
TORSDOF 5
ENDMDL
MODEL 7
REMARK VINA RESULT:      -7.1      1.045      1.104
REMARK  Name = 
REMARK  5 active torsions:
REMARK  status: ('A' for Active; 'I' for Inactive)
REMARK    1  A    between atoms: C_2  and  O_3
REMARK    2  A    between atoms: C_2  and  C_4
REMARK    3  A    between atoms: C_9  and  C_10
REMARK    4  A    between atoms: C_14  and  O_15
REMARK    5  A    between atoms: C_16  and  O_17
REMARK                            x       y       z     vdW  Elec       q    Type
REMARK                         _______ _______ _______ _____ _____    ______ ____
ROOT
ATOM      1  C   UNL     1       3.849   4.324  17.382  0.00  0.00    +0.000 A 
ATOM      2  C   UNL     1       4.240   3.577  16.337  0.00  0.00    +0.000 A 
ATOM      3  C   UNL     1       5.214   4.100  15.384  0.00  0.00    +0.000 A 
ATOM      4  C   UNL     1       5.572   3.404  14.223  0.00  0.00    +0.000 A 
ATOM      5  C   UNL     1       6.550   3.939  13.385  0.00  0.00    +0.000 A 
ATOM      6  C   UNL     1       7.179   5.143  13.701  0.00  0.00    +0.000 A 
ATOM      7  C   UNL     1       6.830   5.847  14.842  0.00  0.00    +0.000 A 
ATOM      8  C   UNL     1       5.832   5.321  15.661  0.00  0.00    +0.000 A 
ATOM      9  O   UNL     1       5.426   6.100  16.759  0.00  0.00    +0.000 OA
ATOM     10  C   UNL     1       4.342   5.725  17.543  0.00  0.00    +0.000 A 
ATOM     11  O   UNL     1       3.801   6.516  18.310  0.00  0.00    +0.000 OA
ENDROOT
BRANCH   1  17
ATOM     12  C   UNL     1       3.302   3.119  19.560  0.00  0.00    +0.000 A 
ATOM     13  C   UNL     1       2.334   2.700  20.492  0.00  0.00    +0.000 A 
ATOM     14  C   UNL     1       0.975   2.876  20.231  0.00  0.00    +0.000 A 
ATOM     15  C   UNL     1       0.572   3.493  19.052  0.00  0.00    +0.000 A 
ATOM     16  C   UNL     1       1.524   3.948  18.137  0.00  0.00    +0.000 A 
ATOM     17  C   UNL     1       2.900   3.776  18.377  0.00  0.00    +0.000 A 
BRANCH  12  19
ATOM     18  O   UNL     1       5.575   3.788  19.897  0.00  0.00    +0.000 OA
ATOM     19  C   UNL     1       4.744   2.899  19.869  0.00  0.00    +0.000 C 
BRANCH  19  20
ATOM     20  O   UNL     1       5.067   1.602  20.067  0.00  0.00    +0.000 OA
ATOM     21  H   UNL     1       4.325   0.993  20.232  0.00  0.00    +0.000 HD
ENDBRANCH  19  20
ENDBRANCH  12  19
ENDBRANCH   1  17
BRANCH   5  22
ATOM     22  O   UNL     1       6.931   3.315  12.228  0.00  0.00    +0.000 OA
ATOM     23  H   UNL     1       7.329   3.976  11.636  0.00  0.00    +0.000 HD
ENDBRANCH   5  22
BRANCH   6  24
ATOM     24  O   UNL     1       8.143   5.646  12.875  0.00  0.00    +0.000 OA
ATOM     25  H   UNL     1       7.649   6.102  12.164  0.00  0.00    +0.000 HD
ENDBRANCH   6  24
TORSDOF 5
ENDMDL
MODEL 8
REMARK VINA RESULT:      -7.0      2.727      6.235
REMARK  Name = 
REMARK  5 active torsions:
REMARK  status: ('A' for Active; 'I' for Inactive)
REMARK    1  A    between atoms: C_2  and  O_3
REMARK    2  A    between atoms: C_2  and  C_4
REMARK    3  A    between atoms: C_9  and  C_10
REMARK    4  A    between atoms: C_14  and  O_15
REMARK    5  A    between atoms: C_16  and  O_17
REMARK                            x       y       z     vdW  Elec       q    Type
REMARK                         _______ _______ _______ _____ _____    ______ ____
ROOT
ATOM      1  C   UNL     1       5.267   5.859  17.748  0.00  0.00    +0.000 A 
ATOM      2  C   UNL     1       4.339   5.729  18.710  0.00  0.00    +0.000 A 
ATOM      3  C   UNL     1       3.325   4.683  18.615  0.00  0.00    +0.000 A 
ATOM      4  C   UNL     1       2.274   4.575  19.534  0.00  0.00    +0.000 A 
ATOM      5  C   UNL     1       1.372   3.517  19.413  0.00  0.00    +0.000 A 
ATOM      6  C   UNL     1       1.518   2.568  18.402  0.00  0.00    +0.000 A 
ATOM      7  C   UNL     1       2.548   2.666  17.481  0.00  0.00    +0.000 A 
ATOM      8  C   UNL     1       3.430   3.741  17.590  0.00  0.00    +0.000 A 
ATOM      9  O   UNL     1       4.406   3.874  16.587  0.00  0.00    +0.000 OA
ATOM     10  C   UNL     1       5.232   4.991  16.534  0.00  0.00    +0.000 A 
ATOM     11  O   UNL     1       5.878   5.263  15.526  0.00  0.00    +0.000 OA
ENDROOT
BRANCH   1  17
ATOM     12  C   UNL     1       7.574   6.652  18.486  0.00  0.00    +0.000 A 
ATOM     13  C   UNL     1       8.556   7.660  18.485  0.00  0.00    +0.000 A 
ATOM     14  C   UNL     1       8.287   8.912  17.930  0.00  0.00    +0.000 A 
ATOM     15  C   UNL     1       7.048   9.159  17.350  0.00  0.00    +0.000 A 
ATOM     16  C   UNL     1       6.079   8.153  17.311  0.00  0.00    +0.000 A 
ATOM     17  C   UNL     1       6.326   6.886  17.869  0.00  0.00    +0.000 A 
BRANCH  12  19
ATOM     18  O   UNL     1       8.085   4.313  18.464  0.00  0.00    +0.000 OA
ATOM     19  C   UNL     1       7.895   5.333  19.103  0.00  0.00    +0.000 C 
BRANCH  19  20
ATOM     20  O   UNL     1       7.907   5.351  20.454  0.00  0.00    +0.000 OA
ATOM     21  H   UNL     1       8.415   6.070  20.870  0.00  0.00    +0.000 HD
ENDBRANCH  19  20
ENDBRANCH  12  19
ENDBRANCH   1  17
BRANCH   5  22
ATOM     22  O   UNL     1       0.316   3.367  20.270  0.00  0.00    +0.000 OA
ATOM     23  H   UNL     1      -0.508   3.392  19.754  0.00  0.00    +0.000 HD
ENDBRANCH   5  22
BRANCH   6  24
ATOM     24  O   UNL     1       0.633   1.533  18.306  0.00  0.00    +0.000 OA
ATOM     25  H   UNL     1       1.098   0.769  18.704  0.00  0.00    +0.000 HD
ENDBRANCH   6  24
TORSDOF 5
ENDMDL
MODEL 9
REMARK VINA RESULT:      -6.8      4.322      7.471
REMARK  Name = 
REMARK  5 active torsions:
REMARK  status: ('A' for Active; 'I' for Inactive)
REMARK    1  A    between atoms: C_2  and  O_3
REMARK    2  A    between atoms: C_2  and  C_4
REMARK    3  A    between atoms: C_9  and  C_10
REMARK    4  A    between atoms: C_14  and  O_15
REMARK    5  A    between atoms: C_16  and  O_17
REMARK                            x       y       z     vdW  Elec       q    Type
REMARK                         _______ _______ _______ _____ _____    ______ ____
ROOT
ATOM      1  C   UNL     1       2.710   7.139  18.774  0.00  0.00    +0.000 A 
ATOM      2  C   UNL     1       2.344   7.149  20.066  0.00  0.00    +0.000 A 
ATOM      3  C   UNL     1       1.487   8.212  20.579  0.00  0.00    +0.000 A 
ATOM      4  C   UNL     1       1.166   8.325  21.937  0.00  0.00    +0.000 A 
ATOM      5  C   UNL     1       0.296   9.335  22.348  0.00  0.00    +0.000 A 
ATOM      6  C   UNL     1      -0.263  10.214  21.421  0.00  0.00    +0.000 A 
ATOM      7  C   UNL     1       0.050  10.120  20.076  0.00  0.00    +0.000 A 
ATOM      8  C   UNL     1       0.942   9.126  19.675  0.00  0.00    +0.000 A 
ATOM      9  O   UNL     1       1.321   9.112  18.320  0.00  0.00    +0.000 OA
ATOM     10  C   UNL     1       2.312   8.252  17.862  0.00  0.00    +0.000 A 
ATOM     11  O   UNL     1       2.851   8.419  16.771  0.00  0.00    +0.000 OA
ENDROOT
BRANCH   1  17
ATOM     12  C   UNL     1       3.032   4.747  17.956  0.00  0.00    +0.000 A 
ATOM     13  C   UNL     1       3.871   3.777  17.375  0.00  0.00    +0.000 A 
ATOM     14  C   UNL     1       5.216   4.057  17.130  0.00  0.00    +0.000 A 
ATOM     15  C   UNL     1       5.727   5.313  17.440  0.00  0.00    +0.000 A 
ATOM     16  C   UNL     1       4.895   6.295  17.982  0.00  0.00    +0.000 A 
ATOM     17  C   UNL     1       3.538   6.033  18.242  0.00  0.00    +0.000 A 
BRANCH  12  19
ATOM     18  O   UNL     1       1.173   4.074  19.306  0.00  0.00    +0.000 OA
ATOM     19  C   UNL     1       1.604   4.403  18.215  0.00  0.00    +0.000 C 
BRANCH  19  20
ATOM     20  O   UNL     1       0.826   4.438  17.112  0.00  0.00    +0.000 OA
ATOM     21  H   UNL     1       0.138   5.127  17.091  0.00  0.00    +0.000 HD
ENDBRANCH  19  20
ENDBRANCH  12  19
ENDBRANCH   1  17
BRANCH   5  22
ATOM     22  O   UNL     1      -0.042   9.507  23.663  0.00  0.00    +0.000 OA
ATOM     23  H   UNL     1       0.773   9.545  24.190  0.00  0.00    +0.000 HD
ENDBRANCH   5  22
BRANCH   6  24
ATOM     24  O   UNL     1      -1.122  11.190  21.840  0.00  0.00    +0.000 OA
ATOM     25  H   UNL     1      -1.596  10.796  22.600  0.00  0.00    +0.000 HD
ENDBRANCH   6  24
TORSDOF 5
ENDMDL
