MODEL 1
REMARK VINA RESULT:      -5.7      0.000      0.000
REMARK  Name = 
REMARK  15 active torsions:
REMARK  status: ('A' for Active; 'I' for Inactive)
REMARK    1  A    between atoms: C_1  and  N_2
REMARK    2  A    between atoms: C_3  and  C_5
REMARK    3  A    between atoms: C_5  and  C_6
REMARK    4  A    between atoms: C_6  and  C_7
REMARK    5  A    between atoms: C_7  and  C_8
REMARK    6  A    between atoms: C_8  and  C_9
REMARK    7  A    between atoms: C_9  and  C_10
REMARK    8  A    between atoms: C_10  and  C_11
REMARK    9  A    between atoms: C_11  and  C_12
REMARK   10  A    between atoms: C_12  and  C_13
REMARK   11  A    between atoms: C_13  and  C_14
REMARK   12  A    between atoms: C_14  and  C_15
REMARK   13  A    between atoms: C_15  and  C_16
REMARK   14  A    between atoms: C_16  and  C_17
REMARK   15  A    between atoms: N_19  and  C_20
REMARK                            x       y       z     vdW  Elec       q    Type
REMARK                         _______ _______ _______ _____ _____    ______ ____
ROOT
ATOM      1  C   UNL     1       1.079   3.136  19.461  0.00  0.00    +0.000 C 
ENDROOT
BRANCH   1   2
ATOM      2  C   UNL     1       1.577   3.314  18.019  0.00  0.00    +0.000 C 
BRANCH   2   3
ATOM      3  C   UNL     1       2.801   2.437  17.721  0.00  0.00    +0.000 C 
BRANCH   3   4
ATOM      4  C   UNL     1       4.095   3.241  17.737  0.00  0.00    +0.000 C 
BRANCH   4   5
ATOM      5  C   UNL     1       4.153   4.122  16.488  0.00  0.00    +0.000 C 
BRANCH   5   6
ATOM      6  C   UNL     1       5.046   5.342  16.702  0.00  0.00    +0.000 C 
BRANCH   6   9
ATOM      7  C   UNL     1       7.717   4.629  17.968  0.00  0.00    +0.000 C 
ATOM      8  N   UNL     1       7.569   4.830  16.545  0.00  0.00    +0.000 N 
ATOM      9  C   UNL     1       6.331   5.179  15.922  0.00  0.00    +0.000 C 
ATOM     10  N   UNL     1       6.291   5.353  14.647  0.00  0.00    +0.000 NA
ATOM     11  H   UNL     1       8.408   4.715  15.954  0.00  0.00    +0.000 HD
ATOM     12  H   UNL     1       7.131   5.249  14.058  0.00  0.00    +0.000 HD
ENDBRANCH   6   9
ENDBRANCH   5   6
ENDBRANCH   4   5
ENDBRANCH   3   4
ENDBRANCH   2   3
ENDBRANCH   1   2
BRANCH   1  13
ATOM     13  C   UNL     1       1.059   4.465  20.222  0.00  0.00    +0.000 C 
BRANCH  13  14
ATOM     14  C   UNL     1       2.429   4.819  20.785  0.00  0.00    +0.000 C 
BRANCH  14  15
ATOM     15  C   UNL     1       3.091   5.829  19.854  0.00  0.00    +0.000 C 
BRANCH  15  16
ATOM     16  C   UNL     1       2.232   7.076  19.682  0.00  0.00    +0.000 C 
BRANCH  16  17
ATOM     17  C   UNL     1       2.219   7.467  18.207  0.00  0.00    +0.000 C 
BRANCH  17  18
ATOM     18  C   UNL     1       2.287   8.982  18.023  0.00  0.00    +0.000 C 
BRANCH  18  19
ATOM     19  C   UNL     1       1.047   9.723  18.488  0.00  0.00    +0.000 C 
ATOM     20  N   UNL     1       0.983  10.334  19.627  0.00  0.00    +0.000 NA
ATOM     21  N   UNL     1      -0.082   9.736  17.619  0.00  0.00    +0.000 N 
ATOM     22  C   UNL     1      -1.324  10.406  17.939  0.00  0.00    +0.000 C 
ATOM     23  H   UNL     1       1.750  10.374  20.310  0.00  0.00    +0.000 HD
ATOM     24  H   UNL     1      -0.018   9.246  16.714  0.00  0.00    +0.000 HD
ENDBRANCH  18  19
ENDBRANCH  17  18
ENDBRANCH  16  17
ENDBRANCH  15  16
ENDBRANCH  14  15
ENDBRANCH  13  14
ENDBRANCH   1  13
TORSDOF 13
ENDMDL
MODEL 2
REMARK VINA RESULT:      -5.7      1.715      7.470
REMARK  Name = 
REMARK  15 active torsions:
REMARK  status: ('A' for Active; 'I' for Inactive)
REMARK    1  A    between atoms: C_1  and  N_2
REMARK    2  A    between atoms: C_3  and  C_5
REMARK    3  A    between atoms: C_5  and  C_6
REMARK    4  A    between atoms: C_6  and  C_7
REMARK    5  A    between atoms: C_7  and  C_8
REMARK    6  A    between atoms: C_8  and  C_9
REMARK    7  A    between atoms: C_9  and  C_10
REMARK    8  A    between atoms: C_10  and  C_11
REMARK    9  A    between atoms: C_11  and  C_12
REMARK   10  A    between atoms: C_12  and  C_13
REMARK   11  A    between atoms: C_13  and  C_14
REMARK   12  A    between atoms: C_14  and  C_15
REMARK   13  A    between atoms: C_15  and  C_16
REMARK   14  A    between atoms: C_16  and  C_17
REMARK   15  A    between atoms: N_19  and  C_20
REMARK                            x       y       z     vdW  Elec       q    Type
REMARK                         _______ _______ _______ _____ _____    ______ ____
ROOT
ATOM      1  C   UNL     1       2.112   7.533  19.656  0.00  0.00    +0.000 C 
ENDROOT
BRANCH   1   2
ATOM      2  C   UNL     1       2.313   7.941  18.189  0.00  0.00    +0.000 C 
BRANCH   2   3
ATOM      3  C   UNL     1       1.840   9.377  17.923  0.00  0.00    +0.000 C 
BRANCH   3   4
ATOM      4  C   UNL     1       0.330   9.456  17.739  0.00  0.00    +0.000 C 
BRANCH   4   5
ATOM      5  C   UNL     1      -0.275  10.249  18.898  0.00  0.00    +0.000 C 
BRANCH   5   6
ATOM      6  C   UNL     1      -1.681  10.743  18.568  0.00  0.00    +0.000 C 
BRANCH   6   9
ATOM      7  C   UNL     1      -2.910  10.348  15.814  0.00  0.00    +0.000 C 
ATOM      8  N   UNL     1      -2.215  11.561  16.180  0.00  0.00    +0.000 N 
ATOM      9  C   UNL     1      -1.616  11.771  17.461  0.00  0.00    +0.000 C 
ATOM     10  N   UNL     1      -1.004  12.878  17.698  0.00  0.00    +0.000 NA
ATOM     11  H   UNL     1      -2.152  12.310  15.472  0.00  0.00    +0.000 HD
ATOM     12  H   UNL     1      -0.930  13.622  16.988  0.00  0.00    +0.000 HD
ENDBRANCH   6   9
ENDBRANCH   5   6
ENDBRANCH   4   5
ENDBRANCH   3   4
ENDBRANCH   2   3
ENDBRANCH   1   2
BRANCH   1  13
ATOM     13  C   UNL     1       2.691   6.144  19.943  0.00  0.00    +0.000 C 
BRANCH  13  14
ATOM     14  C   UNL     1       1.636   5.190  20.484  0.00  0.00    +0.000 C 
BRANCH  14  15
ATOM     15  C   UNL     1       1.667   3.910  19.655  0.00  0.00    +0.000 C 
BRANCH  15  16
ATOM     16  C   UNL     1       1.548   4.208  18.165  0.00  0.00    +0.000 C 
BRANCH  16  17
ATOM     17  C   UNL     1       2.507   3.299  17.402  0.00  0.00    +0.000 C 
BRANCH  17  18
ATOM     18  C   UNL     1       3.793   3.047  18.189  0.00  0.00    +0.000 C 
BRANCH  18  19
ATOM     19  C   UNL     1       4.916   4.017  17.878  0.00  0.00    +0.000 C 
ATOM     20  N   UNL     1       6.037   4.021  18.525  0.00  0.00    +0.000 NA
ATOM     21  N   UNL     1       4.708   4.955  16.826  0.00  0.00    +0.000 N 
ATOM     22  C   UNL     1       5.697   5.934  16.426  0.00  0.00    +0.000 C 
ATOM     23  H   UNL     1       6.267   3.379  19.294  0.00  0.00    +0.000 HD
ATOM     24  H   UNL     1       3.811   4.942  16.319  0.00  0.00    +0.000 HD
ENDBRANCH  18  19
ENDBRANCH  17  18
ENDBRANCH  16  17
ENDBRANCH  15  16
ENDBRANCH  14  15
ENDBRANCH  13  14
ENDBRANCH   1  13
TORSDOF 13
ENDMDL
MODEL 3
REMARK VINA RESULT:      -5.6      1.573      2.414
REMARK  Name = 
REMARK  15 active torsions:
REMARK  status: ('A' for Active; 'I' for Inactive)
REMARK    1  A    between atoms: C_1  and  N_2
REMARK    2  A    between atoms: C_3  and  C_5
REMARK    3  A    between atoms: C_5  and  C_6
REMARK    4  A    between atoms: C_6  and  C_7
REMARK    5  A    between atoms: C_7  and  C_8
REMARK    6  A    between atoms: C_8  and  C_9
REMARK    7  A    between atoms: C_9  and  C_10
REMARK    8  A    between atoms: C_10  and  C_11
REMARK    9  A    between atoms: C_11  and  C_12
REMARK   10  A    between atoms: C_12  and  C_13
REMARK   11  A    between atoms: C_13  and  C_14
REMARK   12  A    between atoms: C_14  and  C_15
REMARK   13  A    between atoms: C_15  and  C_16
REMARK   14  A    between atoms: C_16  and  C_17
REMARK   15  A    between atoms: N_19  and  C_20
REMARK                            x       y       z     vdW  Elec       q    Type
REMARK                         _______ _______ _______ _____ _____    ______ ____
ROOT
ATOM      1  C   UNL     1       1.489   1.837  18.645  0.00  0.00    +0.000 C 
ENDROOT
BRANCH   1   2
ATOM      2  C   UNL     1       2.799   2.203  17.931  0.00  0.00    +0.000 C 
BRANCH   2   3
ATOM      3  C   UNL     1       2.628   3.415  17.004  0.00  0.00    +0.000 C 
BRANCH   3   4
ATOM      4  C   UNL     1       3.563   4.557  17.381  0.00  0.00    +0.000 C 
BRANCH   4   5
ATOM      5  C   UNL     1       4.887   3.977  17.881  0.00  0.00    +0.000 C 
BRANCH   5   6
ATOM      6  C   UNL     1       5.978   5.043  17.945  0.00  0.00    +0.000 C 
BRANCH   6   9
ATOM      7  C   UNL     1       6.072   5.156  14.908  0.00  0.00    +0.000 C 
ATOM      8  N   UNL     1       7.188   4.684  15.695  0.00  0.00    +0.000 N 
ATOM      9  C   UNL     1       7.169   4.606  17.122  0.00  0.00    +0.000 C 
ATOM     10  N   UNL     1       8.204   4.160  17.745  0.00  0.00    +0.000 NA
ATOM     11  H   UNL     1       8.039   4.387  15.192  0.00  0.00    +0.000 HD
ATOM     12  H   UNL     1       9.050   3.853  17.243  0.00  0.00    +0.000 HD
ENDBRANCH   6   9
ENDBRANCH   5   6
ENDBRANCH   4   5
ENDBRANCH   3   4
ENDBRANCH   2   3
ENDBRANCH   1   2
BRANCH   1  13
ATOM     13  C   UNL     1       1.101   2.886  19.692  0.00  0.00    +0.000 C 
BRANCH  13  14
ATOM     14  C   UNL     1       1.564   2.493  21.088  0.00  0.00    +0.000 C 
BRANCH  14  15
ATOM     15  C   UNL     1       2.291   3.681  21.710  0.00  0.00    +0.000 C 
BRANCH  15  16
ATOM     16  C   UNL     1       2.577   4.764  20.676  0.00  0.00    +0.000 C 
BRANCH  16  17
ATOM     17  C   UNL     1       1.574   5.899  20.861  0.00  0.00    +0.000 C 
BRANCH  17  18
ATOM     18  C   UNL     1       1.967   7.137  20.055  0.00  0.00    +0.000 C 
BRANCH  18  19
ATOM     19  C   UNL     1       1.523   8.450  20.672  0.00  0.00    +0.000 C 
ATOM     20  N   UNL     1       1.529   8.661  21.949  0.00  0.00    +0.000 NA
ATOM     21  N   UNL     1       1.085   9.480  19.791  0.00  0.00    +0.000 N 
ATOM     22  C   UNL     1       0.638  10.780  20.247  0.00  0.00    +0.000 C 
ATOM     23  H   UNL     1       1.829   7.973  22.650  0.00  0.00    +0.000 HD
ATOM     24  H   UNL     1       1.086   9.300  18.776  0.00  0.00    +0.000 HD
ENDBRANCH  18  19
ENDBRANCH  17  18
ENDBRANCH  16  17
ENDBRANCH  15  16
ENDBRANCH  14  15
ENDBRANCH  13  14
ENDBRANCH   1  13
TORSDOF 13
ENDMDL
MODEL 4
REMARK VINA RESULT:      -5.6      3.111      5.462
REMARK  Name = 
REMARK  15 active torsions:
REMARK  status: ('A' for Active; 'I' for Inactive)
REMARK    1  A    between atoms: C_1  and  N_2
REMARK    2  A    between atoms: C_3  and  C_5
REMARK    3  A    between atoms: C_5  and  C_6
REMARK    4  A    between atoms: C_6  and  C_7
REMARK    5  A    between atoms: C_7  and  C_8
REMARK    6  A    between atoms: C_8  and  C_9
REMARK    7  A    between atoms: C_9  and  C_10
REMARK    8  A    between atoms: C_10  and  C_11
REMARK    9  A    between atoms: C_11  and  C_12
REMARK   10  A    between atoms: C_12  and  C_13
REMARK   11  A    between atoms: C_13  and  C_14
REMARK   12  A    between atoms: C_14  and  C_15
REMARK   13  A    between atoms: C_15  and  C_16
REMARK   14  A    between atoms: C_16  and  C_17
REMARK   15  A    between atoms: N_19  and  C_20
REMARK                            x       y       z     vdW  Elec       q    Type
REMARK                         _______ _______ _______ _____ _____    ______ ____
ROOT
ATOM      1  C   UNL     1       1.701   6.114  20.890  0.00  0.00    +0.000 C 
ENDROOT
BRANCH   1   2
ATOM      2  C   UNL     1       2.344   4.730  20.717  0.00  0.00    +0.000 C 
BRANCH   2   3
ATOM      3  C   UNL     1       1.364   3.596  21.049  0.00  0.00    +0.000 C 
BRANCH   3   4
ATOM      4  C   UNL     1       0.734   3.002  19.795  0.00  0.00    +0.000 C 
BRANCH   4   5
ATOM      5  C   UNL     1       1.754   3.040  18.656  0.00  0.00    +0.000 C 
BRANCH   5   6
ATOM      6  C   UNL     1       2.696   1.840  18.704  0.00  0.00    +0.000 C 
BRANCH   6   9
ATOM      7  C   UNL     1       4.124   3.505  16.599  0.00  0.00    +0.000 C 
ATOM      8  N   UNL     1       4.765   3.109  17.831  0.00  0.00    +0.000 N 
ATOM      9  C   UNL     1       4.125   2.315  18.833  0.00  0.00    +0.000 C 
ATOM     10  N   UNL     1       4.775   1.996  19.898  0.00  0.00    +0.000 NA
ATOM     11  H   UNL     1       5.738   3.418  17.988  0.00  0.00    +0.000 HD
ATOM     12  H   UNL     1       5.750   2.295  20.049  0.00  0.00    +0.000 HD
ENDBRANCH   6   9
ENDBRANCH   5   6
ENDBRANCH   4   5
ENDBRANCH   3   4
ENDBRANCH   2   3
ENDBRANCH   1   2
BRANCH   1  13
ATOM     13  C   UNL     1       2.095   7.068  19.758  0.00  0.00    +0.000 C 
BRANCH  13  14
ATOM     14  C   UNL     1       3.182   6.478  18.871  0.00  0.00    +0.000 C 
BRANCH  14  15
ATOM     15  C   UNL     1       3.404   7.414  17.687  0.00  0.00    +0.000 C 
BRANCH  15  16
ATOM     16  C   UNL     1       4.659   7.041  16.908  0.00  0.00    +0.000 C 
BRANCH  16  17
ATOM     17  C   UNL     1       5.778   6.728  17.897  0.00  0.00    +0.000 C 
BRANCH  17  18
ATOM     18  C   UNL     1       7.121   6.543  17.191  0.00  0.00    +0.000 C 
BRANCH  18  19
ATOM     19  C   UNL     1       7.201   5.309  16.313  0.00  0.00    +0.000 C 
ATOM     20  N   UNL     1       7.723   4.196  16.715  0.00  0.00    +0.000 NA
ATOM     21  N   UNL     1       6.672   5.401  14.993  0.00  0.00    +0.000 N 
ATOM     22  C   UNL     1       6.682   4.299  14.053  0.00  0.00    +0.000 C 
ATOM     23  H   UNL     1       8.125   4.046  17.650  0.00  0.00    +0.000 HD
ATOM     24  H   UNL     1       6.258   6.293  14.684  0.00  0.00    +0.000 HD
ENDBRANCH  18  19
ENDBRANCH  17  18
ENDBRANCH  16  17
ENDBRANCH  15  16
ENDBRANCH  14  15
ENDBRANCH  13  14
ENDBRANCH   1  13
TORSDOF 13
ENDMDL
MODEL 5
REMARK VINA RESULT:      -5.5      3.827      7.310
REMARK  Name = 
REMARK  15 active torsions:
REMARK  status: ('A' for Active; 'I' for Inactive)
REMARK    1  A    between atoms: C_1  and  N_2
REMARK    2  A    between atoms: C_3  and  C_5
REMARK    3  A    between atoms: C_5  and  C_6
REMARK    4  A    between atoms: C_6  and  C_7
REMARK    5  A    between atoms: C_7  and  C_8
REMARK    6  A    between atoms: C_8  and  C_9
REMARK    7  A    between atoms: C_9  and  C_10
REMARK    8  A    between atoms: C_10  and  C_11
REMARK    9  A    between atoms: C_11  and  C_12
REMARK   10  A    between atoms: C_12  and  C_13
REMARK   11  A    between atoms: C_13  and  C_14
REMARK   12  A    between atoms: C_14  and  C_15
REMARK   13  A    between atoms: C_15  and  C_16
REMARK   14  A    between atoms: C_16  and  C_17
REMARK   15  A    between atoms: N_19  and  C_20
REMARK                            x       y       z     vdW  Elec       q    Type
REMARK                         _______ _______ _______ _____ _____    ______ ____
ROOT
ATOM      1  C   UNL     1       5.457   5.474  19.269  0.00  0.00    +0.000 C 
ENDROOT
BRANCH   1   2
ATOM      2  C   UNL     1       4.569   5.038  18.094  0.00  0.00    +0.000 C 
BRANCH   2   3
ATOM      3  C   UNL     1       3.125   5.533  18.252  0.00  0.00    +0.000 C 
BRANCH   3   4
ATOM      4  C   UNL     1       2.111   4.444  17.927  0.00  0.00    +0.000 C 
BRANCH   4   5
ATOM      5  C   UNL     1       2.854   3.150  17.593  0.00  0.00    +0.000 C 
BRANCH   5   6
ATOM      6  C   UNL     1       2.561   2.054  18.615  0.00  0.00    +0.000 C 
BRANCH   6   9
ATOM      7  C   UNL     1       1.646   3.073  21.330  0.00  0.00    +0.000 C 
ATOM      8  N   UNL     1       3.013   2.679  21.077  0.00  0.00    +0.000 N 
ATOM      9  C   UNL     1       3.476   2.209  19.809  0.00  0.00    +0.000 C 
ATOM     10  N   UNL     1       4.715   1.891  19.667  0.00  0.00    +0.000 NA
ATOM     11  H   UNL     1       3.684   2.745  21.859  0.00  0.00    +0.000 HD
ATOM     12  H   UNL     1       5.389   1.967  20.444  0.00  0.00    +0.000 HD
ENDBRANCH   6   9
ENDBRANCH   5   6
ENDBRANCH   4   5
ENDBRANCH   3   4
ENDBRANCH   2   3
ENDBRANCH   1   2
BRANCH   1  13
ATOM     13  C   UNL     1       6.937   5.520  18.876  0.00  0.00    +0.000 C 
BRANCH  13  14
ATOM     14  C   UNL     1       7.138   6.115  17.489  0.00  0.00    +0.000 C 
BRANCH  14  15
ATOM     15  C   UNL     1       7.236   4.975  16.481  0.00  0.00    +0.000 C 
BRANCH  15  16
ATOM     16  C   UNL     1       6.747   5.404  15.103  0.00  0.00    +0.000 C 
BRANCH  16  17
ATOM     17  C   UNL     1       6.151   4.193  14.392  0.00  0.00    +0.000 C 
BRANCH  17  18
ATOM     18  C   UNL     1       6.588   4.124  12.929  0.00  0.00    +0.000 C 
BRANCH  18  19
ATOM     19  C   UNL     1       5.861   3.076  12.109  0.00  0.00    +0.000 C 
ATOM     20  N   UNL     1       4.607   3.173  11.802  0.00  0.00    +0.000 NA
ATOM     21  N   UNL     1       6.607   1.945  11.667  0.00  0.00    +0.000 N 
ATOM     22  C   UNL     1       6.036   0.874  10.878  0.00  0.00    +0.000 C 
ATOM     23  H   UNL     1       4.000   3.954  12.079  0.00  0.00    +0.000 HD
ATOM     24  H   UNL     1       7.604   1.879  11.919  0.00  0.00    +0.000 HD
ENDBRANCH  18  19
ENDBRANCH  17  18
ENDBRANCH  16  17
ENDBRANCH  15  16
ENDBRANCH  14  15
ENDBRANCH  13  14
ENDBRANCH   1  13
TORSDOF 13
ENDMDL
MODEL 6
REMARK VINA RESULT:      -5.5      4.073      6.518
REMARK  Name = 
REMARK  15 active torsions:
REMARK  status: ('A' for Active; 'I' for Inactive)
REMARK    1  A    between atoms: C_1  and  N_2
REMARK    2  A    between atoms: C_3  and  C_5
REMARK    3  A    between atoms: C_5  and  C_6
REMARK    4  A    between atoms: C_6  and  C_7
REMARK    5  A    between atoms: C_7  and  C_8
REMARK    6  A    between atoms: C_8  and  C_9
REMARK    7  A    between atoms: C_9  and  C_10
REMARK    8  A    between atoms: C_10  and  C_11
REMARK    9  A    between atoms: C_11  and  C_12
REMARK   10  A    between atoms: C_12  and  C_13
REMARK   11  A    between atoms: C_13  and  C_14
REMARK   12  A    between atoms: C_14  and  C_15
REMARK   13  A    between atoms: C_15  and  C_16
REMARK   14  A    between atoms: C_16  and  C_17
REMARK   15  A    between atoms: N_19  and  C_20
REMARK                            x       y       z     vdW  Elec       q    Type
REMARK                         _______ _______ _______ _____ _____    ______ ____
ROOT
ATOM      1  C   UNL     1       4.700   4.258  15.813  0.00  0.00    +0.000 C 
ENDROOT
BRANCH   1   2
ATOM      2  C   UNL     1       4.643   3.707  17.246  0.00  0.00    +0.000 C 
BRANCH   2   3
ATOM      3  C   UNL     1       3.301   3.026  17.546  0.00  0.00    +0.000 C 
BRANCH   3   4
ATOM      4  C   UNL     1       3.280   2.392  18.931  0.00  0.00    +0.000 C 
BRANCH   4   5
ATOM      5  C   UNL     1       1.841   2.022  19.291  0.00  0.00    +0.000 C 
BRANCH   5   6
ATOM      6  C   UNL     1       1.088   3.210  19.887  0.00  0.00    +0.000 C 
BRANCH   6   9
ATOM      7  C   UNL     1       2.309   5.990  20.030  0.00  0.00    +0.000 C 
ATOM      8  N   UNL     1       2.389   5.058  21.130  0.00  0.00    +0.000 N 
ATOM      9  C   UNL     1       1.837   3.740  21.089  0.00  0.00    +0.000 C 
ATOM     10  N   UNL     1       1.965   2.968  22.111  0.00  0.00    +0.000 NA
ATOM     11  H   UNL     1       2.874   5.367  21.988  0.00  0.00    +0.000 HD
ATOM     12  H   UNL     1       2.459   3.272  22.963  0.00  0.00    +0.000 HD
ENDBRANCH   6   9
ENDBRANCH   5   6
ENDBRANCH   4   5
ENDBRANCH   3   4
ENDBRANCH   2   3
ENDBRANCH   1   2
BRANCH   1  13
ATOM     13  C   UNL     1       5.421   5.608  15.753  0.00  0.00    +0.000 C 
BRANCH  13  14
ATOM     14  C   UNL     1       4.968   6.545  16.864  0.00  0.00    +0.000 C 
BRANCH  14  15
ATOM     15  C   UNL     1       6.114   7.494  17.197  0.00  0.00    +0.000 C 
BRANCH  15  16
ATOM     16  C   UNL     1       7.347   6.736  17.671  0.00  0.00    +0.000 C 
BRANCH  16  17
ATOM     17  C   UNL     1       8.262   7.701  18.420  0.00  0.00    +0.000 C 
BRANCH  17  18
ATOM     18  C   UNL     1       8.133   9.128  17.889  0.00  0.00    +0.000 C 
BRANCH  18  19
ATOM     19  C   UNL     1       8.991  10.145  18.618  0.00  0.00    +0.000 C 
ATOM     20  N   UNL     1       9.373   9.988  19.844  0.00  0.00    +0.000 NA
ATOM     21  N   UNL     1       9.382  11.314  17.904  0.00  0.00    +0.000 N 
ATOM     22  C   UNL     1      10.200  12.361  18.479  0.00  0.00    +0.000 C 
ATOM     23  H   UNL     1       9.136   9.175  20.427  0.00  0.00    +0.000 HD
ATOM     24  H   UNL     1       9.071  11.427  16.928  0.00  0.00    +0.000 HD
ENDBRANCH  18  19
ENDBRANCH  17  18
ENDBRANCH  16  17
ENDBRANCH  15  16
ENDBRANCH  14  15
ENDBRANCH  13  14
ENDBRANCH   1  13
TORSDOF 13
ENDMDL
MODEL 7
REMARK VINA RESULT:      -5.4      1.880      6.963
REMARK  Name = 
REMARK  15 active torsions:
REMARK  status: ('A' for Active; 'I' for Inactive)
REMARK    1  A    between atoms: C_1  and  N_2
REMARK    2  A    between atoms: C_3  and  C_5
REMARK    3  A    between atoms: C_5  and  C_6
REMARK    4  A    between atoms: C_6  and  C_7
REMARK    5  A    between atoms: C_7  and  C_8
REMARK    6  A    between atoms: C_8  and  C_9
REMARK    7  A    between atoms: C_9  and  C_10
REMARK    8  A    between atoms: C_10  and  C_11
REMARK    9  A    between atoms: C_11  and  C_12
REMARK   10  A    between atoms: C_12  and  C_13
REMARK   11  A    between atoms: C_13  and  C_14
REMARK   12  A    between atoms: C_14  and  C_15
REMARK   13  A    between atoms: C_15  and  C_16
REMARK   14  A    between atoms: C_16  and  C_17
REMARK   15  A    between atoms: N_19  and  C_20
REMARK                            x       y       z     vdW  Elec       q    Type
REMARK                         _______ _______ _______ _____ _____    ______ ____
ROOT
ATOM      1  C   UNL     1       2.399   6.651  19.866  0.00  0.00    +0.000 C 
ENDROOT
BRANCH   1   2
ATOM      2  C   UNL     1       2.655   6.795  18.358  0.00  0.00    +0.000 C 
BRANCH   2   3
ATOM      3  C   UNL     1       2.704   8.265  17.921  0.00  0.00    +0.000 C 
BRANCH   3   4
ATOM      4  C   UNL     1       1.327   8.916  17.951  0.00  0.00    +0.000 C 
BRANCH   4   5
ATOM      5  C   UNL     1       1.264   9.904  19.116  0.00  0.00    +0.000 C 
BRANCH   5   6
ATOM      6  C   UNL     1       0.727  11.263  18.672  0.00  0.00    +0.000 C 
BRANCH   6   9
ATOM      7  C   UNL     1       1.418  13.217  20.897  0.00  0.00    +0.000 C 
ATOM      8  N   UNL     1       2.168  13.159  19.664  0.00  0.00    +0.000 N 
ATOM      9  C   UNL     1       1.860  12.261  18.595  0.00  0.00    +0.000 C 
ATOM     10  N   UNL     1       2.574  12.285  17.524  0.00  0.00    +0.000 NA
ATOM     11  H   UNL     1       2.967  13.804  19.557  0.00  0.00    +0.000 HD
ATOM     12  H   UNL     1       3.364  12.937  17.412  0.00  0.00    +0.000 HD
ENDBRANCH   6   9
ENDBRANCH   5   6
ENDBRANCH   4   5
ENDBRANCH   3   4
ENDBRANCH   2   3
ENDBRANCH   1   2
BRANCH   1  13
ATOM     13  C   UNL     1       2.470   5.189  20.317  0.00  0.00    +0.000 C 
BRANCH  13  14
ATOM     14  C   UNL     1       1.086   4.572  20.461  0.00  0.00    +0.000 C 
BRANCH  14  15
ATOM     15  C   UNL     1       1.080   3.222  19.750  0.00  0.00    +0.000 C 
BRANCH  15  16
ATOM     16  C   UNL     1       1.371   3.374  18.262  0.00  0.00    +0.000 C 
BRANCH  16  17
ATOM     17  C   UNL     1       2.672   2.646  17.937  0.00  0.00    +0.000 C 
BRANCH  17  18
ATOM     18  C   UNL     1       3.654   3.549  17.192  0.00  0.00    +0.000 C 
BRANCH  18  19
ATOM     19  C   UNL     1       5.001   3.702  17.874  0.00  0.00    +0.000 C 
ATOM     20  N   UNL     1       5.238   3.253  19.064  0.00  0.00    +0.000 NA
ATOM     21  N   UNL     1       6.033   4.372  17.156  0.00  0.00    +0.000 N 
ATOM     22  C   UNL     1       7.363   4.585  17.688  0.00  0.00    +0.000 C 
ATOM     23  H   UNL     1       4.551   2.759  19.647  0.00  0.00    +0.000 HD
ATOM     24  H   UNL     1       5.831   4.726  16.209  0.00  0.00    +0.000 HD
ENDBRANCH  18  19
ENDBRANCH  17  18
ENDBRANCH  16  17
ENDBRANCH  15  16
ENDBRANCH  14  15
ENDBRANCH  13  14
ENDBRANCH   1  13
TORSDOF 13
ENDMDL
MODEL 8
REMARK VINA RESULT:      -5.4      1.683      7.978
REMARK  Name = 
REMARK  15 active torsions:
REMARK  status: ('A' for Active; 'I' for Inactive)
REMARK    1  A    between atoms: C_1  and  N_2
REMARK    2  A    between atoms: C_3  and  C_5
REMARK    3  A    between atoms: C_5  and  C_6
REMARK    4  A    between atoms: C_6  and  C_7
REMARK    5  A    between atoms: C_7  and  C_8
REMARK    6  A    between atoms: C_8  and  C_9
REMARK    7  A    between atoms: C_9  and  C_10
REMARK    8  A    between atoms: C_10  and  C_11
REMARK    9  A    between atoms: C_11  and  C_12
REMARK   10  A    between atoms: C_12  and  C_13
REMARK   11  A    between atoms: C_13  and  C_14
REMARK   12  A    between atoms: C_14  and  C_15
REMARK   13  A    between atoms: C_15  and  C_16
REMARK   14  A    between atoms: C_16  and  C_17
REMARK   15  A    between atoms: N_19  and  C_20
REMARK                            x       y       z     vdW  Elec       q    Type
REMARK                         _______ _______ _______ _____ _____    ______ ____
ROOT
ATOM      1  C   UNL     1       2.385   7.579  19.175  0.00  0.00    +0.000 C 
ENDROOT
BRANCH   1   2
ATOM      2  C   UNL     1       2.329   8.507  17.952  0.00  0.00    +0.000 C 
BRANCH   2   3
ATOM      3  C   UNL     1       1.106   9.433  17.989  0.00  0.00    +0.000 C 
BRANCH   3   4
ATOM      4  C   UNL     1       0.655   9.726  19.414  0.00  0.00    +0.000 C 
BRANCH   4   5
ATOM      5  C   UNL     1      -0.749  10.330  19.382  0.00  0.00    +0.000 C 
BRANCH   5   6
ATOM      6  C   UNL     1      -1.333  10.319  17.970  0.00  0.00    +0.000 C 
BRANCH   6   9
ATOM      7  C   UNL     1      -4.314  10.820  17.642  0.00  0.00    +0.000 C 
ATOM      8  N   UNL     1      -3.338  11.877  17.517  0.00  0.00    +0.000 N 
ATOM      9  C   UNL     1      -1.930  11.671  17.653  0.00  0.00    +0.000 C 
ATOM     10  N   UNL     1      -1.129  12.669  17.513  0.00  0.00    +0.000 NA
ATOM     11  H   UNL     1      -3.685  12.830  17.318  0.00  0.00    +0.000 HD
ATOM     12  H   UNL     1      -1.473  13.617  17.303  0.00  0.00    +0.000 HD
ENDBRANCH   6   9
ENDBRANCH   5   6
ENDBRANCH   4   5
ENDBRANCH   3   4
ENDBRANCH   2   3
ENDBRANCH   1   2
BRANCH   1  13
ATOM     13  C   UNL     1       2.921   6.191  18.810  0.00  0.00    +0.000 C 
BRANCH  13  14
ATOM     14  C   UNL     1       1.940   5.413  17.944  0.00  0.00    +0.000 C 
BRANCH  14  15
ATOM     15  C   UNL     1       1.902   3.968  18.432  0.00  0.00    +0.000 C 
BRANCH  15  16
ATOM     16  C   UNL     1       2.551   3.023  17.429  0.00  0.00    +0.000 C 
BRANCH  16  17
ATOM     17  C   UNL     1       4.062   3.044  17.639  0.00  0.00    +0.000 C 
BRANCH  17  18
ATOM     18  C   UNL     1       4.781   3.775  16.506  0.00  0.00    +0.000 C 
BRANCH  18  19
ATOM     19  C   UNL     1       5.846   4.751  16.968  0.00  0.00    +0.000 C 
ATOM     20  N   UNL     1       6.019   5.910  16.420  0.00  0.00    +0.000 NA
ATOM     21  N   UNL     1       6.680   4.355  18.053  0.00  0.00    +0.000 N 
ATOM     22  C   UNL     1       7.732   5.190  18.593  0.00  0.00    +0.000 C 
ATOM     23  H   UNL     1       5.461   6.271  15.636  0.00  0.00    +0.000 HD
ATOM     24  H   UNL     1       6.532   3.429  18.482  0.00  0.00    +0.000 HD
ENDBRANCH  18  19
ENDBRANCH  17  18
ENDBRANCH  16  17
ENDBRANCH  15  16
ENDBRANCH  14  15
ENDBRANCH  13  14
ENDBRANCH   1  13
TORSDOF 13
ENDMDL
MODEL 9
REMARK VINA RESULT:      -5.4      5.631      8.589
REMARK  Name = 
REMARK  15 active torsions:
REMARK  status: ('A' for Active; 'I' for Inactive)
REMARK    1  A    between atoms: C_1  and  N_2
REMARK    2  A    between atoms: C_3  and  C_5
REMARK    3  A    between atoms: C_5  and  C_6
REMARK    4  A    between atoms: C_6  and  C_7
REMARK    5  A    between atoms: C_7  and  C_8
REMARK    6  A    between atoms: C_8  and  C_9
REMARK    7  A    between atoms: C_9  and  C_10
REMARK    8  A    between atoms: C_10  and  C_11
REMARK    9  A    between atoms: C_11  and  C_12
REMARK   10  A    between atoms: C_12  and  C_13
REMARK   11  A    between atoms: C_13  and  C_14
REMARK   12  A    between atoms: C_14  and  C_15
REMARK   13  A    between atoms: C_15  and  C_16
REMARK   14  A    between atoms: C_16  and  C_17
REMARK   15  A    between atoms: N_19  and  C_20
REMARK                            x       y       z     vdW  Elec       q    Type
REMARK                         _______ _______ _______ _____ _____    ______ ____
ROOT
ATOM      1  C   UNL     1       7.649   7.800  17.502  0.00  0.00    +0.000 C 
ENDROOT
BRANCH   1   2
ATOM      2  C   UNL     1       8.127   9.237  17.759  0.00  0.00    +0.000 C 
BRANCH   2   3
ATOM      3  C   UNL     1       8.979   9.340  19.031  0.00  0.00    +0.000 C 
BRANCH   3   4
ATOM      4  C   UNL     1       9.524  10.747  19.240  0.00  0.00    +0.000 C 
BRANCH   4   5
ATOM      5  C   UNL     1       9.154  11.612  18.034  0.00  0.00    +0.000 C 
BRANCH   5   6
ATOM      6  C   UNL     1       9.210  13.100  18.371  0.00  0.00    +0.000 C 
BRANCH   6   9
ATOM      7  C   UNL     1      11.696  13.423  16.650  0.00  0.00    +0.000 C 
ATOM      8  N   UNL     1      11.723  13.608  18.082  0.00  0.00    +0.000 N 
ATOM      9  C   UNL     1      10.575  13.450  18.919  0.00  0.00    +0.000 C 
ATOM     10  N   UNL     1      10.690  13.621  20.190  0.00  0.00    +0.000 NA
ATOM     11  H   UNL     1      12.623  13.866  18.517  0.00  0.00    +0.000 HD
ATOM     12  H   UNL     1      11.592  13.868  20.626  0.00  0.00    +0.000 HD
ENDBRANCH   6   9
ENDBRANCH   5   6
ENDBRANCH   4   5
ENDBRANCH   3   4
ENDBRANCH   2   3
ENDBRANCH   1   2
BRANCH   1  13
ATOM     13  C   UNL     1       8.070   6.852  18.629  0.00  0.00    +0.000 C 
BRANCH  13  14
ATOM     14  C   UNL     1       7.545   5.440  18.410  0.00  0.00    +0.000 C 
BRANCH  14  15
ATOM     15  C   UNL     1       6.198   5.308  19.112  0.00  0.00    +0.000 C 
BRANCH  15  16
ATOM     16  C   UNL     1       5.189   4.560  18.249  0.00  0.00    +0.000 C 
BRANCH  16  17
ATOM     17  C   UNL     1       5.349   5.011  16.801  0.00  0.00    +0.000 C 
BRANCH  17  18
ATOM     18  C   UNL     1       5.706   3.845  15.881  0.00  0.00    +0.000 C 
BRANCH  18  19
ATOM     19  C   UNL     1       6.485   4.242  14.641  0.00  0.00    +0.000 C 
ATOM     20  N   UNL     1       7.371   5.186  14.644  0.00  0.00    +0.000 NA
ATOM     21  N   UNL     1       6.216   3.535  13.434  0.00  0.00    +0.000 N 
ATOM     22  C   UNL     1       6.889   3.812  12.183  0.00  0.00    +0.000 C 
ATOM     23  H   UNL     1       7.624   5.743  15.470  0.00  0.00    +0.000 HD
ATOM     24  H   UNL     1       5.509   2.785  13.445  0.00  0.00    +0.000 HD
ENDBRANCH  18  19
ENDBRANCH  17  18
ENDBRANCH  16  17
ENDBRANCH  15  16
ENDBRANCH  14  15
ENDBRANCH  13  14
ENDBRANCH   1  13
TORSDOF 13
ENDMDL
