MODEL 1
REMARK VINA RESULT:      -8.4      0.000      0.000
REMARK  Name = 
REMARK  10 active torsions:
REMARK  status: ('A' for Active; 'I' for Inactive)
REMARK    1  A    between atoms: C_1  and  C_2
REMARK    2  A    between atoms: C_2  and  O_4
REMARK    3  A    between atoms: O_4  and  C_5
REMARK    4  A    between atoms: C_5  and  C_6
REMARK    5  A    between atoms: N_8  and  C_9
REMARK    6  A    between atoms: N_12  and  C_13
REMARK    7  A    between atoms: C_13  and  C_14
REMARK    8  A    between atoms: C_14  and  C_15
REMARK    9  A    between atoms: C_18  and  O_19
REMARK   10  A    between atoms: O_19  and  C_20
REMARK                            x       y       z     vdW  Elec       q    Type
REMARK                         _______ _______ _______ _____ _____    ______ ____
ROOT
ATOM      1  C   UNL     1       8.459   9.580  17.952  0.00  0.00    +0.000 C 
ENDROOT
BRANCH   1   2
ATOM      2  C   UNL     1       7.895   8.180  17.915  0.00  0.00    +0.000 A 
ATOM      3  C   UNL     1       6.910   7.827  16.986  0.00  0.00    +0.000 A 
ATOM      4  C   UNL     1       6.396   6.527  16.967  0.00  0.00    +0.000 A 
ATOM      5  C   UNL     1       6.873   5.568  17.861  0.00  0.00    +0.000 A 
ATOM      6  C   UNL     1       7.847   5.915  18.797  0.00  0.00    +0.000 A 
ATOM      7  C   UNL     1       8.354   7.219  18.826  0.00  0.00    +0.000 A 
BRANCH   5   8
ATOM      8  O   UNL     1       6.263   4.336  17.829  0.00  0.00    +0.000 OA
BRANCH   8   9
ATOM      9  C   UNL     1       5.035   4.136  18.318  0.00  0.00    +0.000 A 
ATOM     10  N   UNL     1       4.233   3.177  17.915  0.00  0.00    +0.000 NA
ATOM     11  C   UNL     1       3.030   3.249  18.591  0.00  0.00    +0.000 A 
ATOM     12  C   UNL     1       1.938   2.377  18.419  0.00  0.00    +0.000 A 
ATOM     13  C   UNL     1       0.775   2.559  19.170  0.00  0.00    +0.000 A 
ATOM     14  C   UNL     1       0.686   3.598  20.093  0.00  0.00    +0.000 A 
ATOM     15  C   UNL     1       1.758   4.478  20.283  0.00  0.00    +0.000 A 
ATOM     16  C   UNL     1       2.922   4.287  19.518  0.00  0.00    +0.000 A 
ATOM     17  S   UNL     1       4.388   5.192  19.503  0.00  0.00    +0.000 S 
ENDBRANCH   8   9
ENDBRANCH   5   8
ENDBRANCH   1   2
BRANCH   1  18
ATOM     18  C   UNL     1       9.101   9.914  19.310  0.00  0.00    +0.000 C 
BRANCH  18  22
ATOM     19  C   UNL     1      11.142  13.667  18.682  0.00  0.00    +0.000 C 
ATOM     20  C   UNL     1      11.362  12.503  17.716  0.00  0.00    +0.000 C 
ATOM     21  C   UNL     1      10.273  11.439  17.856  0.00  0.00    +0.000 C 
ATOM     22  N   UNL     1      10.165  10.943  19.239  0.00  0.00    +0.000 NA
ATOM     23  C   UNL     1       9.927  12.043  20.189  0.00  0.00    +0.000 C 
ATOM     24  C   UNL     1      11.005  13.123  20.102  0.00  0.00    +0.000 C 
BRANCH  19  27
ATOM     25  C   UNL     1       9.981  15.841  18.350  0.00  0.00    +0.000 C 
ATOM     26  O   UNL     1      10.963  16.507  18.668  0.00  0.00    +0.000 OA
ATOM     27  N   UNL     1       9.981  14.464  18.287  0.00  0.00    +0.000 N 
ATOM     28  H   UNL     1       9.072  14.017  18.346  0.00  0.00    +0.000 HD
BRANCH  25  29
ATOM     29  C   UNL     1       8.639  16.480  17.985  0.00  0.00    +0.000 C 
BRANCH  29  30
ATOM     30  O   UNL     1       8.027  17.131  19.096  0.00  0.00    +0.000 OA
BRANCH  30  32
ATOM     31  C   UNL     1       6.487  15.518  19.811  0.00  0.00    +0.000 C 
ATOM     32  C   UNL     1       6.697  16.878  19.221  0.00  0.00    +0.000 C 
ATOM     33  O   UNL     1       5.799  17.651  18.912  0.00  0.00    +0.000 OA
ENDBRANCH  30  32
ENDBRANCH  29  30
ENDBRANCH  25  29
ENDBRANCH  19  27
ENDBRANCH  18  22
ENDBRANCH   1  18
TORSDOF 9
ENDMDL
MODEL 2
REMARK VINA RESULT:      -8.2      1.077      1.604
REMARK  Name = 
REMARK  10 active torsions:
REMARK  status: ('A' for Active; 'I' for Inactive)
REMARK    1  A    between atoms: C_1  and  C_2
REMARK    2  A    between atoms: C_2  and  O_4
REMARK    3  A    between atoms: O_4  and  C_5
REMARK    4  A    between atoms: C_5  and  C_6
REMARK    5  A    between atoms: N_8  and  C_9
REMARK    6  A    between atoms: N_12  and  C_13
REMARK    7  A    between atoms: C_13  and  C_14
REMARK    8  A    between atoms: C_14  and  C_15
REMARK    9  A    between atoms: C_18  and  O_19
REMARK   10  A    between atoms: O_19  and  C_20
REMARK                            x       y       z     vdW  Elec       q    Type
REMARK                         _______ _______ _______ _____ _____    ______ ____
ROOT
ATOM      1  C   UNL     1       8.505   9.605  17.982  0.00  0.00    +0.000 C 
ENDROOT
BRANCH   1   2
ATOM      2  C   UNL     1       7.894   8.226  17.989  0.00  0.00    +0.000 A 
ATOM      3  C   UNL     1       8.349   7.242  18.874  0.00  0.00    +0.000 A 
ATOM      4  C   UNL     1       7.773   5.969  18.866  0.00  0.00    +0.000 A 
ATOM      5  C   UNL     1       6.730   5.673  17.987  0.00  0.00    +0.000 A 
ATOM      6  C   UNL     1       6.278   6.644  17.095  0.00  0.00    +0.000 A 
ATOM      7  C   UNL     1       6.861   7.917  17.093  0.00  0.00    +0.000 A 
BRANCH   5   8
ATOM      8  O   UNL     1       6.270   4.377  17.988  0.00  0.00    +0.000 OA
BRANCH   8   9
ATOM      9  C   UNL     1       5.031   4.060  18.378  0.00  0.00    +0.000 A 
ATOM     10  N   UNL     1       4.630   4.080  19.628  0.00  0.00    +0.000 NA
ATOM     11  C   UNL     1       3.309   3.679  19.709  0.00  0.00    +0.000 A 
ATOM     12  C   UNL     1       2.549   3.586  20.890  0.00  0.00    +0.000 A 
ATOM     13  C   UNL     1       1.218   3.169  20.833  0.00  0.00    +0.000 A 
ATOM     14  C   UNL     1       0.632   2.846  19.612  0.00  0.00    +0.000 A 
ATOM     15  C   UNL     1       1.366   2.930  18.422  0.00  0.00    +0.000 A 
ATOM     16  C   UNL     1       2.706   3.348  18.493  0.00  0.00    +0.000 A 
ATOM     17  S   UNL     1       3.866   3.539  17.234  0.00  0.00    +0.000 S 
ENDBRANCH   8   9
ENDBRANCH   5   8
ENDBRANCH   1   2
BRANCH   1  18
ATOM     18  C   UNL     1       9.346   9.877  19.242  0.00  0.00    +0.000 C 
BRANCH  18  22
ATOM     19  C   UNL     1      10.211  14.092  18.876  0.00  0.00    +0.000 C 
ATOM     20  C   UNL     1      10.670  13.118  17.792  0.00  0.00    +0.000 C 
ATOM     21  C   UNL     1       9.933  11.781  17.884  0.00  0.00    +0.000 C 
ATOM     22  N   UNL     1      10.074  11.168  19.217  0.00  0.00    +0.000 NA
ATOM     23  C   UNL     1       9.613  12.078  20.279  0.00  0.00    +0.000 C 
ATOM     24  C   UNL     1      10.339  13.423  20.242  0.00  0.00    +0.000 C 
BRANCH  19  27
ATOM     25  C   UNL     1       8.526  15.895  18.565  0.00  0.00    +0.000 C 
ATOM     26  O   UNL     1       9.356  16.797  18.651  0.00  0.00    +0.000 OA
ATOM     27  N   UNL     1       8.847  14.556  18.620  0.00  0.00    +0.000 N 
ATOM     28  H   UNL     1       8.090  13.928  18.872  0.00  0.00    +0.000 HD
BRANCH  25  29
ATOM     29  C   UNL     1       7.031  16.169  18.383  0.00  0.00    +0.000 C 
BRANCH  29  30
ATOM     30  O   UNL     1       6.309  16.078  19.609  0.00  0.00    +0.000 OA
BRANCH  30  32
ATOM     31  C   UNL     1       6.774  17.016  21.704  0.00  0.00    +0.000 C 
ATOM     32  C   UNL     1       6.267  17.241  20.313  0.00  0.00    +0.000 C 
ATOM     33  O   UNL     1       5.888  18.319  19.873  0.00  0.00    +0.000 OA
ENDBRANCH  30  32
ENDBRANCH  29  30
ENDBRANCH  25  29
ENDBRANCH  19  27
ENDBRANCH  18  22
ENDBRANCH   1  18
TORSDOF 9
ENDMDL
MODEL 3
REMARK VINA RESULT:      -8.1      6.654     10.107
REMARK  Name = 
REMARK  10 active torsions:
REMARK  status: ('A' for Active; 'I' for Inactive)
REMARK    1  A    between atoms: C_1  and  C_2
REMARK    2  A    between atoms: C_2  and  O_4
REMARK    3  A    between atoms: O_4  and  C_5
REMARK    4  A    between atoms: C_5  and  C_6
REMARK    5  A    between atoms: N_8  and  C_9
REMARK    6  A    between atoms: N_12  and  C_13
REMARK    7  A    between atoms: C_13  and  C_14
REMARK    8  A    between atoms: C_14  and  C_15
REMARK    9  A    between atoms: C_18  and  O_19
REMARK   10  A    between atoms: O_19  and  C_20
REMARK                            x       y       z     vdW  Elec       q    Type
REMARK                         _______ _______ _______ _____ _____    ______ ____
ROOT
ATOM      1  C   UNL     1       2.886   5.040  19.716  0.00  0.00    +0.000 C 
ENDROOT
BRANCH   1   2
ATOM      2  C   UNL     1       2.331   6.443  19.671  0.00  0.00    +0.000 A 
ATOM      3  C   UNL     1       1.610   6.966  20.750  0.00  0.00    +0.000 A 
ATOM      4  C   UNL     1       1.101   8.266  20.691  0.00  0.00    +0.000 A 
ATOM      5  C   UNL     1       1.321   9.059  19.563  0.00  0.00    +0.000 A 
ATOM      6  C   UNL     1       2.028   8.541  18.479  0.00  0.00    +0.000 A 
ATOM      7  C   UNL     1       2.529   7.235  18.531  0.00  0.00    +0.000 A 
BRANCH   5   8
ATOM      8  O   UNL     1       0.723  10.296  19.552  0.00  0.00    +0.000 OA
BRANCH   8   9
ATOM      9  C   UNL     1      -0.434  10.523  18.920  0.00  0.00    +0.000 A 
ATOM     10  N   UNL     1      -0.725  10.046  17.732  0.00  0.00    +0.000 NA
ATOM     11  C   UNL     1      -1.980  10.476  17.342  0.00  0.00    +0.000 A 
ATOM     12  C   UNL     1      -2.618  10.154  16.129  0.00  0.00    +0.000 A 
ATOM     13  C   UNL     1      -3.894  10.654  15.859  0.00  0.00    +0.000 A 
ATOM     14  C   UNL     1      -4.543  11.469  16.782  0.00  0.00    +0.000 A 
ATOM     15  C   UNL     1      -3.929  11.804  17.996  0.00  0.00    +0.000 A 
ATOM     16  C   UNL     1      -2.644  11.298  18.255  0.00  0.00    +0.000 A 
ATOM     17  S   UNL     1      -1.627  11.531  19.626  0.00  0.00    +0.000 S 
ENDBRANCH   8   9
ENDBRANCH   5   8
ENDBRANCH   1   2
BRANCH   1  18
ATOM     18  C   UNL     1       3.410   4.576  18.346  0.00  0.00    +0.000 C 
BRANCH  18  22
ATOM     19  C   UNL     1       7.036   5.452  16.171  0.00  0.00    +0.000 C 
ATOM     20  C   UNL     1       7.080   4.548  17.402  0.00  0.00    +0.000 C 
ATOM     21  C   UNL     1       5.689   4.034  17.775  0.00  0.00    +0.000 C 
ATOM     22  N   UNL     1       4.733   5.136  17.983  0.00  0.00    +0.000 NA
ATOM     23  C   UNL     1       4.653   6.009  16.800  0.00  0.00    +0.000 C 
ATOM     24  C   UNL     1       6.019   6.567  16.401  0.00  0.00    +0.000 C 
BRANCH  19  27
ATOM     25  C   UNL     1       7.383   4.912  13.768  0.00  0.00    +0.000 C 
ATOM     26  O   UNL     1       8.296   5.722  13.634  0.00  0.00    +0.000 OA
ATOM     27  N   UNL     1       6.738   4.680  14.965  0.00  0.00    +0.000 N 
ATOM     28  H   UNL     1       5.815   4.264  14.898  0.00  0.00    +0.000 HD
BRANCH  25  29
ATOM     29  C   UNL     1       6.859   4.065  12.606  0.00  0.00    +0.000 C 
BRANCH  29  30
ATOM     30  O   UNL     1       5.534   3.590  12.833  0.00  0.00    +0.000 OA
BRANCH  30  32
ATOM     31  C   UNL     1       5.831   1.772  11.387  0.00  0.00    +0.000 C 
ATOM     32  C   UNL     1       4.987   2.949  11.766  0.00  0.00    +0.000 C 
ATOM     33  O   UNL     1       3.948   3.274  11.205  0.00  0.00    +0.000 OA
ENDBRANCH  30  32
ENDBRANCH  29  30
ENDBRANCH  25  29
ENDBRANCH  19  27
ENDBRANCH  18  22
ENDBRANCH   1  18
TORSDOF 9
ENDMDL
MODEL 4
REMARK VINA RESULT:      -8.1      5.031     10.495
REMARK  Name = 
REMARK  10 active torsions:
REMARK  status: ('A' for Active; 'I' for Inactive)
REMARK    1  A    between atoms: C_1  and  C_2
REMARK    2  A    between atoms: C_2  and  O_4
REMARK    3  A    between atoms: O_4  and  C_5
REMARK    4  A    between atoms: C_5  and  C_6
REMARK    5  A    between atoms: N_8  and  C_9
REMARK    6  A    between atoms: N_12  and  C_13
REMARK    7  A    between atoms: C_13  and  C_14
REMARK    8  A    between atoms: C_14  and  C_15
REMARK    9  A    between atoms: C_18  and  O_19
REMARK   10  A    between atoms: O_19  and  C_20
REMARK                            x       y       z     vdW  Elec       q    Type
REMARK                         _______ _______ _______ _____ _____    ______ ____
ROOT
ATOM      1  C   UNL     1       2.398   6.376  20.588  0.00  0.00    +0.000 C 
ENDROOT
BRANCH   1   2
ATOM      2  C   UNL     1       1.837   7.687  20.094  0.00  0.00    +0.000 A 
ATOM      3  C   UNL     1       1.097   8.517  20.942  0.00  0.00    +0.000 A 
ATOM      4  C   UNL     1       0.582   9.727  20.467  0.00  0.00    +0.000 A 
ATOM      5  C   UNL     1       0.815  10.123  19.149  0.00  0.00    +0.000 A 
ATOM      6  C   UNL     1       1.542   9.295  18.294  0.00  0.00    +0.000 A 
ATOM      7  C   UNL     1       2.048   8.078  18.764  0.00  0.00    +0.000 A 
BRANCH   5   8
ATOM      8  O   UNL     1       0.210  11.287  18.738  0.00  0.00    +0.000 OA
BRANCH   8   9
ATOM      9  C   UNL     1       0.871  12.447  18.668  0.00  0.00    +0.000 A 
ATOM     10  N   UNL     1       2.171  12.541  18.503  0.00  0.00    +0.000 NA
ATOM     11  C   UNL     1       2.554  13.869  18.496  0.00  0.00    +0.000 A 
ATOM     12  C   UNL     1       3.870  14.343  18.336  0.00  0.00    +0.000 A 
ATOM     13  C   UNL     1       4.122  15.716  18.345  0.00  0.00    +0.000 A 
ATOM     14  C   UNL     1       3.080  16.624  18.509  0.00  0.00    +0.000 A 
ATOM     15  C   UNL     1       1.762  16.178  18.671  0.00  0.00    +0.000 A 
ATOM     16  C   UNL     1       1.521  14.794  18.664  0.00  0.00    +0.000 A 
ATOM     17  S   UNL     1       0.040  13.935  18.850  0.00  0.00    +0.000 S 
ENDBRANCH   8   9
ENDBRANCH   5   8
ENDBRANCH   1   2
BRANCH   1  18
ATOM     18  C   UNL     1       1.456   5.193  20.304  0.00  0.00    +0.000 C 
BRANCH  18  22
ATOM     19  C   UNL     1       4.063   3.090  17.578  0.00  0.00    +0.000 C 
ATOM     20  C   UNL     1       2.632   3.430  17.163  0.00  0.00    +0.000 C 
ATOM     21  C   UNL     1       2.022   4.505  18.063  0.00  0.00    +0.000 C 
ATOM     22  N   UNL     1       2.065   4.118  19.485  0.00  0.00    +0.000 NA
ATOM     23  C   UNL     1       3.438   3.810  19.919  0.00  0.00    +0.000 C 
ATOM     24  C   UNL     1       4.083   2.722  19.060  0.00  0.00    +0.000 C 
BRANCH  19  27
ATOM     25  C   UNL     1       5.832   4.164  16.200  0.00  0.00    +0.000 C 
ATOM     26  O   UNL     1       5.856   3.254  15.375  0.00  0.00    +0.000 OA
ATOM     27  N   UNL     1       4.972   4.195  17.277  0.00  0.00    +0.000 N 
ATOM     28  H   UNL     1       5.253   4.787  18.052  0.00  0.00    +0.000 HD
BRANCH  25  29
ATOM     29  C   UNL     1       6.767   5.373  16.116  0.00  0.00    +0.000 C 
BRANCH  29  30
ATOM     30  O   UNL     1       6.321   6.462  16.920  0.00  0.00    +0.000 OA
BRANCH  30  32
ATOM     31  C   UNL     1       7.817   6.292  18.713  0.00  0.00    +0.000 C 
ATOM     32  C   UNL     1       7.321   7.117  17.567  0.00  0.00    +0.000 C 
ATOM     33  O   UNL     1       7.766   8.213  17.252  0.00  0.00    +0.000 OA
ENDBRANCH  30  32
ENDBRANCH  29  30
ENDBRANCH  25  29
ENDBRANCH  19  27
ENDBRANCH  18  22
ENDBRANCH   1  18
TORSDOF 9
ENDMDL
MODEL 5
REMARK VINA RESULT:      -8.1      0.967      1.335
REMARK  Name = 
REMARK  10 active torsions:
REMARK  status: ('A' for Active; 'I' for Inactive)
REMARK    1  A    between atoms: C_1  and  C_2
REMARK    2  A    between atoms: C_2  and  O_4
REMARK    3  A    between atoms: O_4  and  C_5
REMARK    4  A    between atoms: C_5  and  C_6
REMARK    5  A    between atoms: N_8  and  C_9
REMARK    6  A    between atoms: N_12  and  C_13
REMARK    7  A    between atoms: C_13  and  C_14
REMARK    8  A    between atoms: C_14  and  C_15
REMARK    9  A    between atoms: C_18  and  O_19
REMARK   10  A    between atoms: O_19  and  C_20
REMARK                            x       y       z     vdW  Elec       q    Type
REMARK                         _______ _______ _______ _____ _____    ______ ____
ROOT
ATOM      1  C   UNL     1       8.508   9.587  17.809  0.00  0.00    +0.000 C 
ENDROOT
BRANCH   1   2
ATOM      2  C   UNL     1       7.902   8.209  17.930  0.00  0.00    +0.000 A 
ATOM      3  C   UNL     1       8.379   7.295  18.875  0.00  0.00    +0.000 A 
ATOM      4  C   UNL     1       7.809   6.023  18.972  0.00  0.00    +0.000 A 
ATOM      5  C   UNL     1       6.749   5.660  18.139  0.00  0.00    +0.000 A 
ATOM      6  C   UNL     1       6.276   6.562  17.186  0.00  0.00    +0.000 A 
ATOM      7  C   UNL     1       6.853   7.832  17.079  0.00  0.00    +0.000 A 
BRANCH   5   8
ATOM      8  O   UNL     1       6.296   4.367  18.245  0.00  0.00    +0.000 OA
BRANCH   8   9
ATOM      9  C   UNL     1       5.031   4.079  18.572  0.00  0.00    +0.000 A 
ATOM     10  N   UNL     1       4.345   3.092  18.043  0.00  0.00    +0.000 NA
ATOM     11  C   UNL     1       3.065   3.071  18.568  0.00  0.00    +0.000 A 
ATOM     12  C   UNL     1       2.057   2.146  18.235  0.00  0.00    +0.000 A 
ATOM     13  C   UNL     1       0.803   2.233  18.842  0.00  0.00    +0.000 A 
ATOM     14  C   UNL     1       0.540   3.229  19.779  0.00  0.00    +0.000 A 
ATOM     15  C   UNL     1       1.526   4.161  20.127  0.00  0.00    +0.000 A 
ATOM     16  C   UNL     1       2.783   4.065  19.506  0.00  0.00    +0.000 A 
ATOM     17  S   UNL     1       4.183   5.051  19.700  0.00  0.00    +0.000 S 
ENDBRANCH   8   9
ENDBRANCH   5   8
ENDBRANCH   1   2
BRANCH   1  18
ATOM     18  C   UNL     1       9.162  10.054  19.121  0.00  0.00    +0.000 C 
BRANCH  18  22
ATOM     19  C   UNL     1      11.836  13.422  18.734  0.00  0.00    +0.000 C 
ATOM     20  C   UNL     1      11.459  12.597  17.505  0.00  0.00    +0.000 C 
ATOM     21  C   UNL     1      10.220  11.738  17.758  0.00  0.00    +0.000 C 
ATOM     22  N   UNL     1      10.389  10.862  18.931  0.00  0.00    +0.000 NA
ATOM     23  C   UNL     1      10.728  11.636  20.137  0.00  0.00    +0.000 C 
ATOM     24  C   UNL     1      11.976  12.496  19.939  0.00  0.00    +0.000 C 
BRANCH  19  27
ATOM     25  C   UNL     1      11.190  15.658  19.613  0.00  0.00    +0.000 C 
ATOM     26  O   UNL     1      12.332  15.938  19.968  0.00  0.00    +0.000 OA
ATOM     27  N   UNL     1      10.857  14.484  18.972  0.00  0.00    +0.000 N 
ATOM     28  H   UNL     1       9.882  14.210  19.027  0.00  0.00    +0.000 HD
BRANCH  25  29
ATOM     29  C   UNL     1      10.003  16.596  19.849  0.00  0.00    +0.000 C 
BRANCH  29  30
ATOM     30  O   UNL     1       8.881  16.267  19.034  0.00  0.00    +0.000 OA
BRANCH  30  32
ATOM     31  C   UNL     1       6.613  16.806  18.810  0.00  0.00    +0.000 C 
ATOM     32  C   UNL     1       7.695  16.275  19.698  0.00  0.00    +0.000 C 
ATOM     33  O   UNL     1       7.528  15.889  20.848  0.00  0.00    +0.000 OA
ENDBRANCH  30  32
ENDBRANCH  29  30
ENDBRANCH  25  29
ENDBRANCH  19  27
ENDBRANCH  18  22
ENDBRANCH   1  18
TORSDOF 9
ENDMDL
MODEL 6
REMARK VINA RESULT:      -8.0      6.874     10.979
REMARK  Name = 
REMARK  10 active torsions:
REMARK  status: ('A' for Active; 'I' for Inactive)
REMARK    1  A    between atoms: C_1  and  C_2
REMARK    2  A    between atoms: C_2  and  O_4
REMARK    3  A    between atoms: O_4  and  C_5
REMARK    4  A    between atoms: C_5  and  C_6
REMARK    5  A    between atoms: N_8  and  C_9
REMARK    6  A    between atoms: N_12  and  C_13
REMARK    7  A    between atoms: C_13  and  C_14
REMARK    8  A    between atoms: C_14  and  C_15
REMARK    9  A    between atoms: C_18  and  O_19
REMARK   10  A    between atoms: O_19  and  C_20
REMARK                            x       y       z     vdW  Elec       q    Type
REMARK                         _______ _______ _______ _____ _____    ______ ____
ROOT
ATOM      1  C   UNL     1       2.257   7.231  20.014  0.00  0.00    +0.000 C 
ENDROOT
BRANCH   1   2
ATOM      2  C   UNL     1       1.408   8.453  19.763  0.00  0.00    +0.000 A 
ATOM      3  C   UNL     1       1.411   9.086  18.515  0.00  0.00    +0.000 A 
ATOM      4  C   UNL     1       0.621  10.219  18.300  0.00  0.00    +0.000 A 
ATOM      5  C   UNL     1      -0.189  10.718  19.322  0.00  0.00    +0.000 A 
ATOM      6  C   UNL     1      -0.189  10.099  20.572  0.00  0.00    +0.000 A 
ATOM      7  C   UNL     1       0.611   8.972  20.793  0.00  0.00    +0.000 A 
BRANCH   5   8
ATOM      8  O   UNL     1      -0.876  11.879  19.055  0.00  0.00    +0.000 OA
BRANCH   8   9
ATOM      9  C   UNL     1      -2.206  11.905  18.925  0.00  0.00    +0.000 A 
ATOM     10  N   UNL     1      -3.024  12.342  19.855  0.00  0.00    +0.000 NA
ATOM     11  C   UNL     1      -4.334  12.218  19.431  0.00  0.00    +0.000 A 
ATOM     12  C   UNL     1      -5.474  12.592  20.167  0.00  0.00    +0.000 A 
ATOM     13  C   UNL     1      -6.747  12.415  19.620  0.00  0.00    +0.000 A 
ATOM     14  C   UNL     1      -6.898  11.873  18.347  0.00  0.00    +0.000 A 
ATOM     15  C   UNL     1      -5.780  11.492  17.595  0.00  0.00    +0.000 A 
ATOM     16  C   UNL     1      -4.505  11.672  18.157  0.00  0.00    +0.000 A 
ATOM     17  S   UNL     1      -2.954  11.298  17.507  0.00  0.00    +0.000 S 
ENDBRANCH   8   9
ENDBRANCH   5   8
ENDBRANCH   1   2
BRANCH   1  18
ATOM     18  C   UNL     1       2.629   6.502  18.712  0.00  0.00    +0.000 C 
BRANCH  18  22
ATOM     19  C   UNL     1       6.427   5.291  17.052  0.00  0.00    +0.000 C 
ATOM     20  C   UNL     1       5.939   4.690  18.369  0.00  0.00    +0.000 C 
ATOM     21  C   UNL     1       4.441   4.917  18.574  0.00  0.00    +0.000 C 
ATOM     22  N   UNL     1       4.087   6.346  18.501  0.00  0.00    +0.000 NA
ATOM     23  C   UNL     1       4.525   6.945  17.229  0.00  0.00    +0.000 C 
ATOM     24  C   UNL     1       6.023   6.762  16.990  0.00  0.00    +0.000 C 
BRANCH  19  27
ATOM     25  C   UNL     1       6.517   4.582  14.669  0.00  0.00    +0.000 C 
ATOM     26  O   UNL     1       7.557   5.194  14.442  0.00  0.00    +0.000 OA
ATOM     27  N   UNL     1       5.915   4.535  15.909  0.00  0.00    +0.000 N 
ATOM     28  H   UNL     1       4.928   4.301  15.914  0.00  0.00    +0.000 HD
BRANCH  25  29
ATOM     29  C   UNL     1       5.772   3.798  13.587  0.00  0.00    +0.000 C 
BRANCH  29  30
ATOM     30  O   UNL     1       6.611   3.460  12.485  0.00  0.00    +0.000 OA
BRANCH  30  32
ATOM     31  C   UNL     1       7.126   1.640  11.105  0.00  0.00    +0.000 C 
ATOM     32  C   UNL     1       6.064   2.554  11.631  0.00  0.00    +0.000 C 
ATOM     33  O   UNL     1       4.876   2.483  11.345  0.00  0.00    +0.000 OA
ENDBRANCH  30  32
ENDBRANCH  29  30
ENDBRANCH  25  29
ENDBRANCH  19  27
ENDBRANCH  18  22
ENDBRANCH   1  18
TORSDOF 9
ENDMDL
MODEL 7
REMARK VINA RESULT:      -7.9      6.520     10.638
REMARK  Name = 
REMARK  10 active torsions:
REMARK  status: ('A' for Active; 'I' for Inactive)
REMARK    1  A    between atoms: C_1  and  C_2
REMARK    2  A    between atoms: C_2  and  O_4
REMARK    3  A    between atoms: O_4  and  C_5
REMARK    4  A    between atoms: C_5  and  C_6
REMARK    5  A    between atoms: N_8  and  C_9
REMARK    6  A    between atoms: N_12  and  C_13
REMARK    7  A    between atoms: C_13  and  C_14
REMARK    8  A    between atoms: C_14  and  C_15
REMARK    9  A    between atoms: C_18  and  O_19
REMARK   10  A    between atoms: O_19  and  C_20
REMARK                            x       y       z     vdW  Elec       q    Type
REMARK                         _______ _______ _______ _____ _____    ______ ____
ROOT
ATOM      1  C   UNL     1       2.162   6.637  18.745  0.00  0.00    +0.000 C 
ENDROOT
BRANCH   1   2
ATOM      2  C   UNL     1       1.751   7.898  19.463  0.00  0.00    +0.000 A 
ATOM      3  C   UNL     1       1.630   9.110  18.775  0.00  0.00    +0.000 A 
ATOM      4  C   UNL     1       1.250  10.270  19.456  0.00  0.00    +0.000 A 
ATOM      5  C   UNL     1       0.973  10.226  20.823  0.00  0.00    +0.000 A 
ATOM      6  C   UNL     1       1.102   9.024  21.519  0.00  0.00    +0.000 A 
ATOM      7  C   UNL     1       1.494   7.864  20.841  0.00  0.00    +0.000 A 
BRANCH   5   8
ATOM      8  O   UNL     1       0.681  11.423  21.434  0.00  0.00    +0.000 OA
BRANCH   8   9
ATOM      9  C   UNL     1      -0.574  11.804  21.690  0.00  0.00    +0.000 A 
ATOM     10  N   UNL     1      -1.129  11.747  22.880  0.00  0.00    +0.000 NA
ATOM     11  C   UNL     1      -2.438  12.187  22.815  0.00  0.00    +0.000 A 
ATOM     12  C   UNL     1      -3.331  12.267  23.899  0.00  0.00    +0.000 A 
ATOM     13  C   UNL     1      -4.632  12.734  23.698  0.00  0.00    +0.000 A 
ATOM     14  C   UNL     1      -5.053  13.126  22.430  0.00  0.00    +0.000 A 
ATOM     15  C   UNL     1      -4.183  13.055  21.335  0.00  0.00    +0.000 A 
ATOM     16  C   UNL     1      -2.878  12.580  21.549  0.00  0.00    +0.000 A 
ATOM     17  S   UNL     1      -1.590  12.361  20.427  0.00  0.00    +0.000 S 
ENDBRANCH   8   9
ENDBRANCH   5   8
ENDBRANCH   1   2
BRANCH   1  18
ATOM     18  C   UNL     1       3.288   5.888  19.479  0.00  0.00    +0.000 C 
BRANCH  18  22
ATOM     19  C   UNL     1       6.875   5.681  17.082  0.00  0.00    +0.000 C 
ATOM     20  C   UNL     1       6.882   5.164  18.520  0.00  0.00    +0.000 C 
ATOM     21  C   UNL     1       5.464   4.943  19.049  0.00  0.00    +0.000 C 
ATOM     22  N   UNL     1       4.644   6.163  18.948  0.00  0.00    +0.000 NA
ATOM     23  C   UNL     1       4.600   6.669  17.565  0.00  0.00    +0.000 C 
ATOM     24  C   UNL     1       5.996   6.927  17.000  0.00  0.00    +0.000 C 
BRANCH  19  27
ATOM     25  C   UNL     1       6.772   4.661  14.816  0.00  0.00    +0.000 C 
ATOM     26  O   UNL     1       7.516   5.500  14.316  0.00  0.00    +0.000 OA
ATOM     27  N   UNL     1       6.436   4.640  16.153  0.00  0.00    +0.000 N 
ATOM     28  H   UNL     1       5.586   4.138  16.389  0.00  0.00    +0.000 HD
BRANCH  25  29
ATOM     29  C   UNL     1       6.134   3.536  13.997  0.00  0.00    +0.000 C 
BRANCH  29  30
ATOM     30  O   UNL     1       6.587   3.523  12.646  0.00  0.00    +0.000 OA
BRANCH  30  32
ATOM     31  C   UNL     1       6.449   1.708  11.173  0.00  0.00    +0.000 C 
ATOM     32  C   UNL     1       5.750   2.880  11.789  0.00  0.00    +0.000 C 
ATOM     33  O   UNL     1       4.589   3.199  11.564  0.00  0.00    +0.000 OA
ENDBRANCH  30  32
ENDBRANCH  29  30
ENDBRANCH  25  29
ENDBRANCH  19  27
ENDBRANCH  18  22
ENDBRANCH   1  18
TORSDOF 9
ENDMDL
MODEL 8
REMARK VINA RESULT:      -7.9      5.043     10.515
REMARK  Name = 
REMARK  10 active torsions:
REMARK  status: ('A' for Active; 'I' for Inactive)
REMARK    1  A    between atoms: C_1  and  C_2
REMARK    2  A    between atoms: C_2  and  O_4
REMARK    3  A    between atoms: O_4  and  C_5
REMARK    4  A    between atoms: C_5  and  C_6
REMARK    5  A    between atoms: N_8  and  C_9
REMARK    6  A    between atoms: N_12  and  C_13
REMARK    7  A    between atoms: C_13  and  C_14
REMARK    8  A    between atoms: C_14  and  C_15
REMARK    9  A    between atoms: C_18  and  O_19
REMARK   10  A    between atoms: O_19  and  C_20
REMARK                            x       y       z     vdW  Elec       q    Type
REMARK                         _______ _______ _______ _____ _____    ______ ____
ROOT
ATOM      1  C   UNL     1       2.555   6.462  20.301  0.00  0.00    +0.000 C 
ENDROOT
BRANCH   1   2
ATOM      2  C   UNL     1       1.930   7.753  19.833  0.00  0.00    +0.000 A 
ATOM      3  C   UNL     1       2.023   8.154  18.496  0.00  0.00    +0.000 A 
ATOM      4  C   UNL     1       1.440   9.354  18.080  0.00  0.00    +0.000 A 
ATOM      5  C   UNL     1       0.747  10.154  18.991  0.00  0.00    +0.000 A 
ATOM      6  C   UNL     1       0.659   9.766  20.328  0.00  0.00    +0.000 A 
ATOM      7  C   UNL     1       1.252   8.571  20.749  0.00  0.00    +0.000 A 
BRANCH   5   8
ATOM      8  O   UNL     1       0.270  11.354  18.520  0.00  0.00    +0.000 OA
BRANCH   8   9
ATOM      9  C   UNL     1       0.956  12.494  18.650  0.00  0.00    +0.000 A 
ATOM     10  N   UNL     1       2.189  12.659  18.231  0.00  0.00    +0.000 NA
ATOM     11  C   UNL     1       2.627  13.935  18.533  0.00  0.00    +0.000 A 
ATOM     12  C   UNL     1       3.896  14.461  18.227  0.00  0.00    +0.000 A 
ATOM     13  C   UNL     1       4.213  15.773  18.587  0.00  0.00    +0.000 A 
ATOM     14  C   UNL     1       3.279  16.568  19.246  0.00  0.00    +0.000 A 
ATOM     15  C   UNL     1       2.010  16.068  19.562  0.00  0.00    +0.000 A 
ATOM     16  C   UNL     1       1.705  14.745  19.198  0.00  0.00    +0.000 A 
ATOM     17  S   UNL     1       0.261  13.841  19.451  0.00  0.00    +0.000 S 
ENDBRANCH   8   9
ENDBRANCH   5   8
ENDBRANCH   1   2
BRANCH   1  18
ATOM     18  C   UNL     1       1.584   5.273  20.201  0.00  0.00    +0.000 C 
BRANCH  18  22
ATOM     19  C   UNL     1       4.073   2.882  17.606  0.00  0.00    +0.000 C 
ATOM     20  C   UNL     1       2.807   3.541  17.061  0.00  0.00    +0.000 C 
ATOM     21  C   UNL     1       2.302   4.649  17.986  0.00  0.00    +0.000 C 
ATOM     22  N   UNL     1       2.075   4.159  19.357  0.00  0.00    +0.000 NA
ATOM     23  C   UNL     1       3.289   3.541  19.916  0.00  0.00    +0.000 C 
ATOM     24  C   UNL     1       3.819   2.410  19.035  0.00  0.00    +0.000 C 
BRANCH  19  27
ATOM     25  C   UNL     1       6.013   3.872  16.405  0.00  0.00    +0.000 C 
ATOM     26  O   UNL     1       5.796   3.246  15.371  0.00  0.00    +0.000 OA
ATOM     27  N   UNL     1       5.214   3.794  17.526  0.00  0.00    +0.000 N 
ATOM     28  H   UNL     1       5.648   4.069  18.401  0.00  0.00    +0.000 HD
BRANCH  25  29
ATOM     29  C   UNL     1       7.209   4.815  16.559  0.00  0.00    +0.000 C 
BRANCH  29  30
ATOM     30  O   UNL     1       6.921   6.136  16.107  0.00  0.00    +0.000 OA
BRANCH  30  32
ATOM     31  C   UNL     1       7.645   7.732  17.661  0.00  0.00    +0.000 C 
ATOM     32  C   UNL     1       6.489   6.973  17.088  0.00  0.00    +0.000 C 
ATOM     33  O   UNL     1       5.324   7.102  17.441  0.00  0.00    +0.000 OA
ENDBRANCH  30  32
ENDBRANCH  29  30
ENDBRANCH  25  29
ENDBRANCH  19  27
ENDBRANCH  18  22
ENDBRANCH   1  18
TORSDOF 9
ENDMDL
MODEL 9
REMARK VINA RESULT:      -7.9      5.906     10.313
REMARK  Name = 
REMARK  10 active torsions:
REMARK  status: ('A' for Active; 'I' for Inactive)
REMARK    1  A    between atoms: C_1  and  C_2
REMARK    2  A    between atoms: C_2  and  O_4
REMARK    3  A    between atoms: O_4  and  C_5
REMARK    4  A    between atoms: C_5  and  C_6
REMARK    5  A    between atoms: N_8  and  C_9
REMARK    6  A    between atoms: N_12  and  C_13
REMARK    7  A    between atoms: C_13  and  C_14
REMARK    8  A    between atoms: C_14  and  C_15
REMARK    9  A    between atoms: C_18  and  O_19
REMARK   10  A    between atoms: O_19  and  C_20
REMARK                            x       y       z     vdW  Elec       q    Type
REMARK                         _______ _______ _______ _____ _____    ______ ____
ROOT
ATOM      1  C   UNL     1       2.211   6.373  20.698  0.00  0.00    +0.000 C 
ENDROOT
BRANCH   1   2
ATOM      2  C   UNL     1       1.657   7.702  20.246  0.00  0.00    +0.000 A 
ATOM      3  C   UNL     1       0.812   8.447  21.075  0.00  0.00    +0.000 A 
ATOM      4  C   UNL     1       0.305   9.675  20.640  0.00  0.00    +0.000 A 
ATOM      5  C   UNL     1       0.651  10.175  19.384  0.00  0.00    +0.000 A 
ATOM      6  C   UNL     1       1.485   9.433  18.548  0.00  0.00    +0.000 A 
ATOM      7  C   UNL     1       1.983   8.198  18.976  0.00  0.00    +0.000 A 
BRANCH   5   8
ATOM      8  O   UNL     1       0.051  11.351  19.001  0.00  0.00    +0.000 OA
BRANCH   8   9
ATOM      9  C   UNL     1      -1.266  11.444  18.791  0.00  0.00    +0.000 A 
ATOM     10  N   UNL     1      -2.092  12.081  19.589  0.00  0.00    +0.000 NA
ATOM     11  C   UNL     1      -3.387  11.975  19.115  0.00  0.00    +0.000 A 
ATOM     12  C   UNL     1      -4.529  12.539  19.713  0.00  0.00    +0.000 A 
ATOM     13  C   UNL     1      -5.784  12.358  19.128  0.00  0.00    +0.000 A 
ATOM     14  C   UNL     1      -5.916  11.624  17.953  0.00  0.00    +0.000 A 
ATOM     15  C   UNL     1      -4.795  11.052  17.339  0.00  0.00    +0.000 A 
ATOM     16  C   UNL     1      -3.538  11.237  17.939  0.00  0.00    +0.000 A 
ATOM     17  S   UNL     1      -1.990  10.660  17.449  0.00  0.00    +0.000 S 
ENDBRANCH   8   9
ENDBRANCH   5   8
ENDBRANCH   1   2
BRANCH   1  18
ATOM     18  C   UNL     1       1.259   5.207  20.384  0.00  0.00    +0.000 C 
BRANCH  18  22
ATOM     19  C   UNL     1       3.862   3.152  17.618  0.00  0.00    +0.000 C 
ATOM     20  C   UNL     1       2.450   3.551  17.191  0.00  0.00    +0.000 C 
ATOM     21  C   UNL     1       1.852   4.602  18.127  0.00  0.00    +0.000 C 
ATOM     22  N   UNL     1       1.854   4.152  19.530  0.00  0.00    +0.000 NA
ATOM     23  C   UNL     1       3.208   3.785  19.976  0.00  0.00    +0.000 C 
ATOM     24  C   UNL     1       3.840   2.718  19.082  0.00  0.00    +0.000 C 
BRANCH  19  27
ATOM     25  C   UNL     1       5.770   4.180  16.399  0.00  0.00    +0.000 C 
ATOM     26  O   UNL     1       5.866   3.252  15.601  0.00  0.00    +0.000 OA
ATOM     27  N   UNL     1       4.808   4.243  17.385  0.00  0.00    +0.000 N 
ATOM     28  H   UNL     1       5.016   4.850  18.170  0.00  0.00    +0.000 HD
BRANCH  25  29
ATOM     29  C   UNL     1       6.721   5.380  16.382  0.00  0.00    +0.000 C 
BRANCH  29  30
ATOM     30  O   UNL     1       6.647   6.149  17.580  0.00  0.00    +0.000 OA
BRANCH  30  32
ATOM     31  C   UNL     1       8.345   7.001  18.949  0.00  0.00    +0.000 C 
ATOM     32  C   UNL     1       7.585   7.130  17.665  0.00  0.00    +0.000 C 
ATOM     33  O   UNL     1       7.793   7.984  16.813  0.00  0.00    +0.000 OA
ENDBRANCH  30  32
ENDBRANCH  29  30
ENDBRANCH  25  29
ENDBRANCH  19  27
ENDBRANCH  18  22
ENDBRANCH   1  18
TORSDOF 9
ENDMDL
