MODEL 1
REMARK VINA RESULT:      -8.0      0.000      0.000
REMARK  Name = 
REMARK  10 active torsions:
REMARK  status: ('A' for Active; 'I' for Inactive)
REMARK    1  A    between atoms: C_1  and  O_2
REMARK    2  A    between atoms: O_2  and  C_3
REMARK    3  A    between atoms: C_8  and  C_9
REMARK    4  A    between atoms: C_9  and  C_10
REMARK    5  A    between atoms: C_9  and  C_11
REMARK    6  A    between atoms: C_11  and  O_13
REMARK    7  A    between atoms: O_13  and  C_14
REMARK    8  A    between atoms: C_17  and  C_18
REMARK    9  A    between atoms: C_20  and  O_21
REMARK   10  A    between atoms: O_21  and  C_22
REMARK                            x       y       z     vdW  Elec       q    Type
REMARK                         _______ _______ _______ _____ _____    ______ ____
ROOT
ATOM      1  C   UNL     1       2.813   3.698  19.111  0.00  0.00    +0.000 C 
ATOM      2  C   UNL     1       1.725   2.701  19.535  0.00  0.00    +0.000 C 
ENDROOT
BRANCH   1   8
ATOM      3  C   UNL     1       1.348  10.116  19.193  0.00  0.00    +0.000 A 
ATOM      4  C   UNL     1       1.913   9.779  17.965  0.00  0.00    +0.000 A 
ATOM      5  C   UNL     1       2.284   8.455  17.701  0.00  0.00    +0.000 A 
ATOM      6  C   UNL     1       2.107   7.451  18.665  0.00  0.00    +0.000 A 
ATOM      7  C   UNL     1       2.488   6.117  18.420  0.00  0.00    +0.000 A 
ATOM      8  C   UNL     1       2.353   5.125  19.404  0.00  0.00    +0.000 A 
ATOM      9  C   UNL     1       1.816   5.498  20.645  0.00  0.00    +0.000 A 
ATOM     10  C   UNL     1       1.397   6.808  20.889  0.00  0.00    +0.000 A 
ATOM     11  C   UNL     1       1.549   7.797  19.914  0.00  0.00    +0.000 A 
ATOM     12  C   UNL     1       1.176   9.127  20.163  0.00  0.00    +0.000 A 
BRANCH   3  14
ATOM     13  C   UNL     1       0.009  12.011  18.747  0.00  0.00    +0.000 C 
ATOM     14  O   UNL     1       0.975  11.375  19.575  0.00  0.00    +0.000 OA
ENDBRANCH   3  14
ENDBRANCH   1   8
BRANCH   1  15
ATOM     15  C   UNL     1       3.209   3.422  17.662  0.00  0.00    +0.000 C 
ATOM     16  O   UNL     1       2.407   3.327  16.731  0.00  0.00    +0.000 OA
BRANCH  15  17
ATOM     17  O   UNL     1       4.580   3.261  17.514  0.00  0.00    +0.000 OA
BRANCH  17  18
ATOM     18  C   UNL     1       5.323   4.450  17.642  0.00  0.00    +0.000 A 
ATOM     19  C   UNL     1       5.929   4.721  18.883  0.00  0.00    +0.000 A 
ATOM     20  C   UNL     1       6.847   5.752  19.028  0.00  0.00    +0.000 A 
ATOM     21  C   UNL     1       7.148   6.562  17.939  0.00  0.00    +0.000 A 
ATOM     22  C   UNL     1       8.137   7.678  18.084  0.00  0.00    +0.000 C 
ATOM     23  C   UNL     1       6.510   6.320  16.712  0.00  0.00    +0.000 A 
ATOM     24  C   UNL     1       5.603   5.260  16.538  0.00  0.00    +0.000 A 
BRANCH  24  25
ATOM     25  O   UNL     1       5.131   5.179  15.259  0.00  0.00    +0.000 OA
ATOM     26  C   UNL     1       5.721   4.252  14.361  0.00  0.00    +0.000 C 
ENDBRANCH  24  25
ENDBRANCH  17  18
ENDBRANCH  15  17
ENDBRANCH   1  15
TORSDOF 6
ENDMDL
MODEL 2
REMARK VINA RESULT:      -7.9      1.382      2.336
REMARK  Name = 
REMARK  10 active torsions:
REMARK  status: ('A' for Active; 'I' for Inactive)
REMARK    1  A    between atoms: C_1  and  O_2
REMARK    2  A    between atoms: O_2  and  C_3
REMARK    3  A    between atoms: C_8  and  C_9
REMARK    4  A    between atoms: C_9  and  C_10
REMARK    5  A    between atoms: C_9  and  C_11
REMARK    6  A    between atoms: C_11  and  O_13
REMARK    7  A    between atoms: O_13  and  C_14
REMARK    8  A    between atoms: C_17  and  C_18
REMARK    9  A    between atoms: C_20  and  O_21
REMARK   10  A    between atoms: O_21  and  C_22
REMARK                            x       y       z     vdW  Elec       q    Type
REMARK                         _______ _______ _______ _____ _____    ______ ____
ROOT
ATOM      1  C   UNL     1       2.480   3.601  19.332  0.00  0.00    +0.000 C 
ATOM      2  C   UNL     1       1.750   3.100  18.078  0.00  0.00    +0.000 C 
ENDROOT
BRANCH   1   8
ATOM      3  C   UNL     1       1.434  10.098  19.123  0.00  0.00    +0.000 A 
ATOM      4  C   UNL     1       1.827   9.645  17.866  0.00  0.00    +0.000 A 
ATOM      5  C   UNL     1       2.081   8.284  17.656  0.00  0.00    +0.000 A 
ATOM      6  C   UNL     1       1.959   7.358  18.703  0.00  0.00    +0.000 A 
ATOM      7  C   UNL     1       2.225   5.988  18.512  0.00  0.00    +0.000 A 
ATOM      8  C   UNL     1       2.147   5.072  19.574  0.00  0.00    +0.000 A 
ATOM      9  C   UNL     1       1.787   5.561  20.838  0.00  0.00    +0.000 A 
ATOM     10  C   UNL     1       1.482   6.909  21.035  0.00  0.00    +0.000 A 
ATOM     11  C   UNL     1       1.577   7.822  19.980  0.00  0.00    +0.000 A 
ATOM     12  C   UNL     1       1.319   9.187  20.175  0.00  0.00    +0.000 A 
BRANCH   3  14
ATOM     13  C   UNL     1      -0.168  11.820  19.351  0.00  0.00    +0.000 C 
ATOM     14  O   UNL     1       1.188  11.402  19.455  0.00  0.00    +0.000 OA
ENDBRANCH   3  14
ENDBRANCH   1   8
BRANCH   1  15
ATOM     15  C   UNL     1       3.968   3.278  19.209  0.00  0.00    +0.000 C 
ATOM     16  O   UNL     1       4.445   2.150  19.348  0.00  0.00    +0.000 OA
BRANCH  15  17
ATOM     17  O   UNL     1       4.731   4.408  18.947  0.00  0.00    +0.000 OA
BRANCH  17  18
ATOM     18  C   UNL     1       5.436   4.365  17.728  0.00  0.00    +0.000 A 
ATOM     19  C   UNL     1       4.694   4.226  16.540  0.00  0.00    +0.000 A 
ATOM     20  C   UNL     1       5.288   4.390  15.296  0.00  0.00    +0.000 A 
ATOM     21  C   UNL     1       6.650   4.658  15.215  0.00  0.00    +0.000 A 
ATOM     22  C   UNL     1       7.302   4.836  13.878  0.00  0.00    +0.000 C 
ATOM     23  C   UNL     1       7.399   4.752  16.399  0.00  0.00    +0.000 A 
ATOM     24  C   UNL     1       6.808   4.622  17.669  0.00  0.00    +0.000 A 
BRANCH  24  25
ATOM     25  O   UNL     1       7.706   4.789  18.684  0.00  0.00    +0.000 OA
ATOM     26  C   UNL     1       8.000   6.100  19.140  0.00  0.00    +0.000 C 
ENDBRANCH  24  25
ENDBRANCH  17  18
ENDBRANCH  15  17
ENDBRANCH   1  15
TORSDOF 6
ENDMDL
MODEL 3
REMARK VINA RESULT:      -7.8      0.777      1.596
REMARK  Name = 
REMARK  10 active torsions:
REMARK  status: ('A' for Active; 'I' for Inactive)
REMARK    1  A    between atoms: C_1  and  O_2
REMARK    2  A    between atoms: O_2  and  C_3
REMARK    3  A    between atoms: C_8  and  C_9
REMARK    4  A    between atoms: C_9  and  C_10
REMARK    5  A    between atoms: C_9  and  C_11
REMARK    6  A    between atoms: C_11  and  O_13
REMARK    7  A    between atoms: O_13  and  C_14
REMARK    8  A    between atoms: C_17  and  C_18
REMARK    9  A    between atoms: C_20  and  O_21
REMARK   10  A    between atoms: O_21  and  C_22
REMARK                            x       y       z     vdW  Elec       q    Type
REMARK                         _______ _______ _______ _____ _____    ______ ____
ROOT
ATOM      1  C   UNL     1       2.555   4.274  19.410  0.00  0.00    +0.000 C 
ATOM      2  C   UNL     1       1.361   3.549  20.047  0.00  0.00    +0.000 C 
ENDROOT
BRANCH   1   8
ATOM      3  C   UNL     1       0.911  10.596  20.231  0.00  0.00    +0.000 A 
ATOM      4  C   UNL     1       0.780   9.916  21.440  0.00  0.00    +0.000 A 
ATOM      5  C   UNL     1       1.102   8.556  21.520  0.00  0.00    +0.000 A 
ATOM      6  C   UNL     1       1.547   7.852  20.390  0.00  0.00    +0.000 A 
ATOM      7  C   UNL     1       1.861   6.481  20.451  0.00  0.00    +0.000 A 
ATOM      8  C   UNL     1       2.260   5.769  19.308  0.00  0.00    +0.000 A 
ATOM      9  C   UNL     1       2.347   6.470  18.096  0.00  0.00    +0.000 A 
ATOM     10  C   UNL     1       2.078   7.838  18.028  0.00  0.00    +0.000 A 
ATOM     11  C   UNL     1       1.663   8.539  19.164  0.00  0.00    +0.000 A 
ATOM     12  C   UNL     1       1.344   9.904  19.098  0.00  0.00    +0.000 A 
BRANCH   3  14
ATOM     13  C   UNL     1       1.385  12.585  19.046  0.00  0.00    +0.000 C 
ATOM     14  O   UNL     1       0.601  11.912  20.024  0.00  0.00    +0.000 OA
ENDBRANCH   3  14
ENDBRANCH   1   8
BRANCH   1  15
ATOM     15  C   UNL     1       2.915   3.586  18.094  0.00  0.00    +0.000 C 
ATOM     16  O   UNL     1       2.098   3.297  17.218  0.00  0.00    +0.000 OA
BRANCH  15  17
ATOM     17  O   UNL     1       4.270   3.297  18.006  0.00  0.00    +0.000 OA
BRANCH  17  18
ATOM     18  C   UNL     1       5.107   4.429  18.001  0.00  0.00    +0.000 A 
ATOM     19  C   UNL     1       5.758   4.776  19.199  0.00  0.00    +0.000 A 
ATOM     20  C   UNL     1       6.758   5.739  19.224  0.00  0.00    +0.000 A 
ATOM     21  C   UNL     1       7.100   6.406  18.053  0.00  0.00    +0.000 A 
ATOM     22  C   UNL     1       8.177   7.446  18.068  0.00  0.00    +0.000 C 
ATOM     23  C   UNL     1       6.420   6.091  16.866  0.00  0.00    +0.000 A 
ATOM     24  C   UNL     1       5.428   5.096  16.814  0.00  0.00    +0.000 A 
BRANCH  24  25
ATOM     25  O   UNL     1       4.925   4.922  15.557  0.00  0.00    +0.000 OA
ATOM     26  C   UNL     1       5.793   4.507  14.515  0.00  0.00    +0.000 C 
ENDBRANCH  24  25
ENDBRANCH  17  18
ENDBRANCH  15  17
ENDBRANCH   1  15
TORSDOF 6
ENDMDL
MODEL 4
REMARK VINA RESULT:      -7.7      1.393      2.662
REMARK  Name = 
REMARK  10 active torsions:
REMARK  status: ('A' for Active; 'I' for Inactive)
REMARK    1  A    between atoms: C_1  and  O_2
REMARK    2  A    between atoms: O_2  and  C_3
REMARK    3  A    between atoms: C_8  and  C_9
REMARK    4  A    between atoms: C_9  and  C_10
REMARK    5  A    between atoms: C_9  and  C_11
REMARK    6  A    between atoms: C_11  and  O_13
REMARK    7  A    between atoms: O_13  and  C_14
REMARK    8  A    between atoms: C_17  and  C_18
REMARK    9  A    between atoms: C_20  and  O_21
REMARK   10  A    between atoms: O_21  and  C_22
REMARK                            x       y       z     vdW  Elec       q    Type
REMARK                         _______ _______ _______ _____ _____    ______ ____
ROOT
ATOM      1  C   UNL     1       2.215   4.909  19.292  0.00  0.00    +0.000 C 
ATOM      2  C   UNL     1       1.254   4.202  20.259  0.00  0.00    +0.000 C 
ENDROOT
BRANCH   1   8
ATOM      3  C   UNL     1       0.641  11.165  20.609  0.00  0.00    +0.000 A 
ATOM      4  C   UNL     1       0.388  10.372  21.726  0.00  0.00    +0.000 A 
ATOM      5  C   UNL     1       0.672   9.002  21.695  0.00  0.00    +0.000 A 
ATOM      6  C   UNL     1       1.201   8.401  20.542  0.00  0.00    +0.000 A 
ATOM      7  C   UNL     1       1.479   7.021  20.489  0.00  0.00    +0.000 A 
ATOM      8  C   UNL     1       1.963   6.416  19.319  0.00  0.00    +0.000 A 
ATOM      9  C   UNL     1       2.173   7.230  18.196  0.00  0.00    +0.000 A 
ATOM     10  C   UNL     1       1.940   8.606  18.245  0.00  0.00    +0.000 A 
ATOM     11  C   UNL     1       1.441   9.203  19.406  0.00  0.00    +0.000 A 
ATOM     12  C   UNL     1       1.158  10.576  19.453  0.00  0.00    +0.000 A 
BRANCH   3  14
ATOM     13  C   UNL     1       1.427  13.371  20.926  0.00  0.00    +0.000 C 
ATOM     14  O   UNL     1       0.378  12.504  20.511  0.00  0.00    +0.000 OA
ENDBRANCH   3  14
ENDBRANCH   1   8
BRANCH   1  15
ATOM     15  C   UNL     1       2.116   4.252  17.917  0.00  0.00    +0.000 C 
ATOM     16  O   UNL     1       1.120   4.307  17.194  0.00  0.00    +0.000 OA
BRANCH  15  17
ATOM     17  O   UNL     1       3.272   3.560  17.582  0.00  0.00    +0.000 OA
BRANCH  17  18
ATOM     18  C   UNL     1       4.448   4.332  17.629  0.00  0.00    +0.000 A 
ATOM     19  C   UNL     1       4.647   5.295  16.622  0.00  0.00    +0.000 A 
ATOM     20  C   UNL     1       5.664   6.236  16.714  0.00  0.00    +0.000 A 
ATOM     21  C   UNL     1       6.530   6.207  17.801  0.00  0.00    +0.000 A 
ATOM     22  C   UNL     1       7.630   7.217  17.911  0.00  0.00    +0.000 C 
ATOM     23  C   UNL     1       6.359   5.219  18.783  0.00  0.00    +0.000 A 
ATOM     24  C   UNL     1       5.315   4.278  18.724  0.00  0.00    +0.000 A 
BRANCH  24  25
ATOM     25  O   UNL     1       5.306   3.436  19.799  0.00  0.00    +0.000 OA
ATOM     26  C   UNL     1       4.651   2.183  19.691  0.00  0.00    +0.000 C 
ENDBRANCH  24  25
ENDBRANCH  17  18
ENDBRANCH  15  17
ENDBRANCH   1  15
TORSDOF 6
ENDMDL
MODEL 5
REMARK VINA RESULT:      -7.6      1.105      1.207
REMARK  Name = 
REMARK  10 active torsions:
REMARK  status: ('A' for Active; 'I' for Inactive)
REMARK    1  A    between atoms: C_1  and  O_2
REMARK    2  A    between atoms: O_2  and  C_3
REMARK    3  A    between atoms: C_8  and  C_9
REMARK    4  A    between atoms: C_9  and  C_10
REMARK    5  A    between atoms: C_9  and  C_11
REMARK    6  A    between atoms: C_11  and  O_13
REMARK    7  A    between atoms: O_13  and  C_14
REMARK    8  A    between atoms: C_17  and  C_18
REMARK    9  A    between atoms: C_20  and  O_21
REMARK   10  A    between atoms: O_21  and  C_22
REMARK                            x       y       z     vdW  Elec       q    Type
REMARK                         _______ _______ _______ _____ _____    ______ ____
ROOT
ATOM      1  C   UNL     1       4.021   3.609  18.770  0.00  0.00    +0.000 C 
ATOM      2  C   UNL     1       3.096   2.388  18.868  0.00  0.00    +0.000 C 
ENDROOT
BRANCH   1   8
ATOM      3  C   UNL     1       1.209   9.541  19.277  0.00  0.00    +0.000 A 
ATOM      4  C   UNL     1       1.888   9.445  18.065  0.00  0.00    +0.000 A 
ATOM      5  C   UNL     1       2.546   8.259  17.718  0.00  0.00    +0.000 A 
ATOM      6  C   UNL     1       2.546   7.155  18.585  0.00  0.00    +0.000 A 
ATOM      7  C   UNL     1       3.215   5.960  18.258  0.00  0.00    +0.000 A 
ATOM      8  C   UNL     1       3.252   4.874  19.147  0.00  0.00    +0.000 A 
ATOM      9  C   UNL     1       2.592   5.010  20.378  0.00  0.00    +0.000 A 
ATOM     10  C   UNL     1       1.891   6.174  20.700  0.00  0.00    +0.000 A 
ATOM     11  C   UNL     1       1.871   7.259  19.819  0.00  0.00    +0.000 A 
ATOM     12  C   UNL     1       1.210   8.452  20.151  0.00  0.00    +0.000 A 
BRANCH   3  14
ATOM     13  C   UNL     1       0.899  11.069  21.053  0.00  0.00    +0.000 C 
ATOM     14  O   UNL     1       0.557  10.653  19.736  0.00  0.00    +0.000 OA
ENDBRANCH   3  14
ENDBRANCH   1   8
BRANCH   1  15
ATOM     15  C   UNL     1       4.679   3.629  17.392  0.00  0.00    +0.000 C 
ATOM     16  O   UNL     1       4.064   3.523  16.329  0.00  0.00    +0.000 OA
BRANCH  15  17
ATOM     17  O   UNL     1       6.060   3.755  17.471  0.00  0.00    +0.000 OA
BRANCH  17  18
ATOM     18  C   UNL     1       6.515   5.078  17.634  0.00  0.00    +0.000 A 
ATOM     19  C   UNL     1       7.104   5.428  18.863  0.00  0.00    +0.000 A 
ATOM     20  C   UNL     1       7.767   6.636  19.027  0.00  0.00    +0.000 A 
ATOM     21  C   UNL     1       7.820   7.540  17.972  0.00  0.00    +0.000 A 
ATOM     22  C   UNL     1       8.532   8.847  18.138  0.00  0.00    +0.000 C 
ATOM     23  C   UNL     1       7.194   7.210  16.760  0.00  0.00    +0.000 A 
ATOM     24  C   UNL     1       6.547   5.977  16.564  0.00  0.00    +0.000 A 
BRANCH  24  25
ATOM     25  O   UNL     1       6.043   5.844  15.301  0.00  0.00    +0.000 OA
ATOM     26  C   UNL     1       6.682   4.963  14.391  0.00  0.00    +0.000 C 
ENDBRANCH  24  25
ENDBRANCH  17  18
ENDBRANCH  15  17
ENDBRANCH   1  15
TORSDOF 6
ENDMDL
MODEL 6
REMARK VINA RESULT:      -7.6      1.544      2.679
REMARK  Name = 
REMARK  10 active torsions:
REMARK  status: ('A' for Active; 'I' for Inactive)
REMARK    1  A    between atoms: C_1  and  O_2
REMARK    2  A    between atoms: O_2  and  C_3
REMARK    3  A    between atoms: C_8  and  C_9
REMARK    4  A    between atoms: C_9  and  C_10
REMARK    5  A    between atoms: C_9  and  C_11
REMARK    6  A    between atoms: C_11  and  O_13
REMARK    7  A    between atoms: O_13  and  C_14
REMARK    8  A    between atoms: C_17  and  C_18
REMARK    9  A    between atoms: C_20  and  O_21
REMARK   10  A    between atoms: O_21  and  C_22
REMARK                            x       y       z     vdW  Elec       q    Type
REMARK                         _______ _______ _______ _____ _____    ______ ____
ROOT
ATOM      1  C   UNL     1       2.344   4.092  20.504  0.00  0.00    +0.000 C 
ATOM      2  C   UNL     1       0.962   3.547  20.891  0.00  0.00    +0.000 C 
ENDROOT
BRANCH   1   8
ATOM      3  C   UNL     1       1.190  10.447  19.228  0.00  0.00    +0.000 A 
ATOM      4  C   UNL     1       0.831  10.160  20.543  0.00  0.00    +0.000 A 
ATOM      5  C   UNL     1       1.013   8.870  21.055  0.00  0.00    +0.000 A 
ATOM      6  C   UNL     1       1.543   7.845  20.257  0.00  0.00    +0.000 A 
ATOM      7  C   UNL     1       1.718   6.538  20.753  0.00  0.00    +0.000 A 
ATOM      8  C   UNL     1       2.205   5.504  19.938  0.00  0.00    +0.000 A 
ATOM      9  C   UNL     1       2.523   5.812  18.606  0.00  0.00    +0.000 A 
ATOM     10  C   UNL     1       2.393   7.111  18.111  0.00  0.00    +0.000 A 
ATOM     11  C   UNL     1       1.891   8.134  18.921  0.00  0.00    +0.000 A 
ATOM     12  C   UNL     1       1.710   9.433  18.421  0.00  0.00    +0.000 A 
BRANCH   3  14
ATOM     13  C   UNL     1       2.236  12.323  18.241  0.00  0.00    +0.000 C 
ATOM     14  O   UNL     1       1.034  11.658  18.609  0.00  0.00    +0.000 OA
ENDBRANCH   3  14
ENDBRANCH   1   8
BRANCH   1  15
ATOM     15  C   UNL     1       3.042   3.086  19.592  0.00  0.00    +0.000 C 
ATOM     16  O   UNL     1       2.452   2.268  18.884  0.00  0.00    +0.000 OA
BRANCH  15  17
ATOM     17  O   UNL     1       4.425   3.178  19.670  0.00  0.00    +0.000 OA
BRANCH  17  18
ATOM     18  C   UNL     1       5.043   3.661  18.500  0.00  0.00    +0.000 A 
ATOM     19  C   UNL     1       4.499   3.281  17.260  0.00  0.00    +0.000 A 
ATOM     20  C   UNL     1       4.911   3.879  16.077  0.00  0.00    +0.000 A 
ATOM     21  C   UNL     1       5.910   4.846  16.107  0.00  0.00    +0.000 A 
ATOM     22  C   UNL     1       6.363   5.497  14.838  0.00  0.00    +0.000 C 
ATOM     23  C   UNL     1       6.485   5.193  17.340  0.00  0.00    +0.000 A 
ATOM     24  C   UNL     1       6.057   4.622  18.552  0.00  0.00    +0.000 A 
BRANCH  24  25
ATOM     25  O   UNL     1       6.718   5.130  19.634  0.00  0.00    +0.000 OA
ATOM     26  C   UNL     1       7.945   5.815  19.436  0.00  0.00    +0.000 C 
ENDBRANCH  24  25
ENDBRANCH  17  18
ENDBRANCH  15  17
ENDBRANCH   1  15
TORSDOF 6
ENDMDL
MODEL 7
REMARK VINA RESULT:      -7.6      1.326      2.108
REMARK  Name = 
REMARK  10 active torsions:
REMARK  status: ('A' for Active; 'I' for Inactive)
REMARK    1  A    between atoms: C_1  and  O_2
REMARK    2  A    between atoms: O_2  and  C_3
REMARK    3  A    between atoms: C_8  and  C_9
REMARK    4  A    between atoms: C_9  and  C_10
REMARK    5  A    between atoms: C_9  and  C_11
REMARK    6  A    between atoms: C_11  and  O_13
REMARK    7  A    between atoms: O_13  and  C_14
REMARK    8  A    between atoms: C_17  and  C_18
REMARK    9  A    between atoms: C_20  and  O_21
REMARK   10  A    between atoms: O_21  and  C_22
REMARK                            x       y       z     vdW  Elec       q    Type
REMARK                         _______ _______ _______ _____ _____    ______ ____
ROOT
ATOM      1  C   UNL     1       2.185   4.795  19.528  0.00  0.00    +0.000 C 
ATOM      2  C   UNL     1       1.308   3.933  20.447  0.00  0.00    +0.000 C 
ENDROOT
BRANCH   1   8
ATOM      3  C   UNL     1       1.276  11.305  19.159  0.00  0.00    +0.000 A 
ATOM      4  C   UNL     1       1.868  10.847  17.985  0.00  0.00    +0.000 A 
ATOM      5  C   UNL     1       2.135   9.483  17.818  0.00  0.00    +0.000 A 
ATOM      6  C   UNL     1       1.827   8.559  18.828  0.00  0.00    +0.000 A 
ATOM      7  C   UNL     1       2.103   7.186  18.682  0.00  0.00    +0.000 A 
ATOM      8  C   UNL     1       1.836   6.271  19.713  0.00  0.00    +0.000 A 
ATOM      9  C   UNL     1       1.274   6.765  20.900  0.00  0.00    +0.000 A 
ATOM     10  C   UNL     1       0.958   8.117  21.044  0.00  0.00    +0.000 A 
ATOM     11  C   UNL     1       1.241   9.028  20.023  0.00  0.00    +0.000 A 
ATOM     12  C   UNL     1       0.972  10.397  20.175  0.00  0.00    +0.000 A 
BRANCH   3  14
ATOM     13  C   UNL     1      -0.072  13.193  18.705  0.00  0.00    +0.000 C 
ATOM     14  O   UNL     1       0.995  12.613  19.447  0.00  0.00    +0.000 OA
ENDBRANCH   3  14
ENDBRANCH   1   8
BRANCH   1  15
ATOM     15  C   UNL     1       2.079   4.271  18.098  0.00  0.00    +0.000 C 
ATOM     16  O   UNL     1       1.094   4.429  17.374  0.00  0.00    +0.000 OA
BRANCH  15  17
ATOM     17  O   UNL     1       3.212   3.569  17.710  0.00  0.00    +0.000 OA
BRANCH  17  18
ATOM     18  C   UNL     1       4.393   4.336  17.689  0.00  0.00    +0.000 A 
ATOM     19  C   UNL     1       4.520   5.326  16.697  0.00  0.00    +0.000 A 
ATOM     20  C   UNL     1       5.546   6.261  16.738  0.00  0.00    +0.000 A 
ATOM     21  C   UNL     1       6.493   6.198  17.754  0.00  0.00    +0.000 A 
ATOM     22  C   UNL     1       7.604   7.200  17.808  0.00  0.00    +0.000 C 
ATOM     23  C   UNL     1       6.392   5.182  18.718  0.00  0.00    +0.000 A 
ATOM     24  C   UNL     1       5.342   4.247  18.712  0.00  0.00    +0.000 A 
BRANCH  24  25
ATOM     25  O   UNL     1       5.410   3.374  19.760  0.00  0.00    +0.000 OA
ATOM     26  C   UNL     1       4.607   2.205  19.742  0.00  0.00    +0.000 C 
ENDBRANCH  24  25
ENDBRANCH  17  18
ENDBRANCH  15  17
ENDBRANCH   1  15
TORSDOF 6
ENDMDL
MODEL 8
REMARK VINA RESULT:      -7.6      1.529      2.862
REMARK  Name = 
REMARK  10 active torsions:
REMARK  status: ('A' for Active; 'I' for Inactive)
REMARK    1  A    between atoms: C_1  and  O_2
REMARK    2  A    between atoms: O_2  and  C_3
REMARK    3  A    between atoms: C_8  and  C_9
REMARK    4  A    between atoms: C_9  and  C_10
REMARK    5  A    between atoms: C_9  and  C_11
REMARK    6  A    between atoms: C_11  and  O_13
REMARK    7  A    between atoms: O_13  and  C_14
REMARK    8  A    between atoms: C_17  and  C_18
REMARK    9  A    between atoms: C_20  and  O_21
REMARK   10  A    between atoms: O_21  and  C_22
REMARK                            x       y       z     vdW  Elec       q    Type
REMARK                         _______ _______ _______ _____ _____    ______ ____
ROOT
ATOM      1  C   UNL     1       2.580   4.618  19.499  0.00  0.00    +0.000 C 
ATOM      2  C   UNL     1       1.765   3.820  18.472  0.00  0.00    +0.000 C 
ENDROOT
BRANCH   1   8
ATOM      3  C   UNL     1       0.757  10.896  20.277  0.00  0.00    +0.000 A 
ATOM      4  C   UNL     1       0.643  10.220  21.490  0.00  0.00    +0.000 A 
ATOM      5  C   UNL     1       1.003   8.871  21.580  0.00  0.00    +0.000 A 
ATOM      6  C   UNL     1       1.469   8.173  20.455  0.00  0.00    +0.000 A 
ATOM      7  C   UNL     1       1.822   6.811  20.525  0.00  0.00    +0.000 A 
ATOM      8  C   UNL     1       2.243   6.104  19.388  0.00  0.00    +0.000 A 
ATOM      9  C   UNL     1       2.312   6.798  18.170  0.00  0.00    +0.000 A 
ATOM     10  C   UNL     1       2.004   8.158  18.093  0.00  0.00    +0.000 A 
ATOM     11  C   UNL     1       1.568   8.854  19.224  0.00  0.00    +0.000 A 
ATOM     12  C   UNL     1       1.210  10.209  19.149  0.00  0.00    +0.000 A 
BRANCH   3  14
ATOM     13  C   UNL     1       0.472  12.641  18.709  0.00  0.00    +0.000 C 
ATOM     14  O   UNL     1       0.409  12.201  20.061  0.00  0.00    +0.000 OA
ENDBRANCH   3  14
ENDBRANCH   1   8
BRANCH   1  15
ATOM     15  C   UNL     1       4.059   4.268  19.346  0.00  0.00    +0.000 C 
ATOM     16  O   UNL     1       4.546   3.175  19.640  0.00  0.00    +0.000 OA
BRANCH  15  17
ATOM     17  O   UNL     1       4.803   5.335  18.861  0.00  0.00    +0.000 OA
BRANCH  17  18
ATOM     18  C   UNL     1       5.474   5.073  17.650  0.00  0.00    +0.000 A 
ATOM     19  C   UNL     1       4.772   4.393  16.639  0.00  0.00    +0.000 A 
ATOM     20  C   UNL     1       5.282   4.287  15.352  0.00  0.00    +0.000 A 
ATOM     21  C   UNL     1       6.529   4.828  15.060  0.00  0.00    +0.000 A 
ATOM     22  C   UNL     1       7.090   4.720  13.676  0.00  0.00    +0.000 C 
ATOM     23  C   UNL     1       7.250   5.469  16.081  0.00  0.00    +0.000 A 
ATOM     24  C   UNL     1       6.735   5.615  17.381  0.00  0.00    +0.000 A 
BRANCH  24  25
ATOM     25  O   UNL     1       7.578   6.304  18.205  0.00  0.00    +0.000 OA
ATOM     26  C   UNL     1       8.007   5.703  19.417  0.00  0.00    +0.000 C 
ENDBRANCH  24  25
ENDBRANCH  17  18
ENDBRANCH  15  17
ENDBRANCH   1  15
TORSDOF 6
ENDMDL
MODEL 9
REMARK VINA RESULT:      -7.6      0.854      1.150
REMARK  Name = 
REMARK  10 active torsions:
REMARK  status: ('A' for Active; 'I' for Inactive)
REMARK    1  A    between atoms: C_1  and  O_2
REMARK    2  A    between atoms: O_2  and  C_3
REMARK    3  A    between atoms: C_8  and  C_9
REMARK    4  A    between atoms: C_9  and  C_10
REMARK    5  A    between atoms: C_9  and  C_11
REMARK    6  A    between atoms: C_11  and  O_13
REMARK    7  A    between atoms: O_13  and  C_14
REMARK    8  A    between atoms: C_17  and  C_18
REMARK    9  A    between atoms: C_20  and  O_21
REMARK   10  A    between atoms: O_21  and  C_22
REMARK                            x       y       z     vdW  Elec       q    Type
REMARK                         _______ _______ _______ _____ _____    ______ ____
ROOT
ATOM      1  C   UNL     1       2.641   3.412  18.759  0.00  0.00    +0.000 C 
ATOM      2  C   UNL     1       2.522   3.238  17.238  0.00  0.00    +0.000 C 
ENDROOT
BRANCH   1   8
ATOM      3  C   UNL     1       1.524   9.884  19.221  0.00  0.00    +0.000 A 
ATOM      4  C   UNL     1       1.964   9.573  17.936  0.00  0.00    +0.000 A 
ATOM      5  C   UNL     1       2.241   8.246  17.589  0.00  0.00    +0.000 A 
ATOM      6  C   UNL     1       2.096   7.211  18.524  0.00  0.00    +0.000 A 
ATOM      7  C   UNL     1       2.384   5.872  18.195  0.00  0.00    +0.000 A 
ATOM      8  C   UNL     1       2.283   4.845  19.147  0.00  0.00    +0.000 A 
ATOM      9  C   UNL     1       1.874   5.190  20.444  0.00  0.00    +0.000 A 
ATOM     10  C   UNL     1       1.547   6.506  20.775  0.00  0.00    +0.000 A 
ATOM     11  C   UNL     1       1.666   7.529  19.830  0.00  0.00    +0.000 A 
ATOM     12  C   UNL     1       1.385   8.863  20.163  0.00  0.00    +0.000 A 
BRANCH   3  14
ATOM     13  C   UNL     1      -0.103  11.561  19.570  0.00  0.00    +0.000 C 
ATOM     14  O   UNL     1       1.252  11.142  19.684  0.00  0.00    +0.000 OA
ENDBRANCH   3  14
ENDBRANCH   1   8
BRANCH   1  15
ATOM     15  C   UNL     1       4.020   2.936  19.211  0.00  0.00    +0.000 C 
ATOM     16  O   UNL     1       4.291   2.596  20.364  0.00  0.00    +0.000 OA
BRANCH  15  17
ATOM     17  O   UNL     1       4.947   2.954  18.177  0.00  0.00    +0.000 OA
BRANCH  17  18
ATOM     18  C   UNL     1       5.551   4.208  17.959  0.00  0.00    +0.000 A 
ATOM     19  C   UNL     1       5.822   5.015  19.079  0.00  0.00    +0.000 A 
ATOM     20  C   UNL     1       6.603   6.158  18.973  0.00  0.00    +0.000 A 
ATOM     21  C   UNL     1       7.096   6.540  17.731  0.00  0.00    +0.000 A 
ATOM     22  C   UNL     1       7.939   7.771  17.604  0.00  0.00    +0.000 C 
ATOM     23  C   UNL     1       6.788   5.759  16.605  0.00  0.00    +0.000 A 
ATOM     24  C   UNL     1       6.027   4.580  16.699  0.00  0.00    +0.000 A 
BRANCH  24  25
ATOM     25  O   UNL     1       5.881   3.953  15.494  0.00  0.00    +0.000 OA
ATOM     26  C   UNL     1       6.390   4.574  14.324  0.00  0.00    +0.000 C 
ENDBRANCH  24  25
ENDBRANCH  17  18
ENDBRANCH  15  17
ENDBRANCH   1  15
TORSDOF 6
ENDMDL
