MODEL 1
REMARK VINA RESULT:      -7.8      0.000      0.000
REMARK  Name = 
REMARK  10 active torsions:
REMARK  status: ('A' for Active; 'I' for Inactive)
REMARK    1  A    between atoms: C_1  and  C_2
REMARK    2  A    between atoms: C_2  and  N_3
REMARK    3  A    between atoms: N_3  and  C_4
REMARK    4  A    between atoms: N_3  and  S_6
REMARK    5  A    between atoms: C_4  and  C_5
REMARK    6  A    between atoms: S_6  and  N_9
REMARK    7  A    between atoms: C_12  and  C_13
REMARK    8  A    between atoms: N_15  and  C_16
REMARK    9  A    between atoms: C_16  and  C_17
REMARK   10  A    between atoms: C_20  and  C_21
REMARK                            x       y       z     vdW  Elec       q    Type
REMARK                         _______ _______ _______ _____ _____    ______ ____
ROOT
ATOM      1  N   UNL     1       5.218   3.562  18.668  0.00  0.00    +0.000 NA
ATOM      2  C   UNL     1       5.077   3.544  17.180  0.00  0.00    +0.000 C 
ATOM      3  C   UNL     1       6.165   4.390  16.521  0.00  0.00    +0.000 C 
ATOM      4  C   UNL     1       6.224   5.822  17.069  0.00  0.00    +0.000 C 
ATOM      5  C   UNL     1       6.312   5.774  18.599  0.00  0.00    +0.000 C 
ATOM      6  C   UNL     1       5.177   4.951  19.207  0.00  0.00    +0.000 C 
ENDROOT
BRANCH   4   7
ATOM      7  C   UNL     1       5.057   6.681  16.569  0.00  0.00    +0.000 C 
ATOM      8  O   UNL     1       4.937   7.021  15.397  0.00  0.00    +0.000 OA
ATOM      9  N   UNL     1       4.169   7.061  17.550  0.00  0.00    +0.000 N 
ATOM     10  H   UNL     1       4.345   6.816  18.515  0.00  0.00    +0.000 HD
BRANCH   9  11
ATOM     11  C   UNL     1       2.985   7.856  17.274  0.00  0.00    +0.000 C 
BRANCH  11  12
ATOM     12  C   UNL     1       2.245   8.187  18.547  0.00  0.00    +0.000 A 
ATOM     13  C   UNL     1       2.311   7.322  19.648  0.00  0.00    +0.000 A 
ATOM     14  C   UNL     1       1.562   7.575  20.801  0.00  0.00    +0.000 A 
ATOM     15  C   UNL     1       0.744   8.707  20.881  0.00  0.00    +0.000 A 
ATOM     16  C   UNL     1      -0.167   8.915  22.054  0.00  0.00    +0.000 C 
ATOM     17  C   UNL     1       0.722   9.604  19.806  0.00  0.00    +0.000 A 
ATOM     18  C   UNL     1       1.469   9.348  18.652  0.00  0.00    +0.000 A 
ENDBRANCH  11  12
ENDBRANCH   9  11
ENDBRANCH   4   7
BRANCH   1  19
ATOM     19  S   UNL     1       4.117   2.500  19.425  0.00  0.00    +0.000 S 
ATOM     20  O   UNL     1       4.685   2.073  20.682  0.00  0.00    +0.000 OA
ATOM     21  O   UNL     1       3.659   1.538  18.454  0.00  0.00    +0.000 OA
BRANCH  19  22
ATOM     22  N   UNL     1       2.807   3.538  19.799  0.00  0.00    +0.000 NA
BRANCH  22  24
ATOM     23  C   UNL     1       1.576   4.332  17.729  0.00  0.00    +0.000 C 
ATOM     24  C   UNL     1       1.664   3.306  18.848  0.00  0.00    +0.000 C 
ENDBRANCH  22  24
BRANCH  22  25
ATOM     25  C   UNL     1       2.410   3.626  21.234  0.00  0.00    +0.000 C 
ATOM     26  C   UNL     1       1.337   2.641  21.659  0.00  0.00    +0.000 C 
ENDBRANCH  22  25
ENDBRANCH  19  22
ENDBRANCH   1  19
TORSDOF 7
ENDMDL
MODEL 2
REMARK VINA RESULT:      -7.6      4.173      5.503
REMARK  Name = 
REMARK  10 active torsions:
REMARK  status: ('A' for Active; 'I' for Inactive)
REMARK    1  A    between atoms: C_1  and  C_2
REMARK    2  A    between atoms: C_2  and  N_3
REMARK    3  A    between atoms: N_3  and  C_4
REMARK    4  A    between atoms: N_3  and  S_6
REMARK    5  A    between atoms: C_4  and  C_5
REMARK    6  A    between atoms: S_6  and  N_9
REMARK    7  A    between atoms: C_12  and  C_13
REMARK    8  A    between atoms: N_15  and  C_16
REMARK    9  A    between atoms: C_16  and  C_17
REMARK   10  A    between atoms: C_20  and  C_21
REMARK                            x       y       z     vdW  Elec       q    Type
REMARK                         _______ _______ _______ _____ _____    ______ ____
ROOT
ATOM      1  N   UNL     1       5.589   4.056  18.564  0.00  0.00    +0.000 NA
ATOM      2  C   UNL     1       6.117   4.297  17.187  0.00  0.00    +0.000 C 
ATOM      3  C   UNL     1       7.600   4.661  17.228  0.00  0.00    +0.000 C 
ATOM      4  C   UNL     1       7.902   5.837  18.166  0.00  0.00    +0.000 C 
ATOM      5  C   UNL     1       7.289   5.555  19.543  0.00  0.00    +0.000 C 
ATOM      6  C   UNL     1       5.797   5.239  19.446  0.00  0.00    +0.000 C 
ENDROOT
BRANCH   4   7
ATOM      7  C   UNL     1       7.445   7.177  17.577  0.00  0.00    +0.000 C 
ATOM      8  O   UNL     1       6.565   7.263  16.728  0.00  0.00    +0.000 OA
ATOM      9  N   UNL     1       8.123   8.272  18.062  0.00  0.00    +0.000 N 
ATOM     10  H   UNL     1       8.889   8.148  18.710  0.00  0.00    +0.000 HD
BRANCH   9  11
ATOM     11  C   UNL     1       7.820   9.631  17.647  0.00  0.00    +0.000 C 
BRANCH  11  12
ATOM     12  C   UNL     1       8.756  10.618  18.301  0.00  0.00    +0.000 A 
ATOM     13  C   UNL     1       8.942  11.892  17.747  0.00  0.00    +0.000 A 
ATOM     14  C   UNL     1       9.870  12.782  18.296  0.00  0.00    +0.000 A 
ATOM     15  C   UNL     1      10.619  12.420  19.420  0.00  0.00    +0.000 A 
ATOM     16  C   UNL     1      11.713  13.310  19.933  0.00  0.00    +0.000 C 
ATOM     17  C   UNL     1      10.393  11.172  20.013  0.00  0.00    +0.000 A 
ATOM     18  C   UNL     1       9.467  10.281  19.460  0.00  0.00    +0.000 A 
ENDBRANCH  11  12
ENDBRANCH   9  11
ENDBRANCH   4   7
BRANCH   1  19
ATOM     19  S   UNL     1       3.978   3.493  18.540  0.00  0.00    +0.000 S 
ATOM     20  O   UNL     1       3.883   2.342  19.408  0.00  0.00    +0.000 OA
ATOM     21  O   UNL     1       3.531   3.428  17.171  0.00  0.00    +0.000 OA
BRANCH  19  22
ATOM     22  N   UNL     1       3.134   4.768  19.312  0.00  0.00    +0.000 NA
BRANCH  22  24
ATOM     23  C   UNL     1       2.851   6.993  18.129  0.00  0.00    +0.000 C 
ATOM     24  C   UNL     1       2.354   5.567  18.305  0.00  0.00    +0.000 C 
ENDBRANCH  22  24
BRANCH  22  25
ATOM     25  C   UNL     1       2.376   4.418  20.547  0.00  0.00    +0.000 C 
ATOM     26  C   UNL     1       0.901   4.132  20.329  0.00  0.00    +0.000 C 
ENDBRANCH  22  25
ENDBRANCH  19  22
ENDBRANCH   1  19
TORSDOF 7
ENDMDL
MODEL 3
REMARK VINA RESULT:      -7.4      4.183      5.568
REMARK  Name = 
REMARK  10 active torsions:
REMARK  status: ('A' for Active; 'I' for Inactive)
REMARK    1  A    between atoms: C_1  and  C_2
REMARK    2  A    between atoms: C_2  and  N_3
REMARK    3  A    between atoms: N_3  and  C_4
REMARK    4  A    between atoms: N_3  and  S_6
REMARK    5  A    between atoms: C_4  and  C_5
REMARK    6  A    between atoms: S_6  and  N_9
REMARK    7  A    between atoms: C_12  and  C_13
REMARK    8  A    between atoms: N_15  and  C_16
REMARK    9  A    between atoms: C_16  and  C_17
REMARK   10  A    between atoms: C_20  and  C_21
REMARK                            x       y       z     vdW  Elec       q    Type
REMARK                         _______ _______ _______ _____ _____    ______ ____
ROOT
ATOM      1  N   UNL     1       5.380   4.052  18.360  0.00  0.00    +0.000 NA
ATOM      2  C   UNL     1       6.105   4.278  17.074  0.00  0.00    +0.000 C 
ATOM      3  C   UNL     1       7.582   4.576  17.328  0.00  0.00    +0.000 C 
ATOM      4  C   UNL     1       7.799   5.731  18.313  0.00  0.00    +0.000 C 
ATOM      5  C   UNL     1       6.987   5.468  19.587  0.00  0.00    +0.000 C 
ATOM      6  C   UNL     1       5.512   5.218  19.278  0.00  0.00    +0.000 C 
ENDROOT
BRANCH   4   7
ATOM      7  C   UNL     1       7.487   7.094  17.685  0.00  0.00    +0.000 C 
ATOM      8  O   UNL     1       6.669   7.237  16.783  0.00  0.00    +0.000 OA
ATOM      9  N   UNL     1       8.221   8.139  18.198  0.00  0.00    +0.000 N 
ATOM     10  H   UNL     1       8.935   7.964  18.892  0.00  0.00    +0.000 HD
BRANCH   9  11
ATOM     11  C   UNL     1       8.054   9.512  17.751  0.00  0.00    +0.000 C 
BRANCH  11  12
ATOM     12  C   UNL     1       9.081  10.417  18.386  0.00  0.00    +0.000 A 
ATOM     13  C   UNL     1       9.272  10.406  19.774  0.00  0.00    +0.000 A 
ATOM     14  C   UNL     1      10.159  11.300  20.381  0.00  0.00    +0.000 A 
ATOM     15  C   UNL     1      10.884  12.212  19.608  0.00  0.00    +0.000 A 
ATOM     16  C   UNL     1      11.732  13.266  20.257  0.00  0.00    +0.000 C 
ATOM     17  C   UNL     1      10.741  12.186  18.215  0.00  0.00    +0.000 A 
ATOM     18  C   UNL     1       9.851  11.294  17.610  0.00  0.00    +0.000 A 
ENDBRANCH  11  12
ENDBRANCH   9  11
ENDBRANCH   4   7
BRANCH   1  19
ATOM     19  S   UNL     1       3.765   3.560  18.103  0.00  0.00    +0.000 S 
ATOM     20  O   UNL     1       3.531   2.349  18.854  0.00  0.00    +0.000 OA
ATOM     21  O   UNL     1       3.481   3.624  16.691  0.00  0.00    +0.000 OA
BRANCH  19  22
ATOM     22  N   UNL     1       2.877   4.804  18.877  0.00  0.00    +0.000 NA
BRANCH  22  24
ATOM     23  C   UNL     1       2.740   7.258  18.256  0.00  0.00    +0.000 C 
ATOM     24  C   UNL     1       2.415   5.823  17.873  0.00  0.00    +0.000 C 
ENDBRANCH  22  24
BRANCH  22  25
ATOM     25  C   UNL     1       1.832   4.375  19.850  0.00  0.00    +0.000 C 
ATOM     26  C   UNL     1       2.242   4.473  21.308  0.00  0.00    +0.000 C 
ENDBRANCH  22  25
ENDBRANCH  19  22
ENDBRANCH   1  19
TORSDOF 7
ENDMDL
MODEL 4
REMARK VINA RESULT:      -7.1      2.960      5.967
REMARK  Name = 
REMARK  10 active torsions:
REMARK  status: ('A' for Active; 'I' for Inactive)
REMARK    1  A    between atoms: C_1  and  C_2
REMARK    2  A    between atoms: C_2  and  N_3
REMARK    3  A    between atoms: N_3  and  C_4
REMARK    4  A    between atoms: N_3  and  S_6
REMARK    5  A    between atoms: C_4  and  C_5
REMARK    6  A    between atoms: S_6  and  N_9
REMARK    7  A    between atoms: C_12  and  C_13
REMARK    8  A    between atoms: N_15  and  C_16
REMARK    9  A    between atoms: C_16  and  C_17
REMARK   10  A    between atoms: C_20  and  C_21
REMARK                            x       y       z     vdW  Elec       q    Type
REMARK                         _______ _______ _______ _____ _____    ______ ____
ROOT
ATOM      1  N   UNL     1       3.950   4.758  18.477  0.00  0.00    +0.000 NA
ATOM      2  C   UNL     1       5.212   4.168  19.016  0.00  0.00    +0.000 C 
ATOM      3  C   UNL     1       6.281   5.244  19.196  0.00  0.00    +0.000 C 
ATOM      4  C   UNL     1       6.534   6.056  17.920  0.00  0.00    +0.000 C 
ATOM      5  C   UNL     1       5.198   6.587  17.386  0.00  0.00    +0.000 C 
ATOM      6  C   UNL     1       4.181   5.464  17.185  0.00  0.00    +0.000 C 
ENDROOT
BRANCH   4   7
ATOM      7  C   UNL     1       7.315   5.257  16.870  0.00  0.00    +0.000 C 
ATOM      8  O   UNL     1       8.011   4.289  17.156  0.00  0.00    +0.000 OA
ATOM      9  N   UNL     1       7.191   5.732  15.584  0.00  0.00    +0.000 N 
ATOM     10  H   UNL     1       6.662   6.575  15.404  0.00  0.00    +0.000 HD
BRANCH   9  11
ATOM     11  C   UNL     1       7.834   5.097  14.446  0.00  0.00    +0.000 C 
BRANCH  11  12
ATOM     12  C   UNL     1       6.817   4.431  13.552  0.00  0.00    +0.000 A 
ATOM     13  C   UNL     1       7.164   4.049  12.249  0.00  0.00    +0.000 A 
ATOM     14  C   UNL     1       6.207   3.510  11.384  0.00  0.00    +0.000 A 
ATOM     15  C   UNL     1       4.888   3.328  11.812  0.00  0.00    +0.000 A 
ATOM     16  C   UNL     1       3.824   2.881  10.853  0.00  0.00    +0.000 C 
ATOM     17  C   UNL     1       4.552   3.653  13.131  0.00  0.00    +0.000 A 
ATOM     18  C   UNL     1       5.509   4.196  13.994  0.00  0.00    +0.000 A 
ENDBRANCH  11  12
ENDBRANCH   9  11
ENDBRANCH   4   7
BRANCH   1  19
ATOM     19  S   UNL     1       2.686   3.611  18.414  0.00  0.00    +0.000 S 
ATOM     20  O   UNL     1       3.268   2.290  18.380  0.00  0.00    +0.000 OA
ATOM     21  O   UNL     1       1.733   4.028  17.416  0.00  0.00    +0.000 OA
BRANCH  19  22
ATOM     22  N   UNL     1       1.954   3.791  19.952  0.00  0.00    +0.000 NA
BRANCH  22  24
ATOM     23  C   UNL     1       1.683   6.184  20.746  0.00  0.00    +0.000 C 
ATOM     24  C   UNL     1       1.082   5.017  19.980  0.00  0.00    +0.000 C 
ENDBRANCH  22  24
BRANCH  22  25
ATOM     25  C   UNL     1       1.329   2.574  20.543  0.00  0.00    +0.000 C 
ATOM     26  C   UNL     1       1.557   2.401  22.034  0.00  0.00    +0.000 C 
ENDBRANCH  22  25
ENDBRANCH  19  22
ENDBRANCH   1  19
TORSDOF 7
ENDMDL
MODEL 5
REMARK VINA RESULT:      -7.1      3.149      6.128
REMARK  Name = 
REMARK  10 active torsions:
REMARK  status: ('A' for Active; 'I' for Inactive)
REMARK    1  A    between atoms: C_1  and  C_2
REMARK    2  A    between atoms: C_2  and  N_3
REMARK    3  A    between atoms: N_3  and  C_4
REMARK    4  A    between atoms: N_3  and  S_6
REMARK    5  A    between atoms: C_4  and  C_5
REMARK    6  A    between atoms: S_6  and  N_9
REMARK    7  A    between atoms: C_12  and  C_13
REMARK    8  A    between atoms: N_15  and  C_16
REMARK    9  A    between atoms: C_16  and  C_17
REMARK   10  A    between atoms: C_20  and  C_21
REMARK                            x       y       z     vdW  Elec       q    Type
REMARK                         _______ _______ _______ _____ _____    ______ ____
ROOT
ATOM      1  N   UNL     1       3.864   5.268  18.184  0.00  0.00    +0.000 NA
ATOM      2  C   UNL     1       4.954   4.444  18.790  0.00  0.00    +0.000 C 
ATOM      3  C   UNL     1       6.167   5.310  19.126  0.00  0.00    +0.000 C 
ATOM      4  C   UNL     1       6.671   6.125  17.929  0.00  0.00    +0.000 C 
ATOM      5  C   UNL     1       5.499   6.904  17.319  0.00  0.00    +0.000 C 
ATOM      6  C   UNL     1       4.331   5.984  16.963  0.00  0.00    +0.000 C 
ENDROOT
BRANCH   4   7
ATOM      7  C   UNL     1       7.401   5.253  16.901  0.00  0.00    +0.000 C 
ATOM      8  O   UNL     1       8.039   4.253  17.213  0.00  0.00    +0.000 OA
ATOM      9  N   UNL     1       7.304   5.700  15.603  0.00  0.00    +0.000 N 
ATOM     10  H   UNL     1       6.826   6.567  15.400  0.00  0.00    +0.000 HD
BRANCH   9  11
ATOM     11  C   UNL     1       7.906   4.998  14.482  0.00  0.00    +0.000 C 
BRANCH  11  12
ATOM     12  C   UNL     1       6.849   4.375  13.602  0.00  0.00    +0.000 A 
ATOM     13  C   UNL     1       7.162   3.973  12.297  0.00  0.00    +0.000 A 
ATOM     14  C   UNL     1       6.172   3.474  11.446  0.00  0.00    +0.000 A 
ATOM     15  C   UNL     1       4.851   3.354  11.890  0.00  0.00    +0.000 A 
ATOM     16  C   UNL     1       3.757   2.952  10.945  0.00  0.00    +0.000 C 
ATOM     17  C   UNL     1       4.546   3.699  13.212  0.00  0.00    +0.000 A 
ATOM     18  C   UNL     1       5.537   4.201  14.061  0.00  0.00    +0.000 A 
ENDBRANCH  11  12
ENDBRANCH   9  11
ENDBRANCH   4   7
BRANCH   1  19
ATOM     19  S   UNL     1       2.438   4.362  17.945  0.00  0.00    +0.000 S 
ATOM     20  O   UNL     1       2.588   3.583  16.738  0.00  0.00    +0.000 OA
ATOM     21  O   UNL     1       1.302   5.231  18.130  0.00  0.00    +0.000 OA
BRANCH  19  22
ATOM     22  N   UNL     1       2.480   3.261  19.256  0.00  0.00    +0.000 NA
BRANCH  22  24
ATOM     23  C   UNL     1       1.450   2.735  21.513  0.00  0.00    +0.000 C 
ATOM     24  C   UNL     1       1.551   3.710  20.350  0.00  0.00    +0.000 C 
ENDBRANCH  22  24
BRANCH  22  25
ATOM     25  C   UNL     1       2.383   1.812  18.916  0.00  0.00    +0.000 C 
ATOM     26  C   UNL     1       3.715   1.123  18.682  0.00  0.00    +0.000 C 
ENDBRANCH  22  25
ENDBRANCH  19  22
ENDBRANCH   1  19
TORSDOF 7
ENDMDL
MODEL 6
REMARK VINA RESULT:      -7.0      4.161      5.705
REMARK  Name = 
REMARK  10 active torsions:
REMARK  status: ('A' for Active; 'I' for Inactive)
REMARK    1  A    between atoms: C_1  and  C_2
REMARK    2  A    between atoms: C_2  and  N_3
REMARK    3  A    between atoms: N_3  and  C_4
REMARK    4  A    between atoms: N_3  and  S_6
REMARK    5  A    between atoms: C_4  and  C_5
REMARK    6  A    between atoms: S_6  and  N_9
REMARK    7  A    between atoms: C_12  and  C_13
REMARK    8  A    between atoms: N_15  and  C_16
REMARK    9  A    between atoms: C_16  and  C_17
REMARK   10  A    between atoms: C_20  and  C_21
REMARK                            x       y       z     vdW  Elec       q    Type
REMARK                         _______ _______ _______ _____ _____    ______ ____
ROOT
ATOM      1  N   UNL     1       5.094   4.364  18.347  0.00  0.00    +0.000 NA
ATOM      2  C   UNL     1       5.815   4.401  17.039  0.00  0.00    +0.000 C 
ATOM      3  C   UNL     1       7.324   4.503  17.253  0.00  0.00    +0.000 C 
ATOM      4  C   UNL     1       7.722   5.679  18.154  0.00  0.00    +0.000 C 
ATOM      5  C   UNL     1       6.911   5.617  19.454  0.00  0.00    +0.000 C 
ATOM      6  C   UNL     1       5.408   5.558  19.181  0.00  0.00    +0.000 C 
ENDROOT
BRANCH   4   7
ATOM      7  C   UNL     1       7.590   7.028  17.438  0.00  0.00    +0.000 C 
ATOM      8  O   UNL     1       7.188   7.129  16.284  0.00  0.00    +0.000 OA
ATOM      9  N   UNL     1       7.985   8.112  18.188  0.00  0.00    +0.000 N 
ATOM     10  H   UNL     1       8.375   7.975  19.110  0.00  0.00    +0.000 HD
BRANCH   9  11
ATOM     11  C   UNL     1       7.912   9.477  17.695  0.00  0.00    +0.000 C 
BRANCH  11  12
ATOM     12  C   UNL     1       8.990  10.334  18.314  0.00  0.00    +0.000 A 
ATOM     13  C   UNL     1       9.682  11.272  17.536  0.00  0.00    +0.000 A 
ATOM     14  C   UNL     1      10.739  12.009  18.077  0.00  0.00    +0.000 A 
ATOM     15  C   UNL     1      11.114  11.833  19.413  0.00  0.00    +0.000 A 
ATOM     16  C   UNL     1      12.332  12.515  19.965  0.00  0.00    +0.000 C 
ATOM     17  C   UNL     1      10.388  10.940  20.209  0.00  0.00    +0.000 A 
ATOM     18  C   UNL     1       9.333  10.201  19.665  0.00  0.00    +0.000 A 
ENDBRANCH  11  12
ENDBRANCH   9  11
ENDBRANCH   4   7
BRANCH   1  19
ATOM     19  S   UNL     1       3.421   4.089  18.145  0.00  0.00    +0.000 S 
ATOM     20  O   UNL     1       3.245   2.846  17.431  0.00  0.00    +0.000 OA
ATOM     21  O   UNL     1       2.805   5.306  17.679  0.00  0.00    +0.000 OA
BRANCH  19  22
ATOM     22  N   UNL     1       2.899   3.815  19.754  0.00  0.00    +0.000 NA
BRANCH  22  24
ATOM     23  C   UNL     1       1.641   5.787  20.733  0.00  0.00    +0.000 C 
ATOM     24  C   UNL     1       1.562   4.463  19.990  0.00  0.00    +0.000 C 
ENDBRANCH  22  24
BRANCH  22  25
ATOM     25  C   UNL     1       3.011   2.420  20.266  0.00  0.00    +0.000 C 
ATOM     26  C   UNL     1       4.400   2.021  20.729  0.00  0.00    +0.000 C 
ENDBRANCH  22  25
ENDBRANCH  19  22
ENDBRANCH   1  19
TORSDOF 7
ENDMDL
MODEL 7
REMARK VINA RESULT:      -7.0      4.107      5.284
REMARK  Name = 
REMARK  10 active torsions:
REMARK  status: ('A' for Active; 'I' for Inactive)
REMARK    1  A    between atoms: C_1  and  C_2
REMARK    2  A    between atoms: C_2  and  N_3
REMARK    3  A    between atoms: N_3  and  C_4
REMARK    4  A    between atoms: N_3  and  S_6
REMARK    5  A    between atoms: C_4  and  C_5
REMARK    6  A    between atoms: S_6  and  N_9
REMARK    7  A    between atoms: C_12  and  C_13
REMARK    8  A    between atoms: N_15  and  C_16
REMARK    9  A    between atoms: C_16  and  C_17
REMARK   10  A    between atoms: C_20  and  C_21
REMARK                            x       y       z     vdW  Elec       q    Type
REMARK                         _______ _______ _______ _____ _____    ______ ____
ROOT
ATOM      1  N   UNL     1       4.964   4.282  18.369  0.00  0.00    +0.000 NA
ATOM      2  C   UNL     1       5.580   4.393  17.012  0.00  0.00    +0.000 C 
ATOM      3  C   UNL     1       7.094   4.563  17.115  0.00  0.00    +0.000 C 
ATOM      4  C   UNL     1       7.506   5.729  18.023  0.00  0.00    +0.000 C 
ATOM      5  C   UNL     1       6.801   5.588  19.377  0.00  0.00    +0.000 C 
ATOM      6  C   UNL     1       5.286   5.464  19.217  0.00  0.00    +0.000 C 
ENDROOT
BRANCH   4   7
ATOM      7  C   UNL     1       7.257   7.090  17.364  0.00  0.00    +0.000 C 
ATOM      8  O   UNL     1       6.486   7.241  16.422  0.00  0.00    +0.000 OA
ATOM      9  N   UNL     1       7.989   8.125  17.900  0.00  0.00    +0.000 N 
ATOM     10  H   UNL     1       8.664   7.943  18.630  0.00  0.00    +0.000 HD
BRANCH   9  11
ATOM     11  C   UNL     1       7.876   9.495  17.430  0.00  0.00    +0.000 C 
BRANCH  11  12
ATOM     12  C   UNL     1       8.663  10.436  18.309  0.00  0.00    +0.000 A 
ATOM     13  C   UNL     1       9.134  10.010  19.558  0.00  0.00    +0.000 A 
ATOM     14  C   UNL     1       9.789  10.899  20.416  0.00  0.00    +0.000 A 
ATOM     15  C   UNL     1      10.001  12.227  20.032  0.00  0.00    +0.000 A 
ATOM     16  C   UNL     1      10.578  13.222  20.996  0.00  0.00    +0.000 C 
ATOM     17  C   UNL     1       9.585  12.641  18.761  0.00  0.00    +0.000 A 
ATOM     18  C   UNL     1       8.926  11.752  17.906  0.00  0.00    +0.000 A 
ENDBRANCH  11  12
ENDBRANCH   9  11
ENDBRANCH   4   7
BRANCH   1  19
ATOM     19  S   UNL     1       3.295   3.932  18.285  0.00  0.00    +0.000 S 
ATOM     20  O   UNL     1       3.019   3.327  17.003  0.00  0.00    +0.000 OA
ATOM     21  O   UNL     1       2.557   5.086  18.735  0.00  0.00    +0.000 OA
BRANCH  19  22
ATOM     22  N   UNL     1       3.120   2.701  19.463  0.00  0.00    +0.000 NA
BRANCH  22  24
ATOM     23  C   UNL     1       4.888   1.550  20.870  0.00  0.00    +0.000 C 
ATOM     24  C   UNL     1       4.334   1.812  19.479  0.00  0.00    +0.000 C 
ENDBRANCH  22  24
BRANCH  22  25
ATOM     25  C   UNL     1       2.646   3.126  20.811  0.00  0.00    +0.000 C 
ATOM     26  C   UNL     1       1.148   3.007  21.024  0.00  0.00    +0.000 C 
ENDBRANCH  22  25
ENDBRANCH  19  22
ENDBRANCH   1  19
TORSDOF 7
ENDMDL
MODEL 8
REMARK VINA RESULT:      -7.0      0.491      1.175
REMARK  Name = 
REMARK  10 active torsions:
REMARK  status: ('A' for Active; 'I' for Inactive)
REMARK    1  A    between atoms: C_1  and  C_2
REMARK    2  A    between atoms: C_2  and  N_3
REMARK    3  A    between atoms: N_3  and  C_4
REMARK    4  A    between atoms: N_3  and  S_6
REMARK    5  A    between atoms: C_4  and  C_5
REMARK    6  A    between atoms: S_6  and  N_9
REMARK    7  A    between atoms: C_12  and  C_13
REMARK    8  A    between atoms: N_15  and  C_16
REMARK    9  A    between atoms: C_16  and  C_17
REMARK   10  A    between atoms: C_20  and  C_21
REMARK                            x       y       z     vdW  Elec       q    Type
REMARK                         _______ _______ _______ _____ _____    ______ ____
ROOT
ATOM      1  N   UNL     1       5.353   3.486  18.578  0.00  0.00    +0.000 NA
ATOM      2  C   UNL     1       5.342   3.558  17.085  0.00  0.00    +0.000 C 
ATOM      3  C   UNL     1       6.404   4.533  16.581  0.00  0.00    +0.000 C 
ATOM      4  C   UNL     1       6.290   5.924  17.217  0.00  0.00    +0.000 C 
ATOM      5  C   UNL     1       6.250   5.780  18.743  0.00  0.00    +0.000 C 
ATOM      6  C   UNL     1       5.144   4.826  19.194  0.00  0.00    +0.000 C 
ENDROOT
BRANCH   4   7
ATOM      7  C   UNL     1       5.099   6.716  16.666  0.00  0.00    +0.000 C 
ATOM      8  O   UNL     1       4.982   7.000  15.479  0.00  0.00    +0.000 OA
ATOM      9  N   UNL     1       4.185   7.107  17.619  0.00  0.00    +0.000 N 
ATOM     10  H   UNL     1       4.357   6.911  18.596  0.00  0.00    +0.000 HD
BRANCH   9  11
ATOM     11  C   UNL     1       2.976   7.845  17.294  0.00  0.00    +0.000 C 
BRANCH  11  12
ATOM     12  C   UNL     1       2.187   8.167  18.539  0.00  0.00    +0.000 A 
ATOM     13  C   UNL     1       1.404   9.328  18.600  0.00  0.00    +0.000 A 
ATOM     14  C   UNL     1       0.738   9.680  19.777  0.00  0.00    +0.000 A 
ATOM     15  C   UNL     1       0.830   8.868  20.913  0.00  0.00    +0.000 A 
ATOM     16  C   UNL     1       0.235   9.304  22.219  0.00  0.00    +0.000 C 
ATOM     17  C   UNL     1       1.562   7.677  20.838  0.00  0.00    +0.000 A 
ATOM     18  C   UNL     1       2.231   7.328  19.660  0.00  0.00    +0.000 A 
ENDBRANCH  11  12
ENDBRANCH   9  11
ENDBRANCH   4   7
BRANCH   1  19
ATOM     19  S   UNL     1       4.288   2.287  19.166  0.00  0.00    +0.000 S 
ATOM     20  O   UNL     1       4.793   1.809  20.431  0.00  0.00    +0.000 OA
ATOM     21  O   UNL     1       3.985   1.372  18.094  0.00  0.00    +0.000 OA
BRANCH  19  22
ATOM     22  N   UNL     1       2.873   3.191  19.505  0.00  0.00    +0.000 NA
BRANCH  22  24
ATOM     23  C   UNL     1       0.584   2.441  18.712  0.00  0.00    +0.000 C 
ATOM     24  C   UNL     1       1.906   3.104  18.357  0.00  0.00    +0.000 C 
ENDBRANCH  22  24
BRANCH  22  25
ATOM     25  C   UNL     1       2.259   2.994  20.849  0.00  0.00    +0.000 C 
ATOM     26  C   UNL     1       2.300   4.213  21.752  0.00  0.00    +0.000 C 
ENDBRANCH  22  25
ENDBRANCH  19  22
ENDBRANCH   1  19
TORSDOF 7
ENDMDL
MODEL 9
REMARK VINA RESULT:      -6.9      4.098      5.542
REMARK  Name = 
REMARK  10 active torsions:
REMARK  status: ('A' for Active; 'I' for Inactive)
REMARK    1  A    between atoms: C_1  and  C_2
REMARK    2  A    between atoms: C_2  and  N_3
REMARK    3  A    between atoms: N_3  and  C_4
REMARK    4  A    between atoms: N_3  and  S_6
REMARK    5  A    between atoms: C_4  and  C_5
REMARK    6  A    between atoms: S_6  and  N_9
REMARK    7  A    between atoms: C_12  and  C_13
REMARK    8  A    between atoms: N_15  and  C_16
REMARK    9  A    between atoms: C_16  and  C_17
REMARK   10  A    between atoms: C_20  and  C_21
REMARK                            x       y       z     vdW  Elec       q    Type
REMARK                         _______ _______ _______ _____ _____    ______ ____
ROOT
ATOM      1  N   UNL     1       5.630   4.184  18.919  0.00  0.00    +0.000 NA
ATOM      2  C   UNL     1       5.756   4.367  17.442  0.00  0.00    +0.000 C 
ATOM      3  C   UNL     1       7.212   4.610  17.046  0.00  0.00    +0.000 C 
ATOM      4  C   UNL     1       7.856   5.769  17.818  0.00  0.00    +0.000 C 
ATOM      5  C   UNL     1       7.646   5.553  19.322  0.00  0.00    +0.000 C 
ATOM      6  C   UNL     1       6.169   5.356  19.665  0.00  0.00    +0.000 C 
ENDROOT
BRANCH   4   7
ATOM      7  C   UNL     1       7.350   7.135  17.341  0.00  0.00    +0.000 C 
ATOM      8  O   UNL     1       6.430   7.259  16.540  0.00  0.00    +0.000 OA
ATOM      9  N   UNL     1       8.032   8.209  17.864  0.00  0.00    +0.000 N 
ATOM     10  H   UNL     1       8.830   8.059  18.467  0.00  0.00    +0.000 HD
BRANCH   9  11
ATOM     11  C   UNL     1       7.688   9.587  17.552  0.00  0.00    +0.000 C 
BRANCH  11  12
ATOM     12  C   UNL     1       8.625  10.548  18.243  0.00  0.00    +0.000 A 
ATOM     13  C   UNL     1       8.843  11.827  17.713  0.00  0.00    +0.000 A 
ATOM     14  C   UNL     1       9.772  12.693  18.296  0.00  0.00    +0.000 A 
ATOM     15  C   UNL     1      10.490  12.302  19.431  0.00  0.00    +0.000 A 
ATOM     16  C   UNL     1      11.586  13.166  19.982  0.00  0.00    +0.000 C 
ATOM     17  C   UNL     1      10.232  11.048  19.998  0.00  0.00    +0.000 A 
ATOM     18  C   UNL     1       9.305  10.181  19.411  0.00  0.00    +0.000 A 
ENDBRANCH  11  12
ENDBRANCH   9  11
ENDBRANCH   4   7
BRANCH   1  19
ATOM     19  S   UNL     1       4.043   3.752  19.375  0.00  0.00    +0.000 S 
ATOM     20  O   UNL     1       3.651   4.572  20.498  0.00  0.00    +0.000 OA
ATOM     21  O   UNL     1       3.955   2.315  19.440  0.00  0.00    +0.000 OA
BRANCH  19  22
ATOM     22  N   UNL     1       3.121   4.278  18.031  0.00  0.00    +0.000 NA
BRANCH  22  24
ATOM     23  C   UNL     1       0.984   2.951  18.354  0.00  0.00    +0.000 C 
ATOM     24  C   UNL     1       2.243   3.165  17.528  0.00  0.00    +0.000 C 
ENDBRANCH  22  24
BRANCH  22  25
ATOM     25  C   UNL     1       2.436   5.596  18.162  0.00  0.00    +0.000 C 
ATOM     26  C   UNL     1       3.326   6.802  17.923  0.00  0.00    +0.000 C 
ENDBRANCH  22  25
ENDBRANCH  19  22
ENDBRANCH   1  19
TORSDOF 7
ENDMDL
