MODEL 1
REMARK VINA RESULT:      -7.4      0.000      0.000
REMARK  Name = 
REMARK  10 active torsions:
REMARK  status: ('A' for Active; 'I' for Inactive)
REMARK    1  A    between atoms: C_1  and  C_2
REMARK    2  A    between atoms: C_2  and  N_3
REMARK    3  A    between atoms: C_4  and  C_5
REMARK    4  A    between atoms: C_6  and  N_7
REMARK    5  A    between atoms: N_7  and  C_11
REMARK    6  A    between atoms: C_8  and  C_9
REMARK    7  A    between atoms: N_17  and  C_18
REMARK    8  A    between atoms: C_18  and  C_19
REMARK    9  A    between atoms: C_19  and  C_20
REMARK   10  A    between atoms: C_20  and  S_21
REMARK                            x       y       z     vdW  Elec       q    Type
REMARK                         _______ _______ _______ _____ _____    ______ ____
ROOT
ATOM      1  N   UNL     1       1.815   7.397  20.202  0.00  0.00    +0.000 N 
ATOM      2  C   UNL     1       2.158   8.001  19.040  0.00  0.00    +0.000 A 
ATOM      3  N   UNL     1       2.799   7.074  18.282  0.00  0.00    +0.000 N 
ATOM      4  C   UNL     1       2.777   5.834  18.933  0.00  0.00    +0.000 A 
ATOM      5  C   UNL     1       3.279   4.574  18.607  0.00  0.00    +0.000 A 
ATOM      6  C   UNL     1       3.026   3.529  19.507  0.00  0.00    +0.000 A 
ATOM      7 CL   UNL     1       3.629   1.965  19.075  0.00  0.00    +0.000 Cl
ATOM      8  C   UNL     1       2.319   3.748  20.708  0.00  0.00    +0.000 A 
ATOM      9 CL   UNL     1       2.020   2.470  21.835  0.00  0.00    +0.000 Cl
ATOM     10  C   UNL     1       1.845   5.018  21.048  0.00  0.00    +0.000 A 
ATOM     11  C   UNL     1       2.094   6.042  20.136  0.00  0.00    +0.000 A 
ENDROOT
BRANCH   1  13
ATOM     12  C   UNL     1      -0.259   8.007  21.404  0.00  0.00    +0.000 C 
ATOM     13  C   UNL     1       1.253   8.089  21.368  0.00  0.00    +0.000 C 
ENDBRANCH   1  13
BRANCH   2  14
ATOM     14  C   UNL     1       2.014   9.481  18.780  0.00  0.00    +0.000 C 
ATOM     15  C   UNL     1       0.978  10.216  19.221  0.00  0.00    +0.000 C 
BRANCH  15  16
ATOM     16  N   UNL     1       0.732  11.599  19.065  0.00  0.00    +0.000 N 
ATOM     17  C   UNL     1      -0.574  12.035  18.720  0.00  0.00    +0.000 C 
ATOM     18  C   UNL     1      -0.758  13.396  18.069  0.00  0.00    +0.000 C 
ATOM     19  O   UNL     1      -1.580  11.325  18.801  0.00  0.00    +0.000 OA
BRANCH  16  20
ATOM     20  C   UNL     1       1.835  12.540  19.274  0.00  0.00    +0.000 A 
ATOM     21  C   UNL     1       2.608  13.018  18.198  0.00  0.00    +0.000 A 
ATOM     22  C   UNL     1       3.646  13.945  18.378  0.00  0.00    +0.000 A 
ATOM     23  C   UNL     1       3.901  14.469  19.639  0.00  0.00    +0.000 A 
ATOM     24  C   UNL     1       3.120  14.063  20.711  0.00  0.00    +0.000 A 
ATOM     25  C   UNL     1       2.109  13.108  20.533  0.00  0.00    +0.000 A 
ENDBRANCH  16  20
ENDBRANCH  15  16
ENDBRANCH   2  14
BRANCH   3  26
ATOM     26  C   UNL     1       3.431   7.415  16.981  0.00  0.00    +0.000 C 
BRANCH  26  27
ATOM     27  C   UNL     1       4.929   7.157  16.829  0.00  0.00    +0.000 C 
BRANCH  27  28
ATOM     28  C   UNL     1       5.309   5.970  15.949  0.00  0.00    +0.000 C 
BRANCH  28  29
ATOM     29  S   UNL     1       7.010   5.524  16.104  0.00  0.00    +0.000 S 
ATOM     30  O   UNL     1       7.602   6.689  16.746  0.00  0.00    +0.000 OA
ATOM     31  O   UNL     1       6.934   4.338  16.951  0.00  0.00    +0.000 OA
ATOM     32  O   UNL     1       7.410   5.274  14.724  0.00  0.00    +0.000 OA
ENDBRANCH  28  29
ENDBRANCH  27  28
ENDBRANCH  26  27
ENDBRANCH   3  26
TORSDOF 8
ENDMDL
MODEL 2
REMARK VINA RESULT:      -7.3      1.479      2.822
REMARK  Name = 
REMARK  10 active torsions:
REMARK  status: ('A' for Active; 'I' for Inactive)
REMARK    1  A    between atoms: C_1  and  C_2
REMARK    2  A    between atoms: C_2  and  N_3
REMARK    3  A    between atoms: C_4  and  C_5
REMARK    4  A    between atoms: C_6  and  N_7
REMARK    5  A    between atoms: N_7  and  C_11
REMARK    6  A    between atoms: C_8  and  C_9
REMARK    7  A    between atoms: N_17  and  C_18
REMARK    8  A    between atoms: C_18  and  C_19
REMARK    9  A    between atoms: C_19  and  C_20
REMARK   10  A    between atoms: C_20  and  S_21
REMARK                            x       y       z     vdW  Elec       q    Type
REMARK                         _______ _______ _______ _____ _____    ______ ____
ROOT
ATOM      1  N   UNL     1       1.677   7.172  19.988  0.00  0.00    +0.000 N 
ATOM      2  C   UNL     1       2.197   7.796  18.906  0.00  0.00    +0.000 A 
ATOM      3  N   UNL     1       3.142   6.970  18.384  0.00  0.00    +0.000 N 
ATOM      4  C   UNL     1       3.152   5.760  19.088  0.00  0.00    +0.000 A 
ATOM      5  C   UNL     1       3.908   4.593  18.972  0.00  0.00    +0.000 A 
ATOM      6  C   UNL     1       3.608   3.543  19.851  0.00  0.00    +0.000 A 
ATOM      7 CL   UNL     1       4.533   2.091  19.677  0.00  0.00    +0.000 Cl
ATOM      8  C   UNL     1       2.602   3.671  20.833  0.00  0.00    +0.000 A 
ATOM      9 CL   UNL     1       2.237   2.388  21.935  0.00  0.00    +0.000 Cl
ATOM     10  C   UNL     1       1.867   4.852  20.968  0.00  0.00    +0.000 A 
ATOM     11  C   UNL     1       2.171   5.881  20.078  0.00  0.00    +0.000 A 
ENDROOT
BRANCH   1  13
ATOM     12  C   UNL     1       1.467   8.616  21.986  0.00  0.00    +0.000 C 
ATOM     13  C   UNL     1       0.746   7.789  20.941  0.00  0.00    +0.000 C 
ENDBRANCH   1  13
BRANCH   2  14
ATOM     14  C   UNL     1       1.895   9.226  18.525  0.00  0.00    +0.000 C 
ATOM     15  C   UNL     1       0.806   9.892  18.947  0.00  0.00    +0.000 C 
BRANCH  15  16
ATOM     16  N   UNL     1       0.415  11.224  18.683  0.00  0.00    +0.000 N 
ATOM     17  C   UNL     1       1.411  12.195  18.403  0.00  0.00    +0.000 C 
ATOM     18  C   UNL     1       1.098  13.667  18.612  0.00  0.00    +0.000 C 
ATOM     19  O   UNL     1       2.578  11.919  18.112  0.00  0.00    +0.000 OA
BRANCH  16  20
ATOM     20  C   UNL     1      -1.012  11.557  18.697  0.00  0.00    +0.000 A 
ATOM     21  C   UNL     1      -1.866  11.181  17.643  0.00  0.00    +0.000 A 
ATOM     22  C   UNL     1      -3.240  11.463  17.657  0.00  0.00    +0.000 A 
ATOM     23  C   UNL     1      -3.812  12.082  18.761  0.00  0.00    +0.000 A 
ATOM     24  C   UNL     1      -3.009  12.414  19.843  0.00  0.00    +0.000 A 
ATOM     25  C   UNL     1      -1.630  12.164  19.807  0.00  0.00    +0.000 A 
ENDBRANCH  16  20
ENDBRANCH  15  16
ENDBRANCH   2  14
BRANCH   3  26
ATOM     26  C   UNL     1       4.013   7.381  17.252  0.00  0.00    +0.000 C 
BRANCH  26  27
ATOM     27  C   UNL     1       4.771   6.284  16.505  0.00  0.00    +0.000 C 
BRANCH  27  28
ATOM     28  C   UNL     1       6.277   6.244  16.742  0.00  0.00    +0.000 C 
BRANCH  28  29
ATOM     29  S   UNL     1       7.039   4.814  16.040  0.00  0.00    +0.000 S 
ATOM     30  O   UNL     1       7.985   4.404  17.069  0.00  0.00    +0.000 OA
ATOM     31  O   UNL     1       5.900   3.918  15.873  0.00  0.00    +0.000 OA
ATOM     32  O   UNL     1       7.614   5.325  14.801  0.00  0.00    +0.000 OA
ENDBRANCH  28  29
ENDBRANCH  27  28
ENDBRANCH  26  27
ENDBRANCH   3  26
TORSDOF 8
ENDMDL
MODEL 3
REMARK VINA RESULT:      -7.2      5.017      7.265
REMARK  Name = 
REMARK  10 active torsions:
REMARK  status: ('A' for Active; 'I' for Inactive)
REMARK    1  A    between atoms: C_1  and  C_2
REMARK    2  A    between atoms: C_2  and  N_3
REMARK    3  A    between atoms: C_4  and  C_5
REMARK    4  A    between atoms: C_6  and  N_7
REMARK    5  A    between atoms: N_7  and  C_11
REMARK    6  A    between atoms: C_8  and  C_9
REMARK    7  A    between atoms: N_17  and  C_18
REMARK    8  A    between atoms: C_18  and  C_19
REMARK    9  A    between atoms: C_19  and  C_20
REMARK   10  A    between atoms: C_20  and  S_21
REMARK                            x       y       z     vdW  Elec       q    Type
REMARK                         _______ _______ _______ _____ _____    ______ ____
ROOT
ATOM      1  N   UNL     1      -0.191   9.602  21.437  0.00  0.00    +0.000 N 
ATOM      2  C   UNL     1      -0.584  10.773  20.885  0.00  0.00    +0.000 A 
ATOM      3  N   UNL     1       0.121  10.928  19.734  0.00  0.00    +0.000 N 
ATOM      4  C   UNL     1       0.902   9.790  19.501  0.00  0.00    +0.000 A 
ATOM      5  C   UNL     1       1.793   9.432  18.489  0.00  0.00    +0.000 A 
ATOM      6  C   UNL     1       2.379   8.161  18.568  0.00  0.00    +0.000 A 
ATOM      7 CL   UNL     1       3.460   7.719  17.290  0.00  0.00    +0.000 Cl
ATOM      8  C   UNL     1       2.102   7.289  19.642  0.00  0.00    +0.000 A 
ATOM      9 CL   UNL     1       2.834   5.726  19.759  0.00  0.00    +0.000 Cl
ATOM     10  C   UNL     1       1.233   7.661  20.671  0.00  0.00    +0.000 A 
ATOM     11  C   UNL     1       0.651   8.924  20.570  0.00  0.00    +0.000 A 
ENDROOT
BRANCH   1  13
ATOM     12  C   UNL     1       0.496   9.394  23.804  0.00  0.00    +0.000 C 
ATOM     13  C   UNL     1      -0.583   9.135  22.773  0.00  0.00    +0.000 C 
ENDBRANCH   1  13
BRANCH   2  14
ATOM     14  C   UNL     1      -1.482  11.774  21.571  0.00  0.00    +0.000 C 
ATOM     15  C   UNL     1      -1.049  12.649  22.496  0.00  0.00    +0.000 C 
BRANCH  15  16
ATOM     16  N   UNL     1      -1.773  13.641  23.196  0.00  0.00    +0.000 N 
ATOM     17  C   UNL     1      -1.085  14.782  23.686  0.00  0.00    +0.000 C 
ATOM     18  C   UNL     1      -1.687  15.580  24.831  0.00  0.00    +0.000 C 
ATOM     19  O   UNL     1       0.049  15.109  23.326  0.00  0.00    +0.000 OA
BRANCH  16  20
ATOM     20  C   UNL     1      -3.215  13.463  23.385  0.00  0.00    +0.000 A 
ATOM     21  C   UNL     1      -4.148  14.050  22.510  0.00  0.00    +0.000 A 
ATOM     22  C   UNL     1      -5.531  13.862  22.657  0.00  0.00    +0.000 A 
ATOM     23  C   UNL     1      -6.018  13.027  23.654  0.00  0.00    +0.000 A 
ATOM     24  C   UNL     1      -5.122  12.386  24.497  0.00  0.00    +0.000 A 
ATOM     25  C   UNL     1      -3.743  12.608  24.370  0.00  0.00    +0.000 A 
ENDBRANCH  16  20
ENDBRANCH  15  16
ENDBRANCH   2  14
BRANCH   3  26
ATOM     26  C   UNL     1       0.041  12.168  18.919  0.00  0.00    +0.000 C 
BRANCH  26  27
ATOM     27  C   UNL     1      -1.224  12.393  18.092  0.00  0.00    +0.000 C 
BRANCH  27  28
ATOM     28  C   UNL     1      -1.801  11.154  17.415  0.00  0.00    +0.000 C 
BRANCH  28  29
ATOM     29  S   UNL     1      -3.536  10.974  17.685  0.00  0.00    +0.000 S 
ATOM     30  O   UNL     1      -4.118  11.511  16.462  0.00  0.00    +0.000 OA
ATOM     31  O   UNL     1      -3.669   9.529  17.835  0.00  0.00    +0.000 OA
ATOM     32  O   UNL     1      -3.761  11.748  18.900  0.00  0.00    +0.000 OA
ENDBRANCH  28  29
ENDBRANCH  27  28
ENDBRANCH  26  27
ENDBRANCH   3  26
TORSDOF 8
ENDMDL
MODEL 4
REMARK VINA RESULT:      -7.2      4.948      7.350
REMARK  Name = 
REMARK  10 active torsions:
REMARK  status: ('A' for Active; 'I' for Inactive)
REMARK    1  A    between atoms: C_1  and  C_2
REMARK    2  A    between atoms: C_2  and  N_3
REMARK    3  A    between atoms: C_4  and  C_5
REMARK    4  A    between atoms: C_6  and  N_7
REMARK    5  A    between atoms: N_7  and  C_11
REMARK    6  A    between atoms: C_8  and  C_9
REMARK    7  A    between atoms: N_17  and  C_18
REMARK    8  A    between atoms: C_18  and  C_19
REMARK    9  A    between atoms: C_19  and  C_20
REMARK   10  A    between atoms: C_20  and  S_21
REMARK                            x       y       z     vdW  Elec       q    Type
REMARK                         _______ _______ _______ _____ _____    ______ ____
ROOT
ATOM      1  N   UNL     1      -0.251   9.578  21.522  0.00  0.00    +0.000 N 
ATOM      2  C   UNL     1      -0.714  10.730  20.983  0.00  0.00    +0.000 A 
ATOM      3  N   UNL     1      -0.056  10.915  19.809  0.00  0.00    +0.000 N 
ATOM      4  C   UNL     1       0.768   9.813  19.551  0.00  0.00    +0.000 A 
ATOM      5  C   UNL     1       1.640   9.495  18.510  0.00  0.00    +0.000 A 
ATOM      6  C   UNL     1       2.286   8.252  18.568  0.00  0.00    +0.000 A 
ATOM      7 CL   UNL     1       3.342   7.858  17.256  0.00  0.00    +0.000 Cl
ATOM      8  C   UNL     1       2.084   7.369  19.651  0.00  0.00    +0.000 A 
ATOM      9 CL   UNL     1       2.890   5.842  19.744  0.00  0.00    +0.000 Cl
ATOM     10  C   UNL     1       1.234   7.703  20.709  0.00  0.00    +0.000 A 
ATOM     11  C   UNL     1       0.592   8.938  20.627  0.00  0.00    +0.000 A 
ENDROOT
BRANCH   1  13
ATOM     12  C   UNL     1       0.508   9.435  23.872  0.00  0.00    +0.000 C 
ATOM     13  C   UNL     1      -0.576   9.095  22.870  0.00  0.00    +0.000 C 
ENDBRANCH   1  13
BRANCH   2  14
ATOM     14  C   UNL     1      -1.634  11.690  21.699  0.00  0.00    +0.000 C 
ATOM     15  C   UNL     1      -1.208  12.598  22.594  0.00  0.00    +0.000 C 
BRANCH  15  16
ATOM     16  N   UNL     1      -1.952  13.559  23.316  0.00  0.00    +0.000 N 
ATOM     17  C   UNL     1      -1.280  14.678  23.873  0.00  0.00    +0.000 C 
ATOM     18  C   UNL     1      -1.915  15.427  25.034  0.00  0.00    +0.000 C 
ATOM     19  O   UNL     1      -0.138  15.022  23.558  0.00  0.00    +0.000 OA
BRANCH  16  20
ATOM     20  C   UNL     1      -3.398  13.372  23.457  0.00  0.00    +0.000 A 
ATOM     21  C   UNL     1      -3.938  12.531  24.450  0.00  0.00    +0.000 A 
ATOM     22  C   UNL     1      -5.320  12.368  24.619  0.00  0.00    +0.000 A 
ATOM     23  C   UNL     1      -6.209  13.092  23.834  0.00  0.00    +0.000 A 
ATOM     24  C   UNL     1      -5.711  13.973  22.886  0.00  0.00    +0.000 A 
ATOM     25  C   UNL     1      -4.328  14.104  22.694  0.00  0.00    +0.000 A 
ENDBRANCH  16  20
ENDBRANCH  15  16
ENDBRANCH   2  14
BRANCH   3  26
ATOM     26  C   UNL     1      -0.220  12.149  18.997  0.00  0.00    +0.000 C 
BRANCH  26  27
ATOM     27  C   UNL     1      -1.170  12.092  17.802  0.00  0.00    +0.000 C 
BRANCH  27  28
ATOM     28  C   UNL     1      -2.632  11.808  18.134  0.00  0.00    +0.000 C 
BRANCH  28  29
ATOM     29  S   UNL     1      -3.425  10.806  16.916  0.00  0.00    +0.000 S 
ATOM     30  O   UNL     1      -4.759  11.384  16.829  0.00  0.00    +0.000 OA
ATOM     31  O   UNL     1      -2.587  11.039  15.743  0.00  0.00    +0.000 OA
ATOM     32  O   UNL     1      -3.336   9.467  17.485  0.00  0.00    +0.000 OA
ENDBRANCH  28  29
ENDBRANCH  27  28
ENDBRANCH  26  27
ENDBRANCH   3  26
TORSDOF 8
ENDMDL
MODEL 5
REMARK VINA RESULT:      -7.1      0.566      1.336
REMARK  Name = 
REMARK  10 active torsions:
REMARK  status: ('A' for Active; 'I' for Inactive)
REMARK    1  A    between atoms: C_1  and  C_2
REMARK    2  A    between atoms: C_2  and  N_3
REMARK    3  A    between atoms: C_4  and  C_5
REMARK    4  A    between atoms: C_6  and  N_7
REMARK    5  A    between atoms: N_7  and  C_11
REMARK    6  A    between atoms: C_8  and  C_9
REMARK    7  A    between atoms: N_17  and  C_18
REMARK    8  A    between atoms: C_18  and  C_19
REMARK    9  A    between atoms: C_19  and  C_20
REMARK   10  A    between atoms: C_20  and  S_21
REMARK                            x       y       z     vdW  Elec       q    Type
REMARK                         _______ _______ _______ _____ _____    ______ ____
ROOT
ATOM      1  N   UNL     1       1.685   7.191  20.277  0.00  0.00    +0.000 N 
ATOM      2  C   UNL     1       2.152   7.858  19.196  0.00  0.00    +0.000 A 
ATOM      3  N   UNL     1       2.970   7.007  18.524  0.00  0.00    +0.000 N 
ATOM      4  C   UNL     1       2.945   5.747  19.135  0.00  0.00    +0.000 A 
ATOM      5  C   UNL     1       3.587   4.539  18.860  0.00  0.00    +0.000 A 
ATOM      6  C   UNL     1       3.283   3.447  19.686  0.00  0.00    +0.000 A 
ATOM      7 CL   UNL     1       4.063   1.947  19.316  0.00  0.00    +0.000 Cl
ATOM      8  C   UNL     1       2.388   3.573  20.771  0.00  0.00    +0.000 A 
ATOM      9 CL   UNL     1       2.022   2.238  21.809  0.00  0.00    +0.000 Cl
ATOM     10  C   UNL     1       1.771   4.792  21.063  0.00  0.00    +0.000 A 
ATOM     11  C   UNL     1       2.076   5.862  20.224  0.00  0.00    +0.000 A 
ENDROOT
BRANCH   1  13
ATOM     12  C   UNL     1       1.720   8.790  22.164  0.00  0.00    +0.000 C 
ATOM     13  C   UNL     1       0.903   7.799  21.360  0.00  0.00    +0.000 C 
ENDBRANCH   1  13
BRANCH   2  14
ATOM     14  C   UNL     1       1.935   9.332  18.951  0.00  0.00    +0.000 C 
ATOM     15  C   UNL     1       0.739   9.936  19.063  0.00  0.00    +0.000 C 
BRANCH  15  16
ATOM     16  N   UNL     1       0.404  11.297  18.882  0.00  0.00    +0.000 N 
ATOM     17  C   UNL     1      -0.904  11.635  18.447  0.00  0.00    +0.000 C 
ATOM     18  C   UNL     1      -1.143  12.977  17.775  0.00  0.00    +0.000 C 
ATOM     19  O   UNL     1      -1.858  10.853  18.463  0.00  0.00    +0.000 OA
BRANCH  16  20
ATOM     20  C   UNL     1       1.418  12.317  19.159  0.00  0.00    +0.000 A 
ATOM     21  C   UNL     1       1.664  12.772  20.469  0.00  0.00    +0.000 A 
ATOM     22  C   UNL     1       2.654  13.724  20.754  0.00  0.00    +0.000 A 
ATOM     23  C   UNL     1       3.472  14.206  19.740  0.00  0.00    +0.000 A 
ATOM     24  C   UNL     1       3.294  13.734  18.447  0.00  0.00    +0.000 A 
ATOM     25  C   UNL     1       2.278  12.812  18.160  0.00  0.00    +0.000 A 
ENDBRANCH  16  20
ENDBRANCH  15  16
ENDBRANCH   2  14
BRANCH   3  26
ATOM     26  C   UNL     1       3.762   7.438  17.343  0.00  0.00    +0.000 C 
BRANCH  26  27
ATOM     27  C   UNL     1       5.149   6.825  17.155  0.00  0.00    +0.000 C 
BRANCH  27  28
ATOM     28  C   UNL     1       5.389   6.131  15.818  0.00  0.00    +0.000 C 
BRANCH  28  29
ATOM     29  S   UNL     1       6.800   5.070  15.844  0.00  0.00    +0.000 S 
ATOM     30  O   UNL     1       6.212   3.738  15.823  0.00  0.00    +0.000 OA
ATOM     31  O   UNL     1       7.483   5.450  14.612  0.00  0.00    +0.000 OA
ATOM     32  O   UNL     1       7.479   5.457  17.074  0.00  0.00    +0.000 OA
ENDBRANCH  28  29
ENDBRANCH  27  28
ENDBRANCH  26  27
ENDBRANCH   3  26
TORSDOF 8
ENDMDL
MODEL 6
REMARK VINA RESULT:      -7.0      4.594      8.816
REMARK  Name = 
REMARK  10 active torsions:
REMARK  status: ('A' for Active; 'I' for Inactive)
REMARK    1  A    between atoms: C_1  and  C_2
REMARK    2  A    between atoms: C_2  and  N_3
REMARK    3  A    between atoms: C_4  and  C_5
REMARK    4  A    between atoms: C_6  and  N_7
REMARK    5  A    between atoms: N_7  and  C_11
REMARK    6  A    between atoms: C_8  and  C_9
REMARK    7  A    between atoms: N_17  and  C_18
REMARK    8  A    between atoms: C_18  and  C_19
REMARK    9  A    between atoms: C_19  and  C_20
REMARK   10  A    between atoms: C_20  and  S_21
REMARK                            x       y       z     vdW  Elec       q    Type
REMARK                         _______ _______ _______ _____ _____    ______ ____
ROOT
ATOM      1  N   UNL     1       0.797  10.083  21.146  0.00  0.00    +0.000 N 
ATOM      2  C   UNL     1       0.792   9.509  19.921  0.00  0.00    +0.000 A 
ATOM      3  N   UNL     1       0.222  10.398  19.065  0.00  0.00    +0.000 N 
ATOM      4  C   UNL     1      -0.050  11.595  19.740  0.00  0.00    +0.000 A 
ATOM      5  C   UNL     1      -0.619  12.806  19.346  0.00  0.00    +0.000 A 
ATOM      6  C   UNL     1      -0.699  13.822  20.308  0.00  0.00    +0.000 A 
ATOM      7 CL   UNL     1      -1.380  15.329  19.798  0.00  0.00    +0.000 Cl
ATOM      8  C   UNL     1      -0.249  13.619  21.631  0.00  0.00    +0.000 A 
ATOM      9 CL   UNL     1      -0.361  14.859  22.831  0.00  0.00    +0.000 Cl
ATOM     10  C   UNL     1       0.292  12.394  22.032  0.00  0.00    +0.000 A 
ATOM     11  C   UNL     1       0.374  11.400  21.058  0.00  0.00    +0.000 A 
ENDROOT
BRANCH   1  13
ATOM     12  C   UNL     1       0.029   9.360  23.383  0.00  0.00    +0.000 C 
ATOM     13  C   UNL     1       1.171   9.397  22.389  0.00  0.00    +0.000 C 
ENDBRANCH   1  13
BRANCH   2  14
ATOM     14  C   UNL     1       1.169   8.071  19.657  0.00  0.00    +0.000 C 
ATOM     15  C   UNL     1       2.335   7.699  19.102  0.00  0.00    +0.000 C 
BRANCH  15  16
ATOM     16  N   UNL     1       2.816   6.400  18.819  0.00  0.00    +0.000 N 
ATOM     17  C   UNL     1       3.848   6.239  17.857  0.00  0.00    +0.000 C 
ATOM     18  C   UNL     1       4.029   4.892  17.177  0.00  0.00    +0.000 C 
ATOM     19  O   UNL     1       4.545   7.165  17.434  0.00  0.00    +0.000 OA
BRANCH  16  20
ATOM     20  C   UNL     1       2.240   5.261  19.538  0.00  0.00    +0.000 A 
ATOM     21  C   UNL     1       1.375   4.350  18.900  0.00  0.00    +0.000 A 
ATOM     22  C   UNL     1       0.842   3.237  19.565  0.00  0.00    +0.000 A 
ATOM     23  C   UNL     1       1.207   2.967  20.877  0.00  0.00    +0.000 A 
ATOM     24  C   UNL     1       2.103   3.812  21.517  0.00  0.00    +0.000 A 
ATOM     25  C   UNL     1       2.604   4.946  20.861  0.00  0.00    +0.000 A 
ENDBRANCH  16  20
ENDBRANCH  15  16
ENDBRANCH   2  14
BRANCH   3  26
ATOM     26  C   UNL     1      -0.064  10.058  17.647  0.00  0.00    +0.000 C 
BRANCH  26  27
ATOM     27  C   UNL     1      -1.523   9.834  17.251  0.00  0.00    +0.000 C 
BRANCH  27  28
ATOM     28  C   UNL     1      -2.319  11.093  16.924  0.00  0.00    +0.000 C 
BRANCH  28  29
ATOM     29  S   UNL     1      -3.966  11.043  17.559  0.00  0.00    +0.000 S 
ATOM     30  O   UNL     1      -3.914  11.962  18.687  0.00  0.00    +0.000 OA
ATOM     31  O   UNL     1      -4.741  11.525  16.420  0.00  0.00    +0.000 OA
ATOM     32  O   UNL     1      -4.150   9.633  17.881  0.00  0.00    +0.000 OA
ENDBRANCH  28  29
ENDBRANCH  27  28
ENDBRANCH  26  27
ENDBRANCH   3  26
TORSDOF 8
ENDMDL
MODEL 7
REMARK VINA RESULT:      -6.9      1.456      2.939
REMARK  Name = 
REMARK  10 active torsions:
REMARK  status: ('A' for Active; 'I' for Inactive)
REMARK    1  A    between atoms: C_1  and  C_2
REMARK    2  A    between atoms: C_2  and  N_3
REMARK    3  A    between atoms: C_4  and  C_5
REMARK    4  A    between atoms: C_6  and  N_7
REMARK    5  A    between atoms: N_7  and  C_11
REMARK    6  A    between atoms: C_8  and  C_9
REMARK    7  A    between atoms: N_17  and  C_18
REMARK    8  A    between atoms: C_18  and  C_19
REMARK    9  A    between atoms: C_19  and  C_20
REMARK   10  A    between atoms: C_20  and  S_21
REMARK                            x       y       z     vdW  Elec       q    Type
REMARK                         _______ _______ _______ _____ _____    ______ ____
ROOT
ATOM      1  N   UNL     1       1.680   7.193  20.030  0.00  0.00    +0.000 N 
ATOM      2  C   UNL     1       2.119   7.811  18.909  0.00  0.00    +0.000 A 
ATOM      3  N   UNL     1       3.031   6.988  18.330  0.00  0.00    +0.000 N 
ATOM      4  C   UNL     1       3.099   5.783  19.041  0.00  0.00    +0.000 A 
ATOM      5  C   UNL     1       3.854   4.621  18.883  0.00  0.00    +0.000 A 
ATOM      6  C   UNL     1       3.623   3.576  19.788  0.00  0.00    +0.000 A 
ATOM      7 CL   UNL     1       4.544   2.129  19.562  0.00  0.00    +0.000 Cl
ATOM      8  C   UNL     1       2.686   3.705  20.836  0.00  0.00    +0.000 A 
ATOM      9 CL   UNL     1       2.407   2.429  21.971  0.00  0.00    +0.000 Cl
ATOM     10  C   UNL     1       1.954   4.882  21.012  0.00  0.00    +0.000 A 
ATOM     11  C   UNL     1       2.188   5.905  20.095  0.00  0.00    +0.000 A 
ENDROOT
BRANCH   1  13
ATOM     12  C   UNL     1       1.598   8.641  22.034  0.00  0.00    +0.000 C 
ATOM     13  C   UNL     1       0.812   7.811  21.040  0.00  0.00    +0.000 C 
ENDBRANCH   1  13
BRANCH   2  14
ATOM     14  C   UNL     1       1.780   9.235  18.539  0.00  0.00    +0.000 C 
ATOM     15  C   UNL     1       0.684   9.877  18.981  0.00  0.00    +0.000 C 
BRANCH  15  16
ATOM     16  N   UNL     1       0.261  11.202  18.729  0.00  0.00    +0.000 N 
ATOM     17  C   UNL     1       1.234  12.198  18.453  0.00  0.00    +0.000 C 
ATOM     18  C   UNL     1       0.886  13.661  18.675  0.00  0.00    +0.000 C 
ATOM     19  O   UNL     1       2.406  11.952  18.156  0.00  0.00    +0.000 OA
BRANCH  16  20
ATOM     20  C   UNL     1      -1.173  11.501  18.751  0.00  0.00    +0.000 A 
ATOM     21  C   UNL     1      -1.774  12.138  19.853  0.00  0.00    +0.000 A 
ATOM     22  C   UNL     1      -3.139  12.461  19.876  0.00  0.00    +0.000 A 
ATOM     23  C   UNL     1      -3.933  12.210  18.764  0.00  0.00    +0.000 A 
ATOM     24  C   UNL     1      -3.359  11.637  17.638  0.00  0.00    +0.000 A 
ATOM     25  C   UNL     1      -2.003  11.280  17.635  0.00  0.00    +0.000 A 
ENDBRANCH  16  20
ENDBRANCH  15  16
ENDBRANCH   2  14
BRANCH   3  26
ATOM     26  C   UNL     1       3.819   7.395  17.137  0.00  0.00    +0.000 C 
BRANCH  26  27
ATOM     27  C   UNL     1       5.160   6.702  16.902  0.00  0.00    +0.000 C 
BRANCH  27  28
ATOM     28  C   UNL     1       5.237   5.816  15.663  0.00  0.00    +0.000 C 
BRANCH  28  29
ATOM     29  S   UNL     1       6.684   4.804  15.637  0.00  0.00    +0.000 S 
ATOM     30  O   UNL     1       7.727   5.728  15.214  0.00  0.00    +0.000 OA
ATOM     31  O   UNL     1       6.778   4.380  17.030  0.00  0.00    +0.000 OA
ATOM     32  O   UNL     1       6.330   3.752  14.691  0.00  0.00    +0.000 OA
ENDBRANCH  28  29
ENDBRANCH  27  28
ENDBRANCH  26  27
ENDBRANCH   3  26
TORSDOF 8
ENDMDL
MODEL 8
REMARK VINA RESULT:      -6.9      0.681      1.333
REMARK  Name = 
REMARK  10 active torsions:
REMARK  status: ('A' for Active; 'I' for Inactive)
REMARK    1  A    between atoms: C_1  and  C_2
REMARK    2  A    between atoms: C_2  and  N_3
REMARK    3  A    between atoms: C_4  and  C_5
REMARK    4  A    between atoms: C_6  and  N_7
REMARK    5  A    between atoms: N_7  and  C_11
REMARK    6  A    between atoms: C_8  and  C_9
REMARK    7  A    between atoms: N_17  and  C_18
REMARK    8  A    between atoms: C_18  and  C_19
REMARK    9  A    between atoms: C_19  and  C_20
REMARK   10  A    between atoms: C_20  and  S_21
REMARK                            x       y       z     vdW  Elec       q    Type
REMARK                         _______ _______ _______ _____ _____    ______ ____
ROOT
ATOM      1  N   UNL     1       1.767   7.364  20.310  0.00  0.00    +0.000 N 
ATOM      2  C   UNL     1       2.099   8.017  19.172  0.00  0.00    +0.000 A 
ATOM      3  N   UNL     1       2.706   7.116  18.356  0.00  0.00    +0.000 N 
ATOM      4  C   UNL     1       2.670   5.846  18.946  0.00  0.00    +0.000 A 
ATOM      5  C   UNL     1       3.139   4.594  18.548  0.00  0.00    +0.000 A 
ATOM      6  C   UNL     1       2.883   3.511  19.401  0.00  0.00    +0.000 A 
ATOM      7 CL   UNL     1       3.444   1.958  18.881  0.00  0.00    +0.000 Cl
ATOM      8  C   UNL     1       2.205   3.684  20.627  0.00  0.00    +0.000 A 
ATOM      9 CL   UNL     1       1.902   2.358  21.696  0.00  0.00    +0.000 Cl
ATOM     10  C   UNL     1       1.764   4.945  21.038  0.00  0.00    +0.000 A 
ATOM     11  C   UNL     1       2.017   6.007  20.172  0.00  0.00    +0.000 A 
ENDROOT
BRANCH   1  13
ATOM     12  C   UNL     1      -0.270   8.075  21.519  0.00  0.00    +0.000 C 
ATOM     13  C   UNL     1       1.243   8.008  21.521  0.00  0.00    +0.000 C 
ENDBRANCH   1  13
BRANCH   2  14
ATOM     14  C   UNL     1       1.981   9.511  18.988  0.00  0.00    +0.000 C 
ATOM     15  C   UNL     1       0.819  10.181  19.080  0.00  0.00    +0.000 C 
BRANCH  15  16
ATOM     16  N   UNL     1       0.574  11.567  18.949  0.00  0.00    +0.000 N 
ATOM     17  C   UNL     1      -0.726  12.008  18.587  0.00  0.00    +0.000 C 
ATOM     18  C   UNL     1      -0.900  13.382  17.961  0.00  0.00    +0.000 C 
ATOM     19  O   UNL     1      -1.732  11.295  18.631  0.00  0.00    +0.000 OA
BRANCH  16  20
ATOM     20  C   UNL     1       1.670  12.505  19.201  0.00  0.00    +0.000 A 
ATOM     21  C   UNL     1       1.976  12.946  20.503  0.00  0.00    +0.000 A 
ATOM     22  C   UNL     1       3.043  13.818  20.764  0.00  0.00    +0.000 A 
ATOM     23  C   UNL     1       3.876  14.229  19.732  0.00  0.00    +0.000 A 
ATOM     24  C   UNL     1       3.638  13.767  18.446  0.00  0.00    +0.000 A 
ATOM     25  C   UNL     1       2.547  12.926  18.183  0.00  0.00    +0.000 A 
ENDBRANCH  16  20
ENDBRANCH  15  16
ENDBRANCH   2  14
BRANCH   3  26
ATOM     26  C   UNL     1       3.318   7.509  17.061  0.00  0.00    +0.000 C 
BRANCH  26  27
ATOM     27  C   UNL     1       4.711   6.968  16.741  0.00  0.00    +0.000 C 
BRANCH  27  28
ATOM     28  C   UNL     1       5.655   6.827  17.931  0.00  0.00    +0.000 C 
BRANCH  28  29
ATOM     29  S   UNL     1       7.353   6.987  17.477  0.00  0.00    +0.000 S 
ATOM     30  O   UNL     1       8.057   6.444  18.631  0.00  0.00    +0.000 OA
ATOM     31  O   UNL     1       7.423   6.157  16.279  0.00  0.00    +0.000 OA
ATOM     32  O   UNL     1       7.498   8.420  17.249  0.00  0.00    +0.000 OA
ENDBRANCH  28  29
ENDBRANCH  27  28
ENDBRANCH  26  27
ENDBRANCH   3  26
TORSDOF 8
ENDMDL
MODEL 9
REMARK VINA RESULT:      -6.8      4.709      6.785
REMARK  Name = 
REMARK  10 active torsions:
REMARK  status: ('A' for Active; 'I' for Inactive)
REMARK    1  A    between atoms: C_1  and  C_2
REMARK    2  A    between atoms: C_2  and  N_3
REMARK    3  A    between atoms: C_4  and  C_5
REMARK    4  A    between atoms: C_6  and  N_7
REMARK    5  A    between atoms: N_7  and  C_11
REMARK    6  A    between atoms: C_8  and  C_9
REMARK    7  A    between atoms: N_17  and  C_18
REMARK    8  A    between atoms: C_18  and  C_19
REMARK    9  A    between atoms: C_19  and  C_20
REMARK   10  A    between atoms: C_20  and  S_21
REMARK                            x       y       z     vdW  Elec       q    Type
REMARK                         _______ _______ _______ _____ _____    ______ ____
ROOT
ATOM      1  N   UNL     1      -0.157   9.666  21.370  0.00  0.00    +0.000 N 
ATOM      2  C   UNL     1      -0.520  10.822  20.767  0.00  0.00    +0.000 A 
ATOM      3  N   UNL     1       0.202  10.918  19.619  0.00  0.00    +0.000 N 
ATOM      4  C   UNL     1       0.962   9.756  19.441  0.00  0.00    +0.000 A 
ATOM      5  C   UNL     1       1.858   9.342  18.456  0.00  0.00    +0.000 A 
ATOM      6  C   UNL     1       2.418   8.063  18.592  0.00  0.00    +0.000 A 
ATOM      7 CL   UNL     1       3.505   7.550  17.346  0.00  0.00    +0.000 Cl
ATOM      8  C   UNL     1       2.111   7.240  19.696  0.00  0.00    +0.000 A 
ATOM      9 CL   UNL     1       2.811   5.669  19.884  0.00  0.00    +0.000 Cl
ATOM     10  C   UNL     1       1.237   7.670  20.699  0.00  0.00    +0.000 A 
ATOM     11  C   UNL     1       0.681   8.938  20.541  0.00  0.00    +0.000 A 
ENDROOT
BRANCH   1  13
ATOM     12  C   UNL     1       0.547   9.409  23.727  0.00  0.00    +0.000 C 
ATOM     13  C   UNL     1      -0.573   9.260  22.718  0.00  0.00    +0.000 C 
ENDBRANCH   1  13
BRANCH   2  14
ATOM     14  C   UNL     1      -1.406  11.867  21.401  0.00  0.00    +0.000 C 
ATOM     15  C   UNL     1      -1.060  12.570  22.493  0.00  0.00    +0.000 C 
BRANCH  15  16
ATOM     16  N   UNL     1      -1.780  13.580  23.172  0.00  0.00    +0.000 N 
ATOM     17  C   UNL     1      -1.091  14.736  23.623  0.00  0.00    +0.000 C 
ATOM     18  C   UNL     1      -1.685  15.565  24.750  0.00  0.00    +0.000 C 
ATOM     19  O   UNL     1       0.037  15.057  23.242  0.00  0.00    +0.000 OA
BRANCH  16  20
ATOM     20  C   UNL     1      -3.219  13.402  23.380  0.00  0.00    +0.000 A 
ATOM     21  C   UNL     1      -4.164  13.991  22.518  0.00  0.00    +0.000 A 
ATOM     22  C   UNL     1      -5.545  13.804  22.684  0.00  0.00    +0.000 A 
ATOM     23  C   UNL     1      -6.019  12.968  23.686  0.00  0.00    +0.000 A 
ATOM     24  C   UNL     1      -5.112  12.326  24.517  0.00  0.00    +0.000 A 
ATOM     25  C   UNL     1      -3.735  12.547  24.372  0.00  0.00    +0.000 A 
ENDBRANCH  16  20
ENDBRANCH  15  16
ENDBRANCH   2  14
BRANCH   3  26
ATOM     26  C   UNL     1       0.155  12.126  18.754  0.00  0.00    +0.000 C 
BRANCH  26  27
ATOM     27  C   UNL     1       1.136  13.256  19.060  0.00  0.00    +0.000 C 
BRANCH  27  28
ATOM     28  C   UNL     1       2.391  13.294  18.194  0.00  0.00    +0.000 C 
BRANCH  28  29
ATOM     29  S   UNL     1       3.475  14.620  18.622  0.00  0.00    +0.000 S 
ATOM     30  O   UNL     1       4.719  14.260  17.955  0.00  0.00    +0.000 OA
ATOM     31  O   UNL     1       2.787  15.769  18.040  0.00  0.00    +0.000 OA
ATOM     32  O   UNL     1       3.487  14.577  20.079  0.00  0.00    +0.000 OA
ENDBRANCH  28  29
ENDBRANCH  27  28
ENDBRANCH  26  27
ENDBRANCH   3  26
TORSDOF 8
ENDMDL
