MODEL 1
REMARK VINA RESULT:      -8.5      0.000      0.000
REMARK  Name = 
REMARK  7 active torsions:
REMARK  status: ('A' for Active; 'I' for Inactive)
REMARK    1  A    between atoms: C_1  and  C_2
REMARK    2  A    between atoms: C_2  and  C_3
REMARK    3  A    between atoms: C_6  and  S_7
REMARK    4  A    between atoms: S_7  and  N_10
REMARK    5  A    between atoms: N_10  and  C_11
REMARK    6  A    between atoms: C_17  and  C_18
REMARK    7  A    between atoms: C_18  and  C_20
REMARK                            x       y       z     vdW  Elec       q    Type
REMARK                         _______ _______ _______ _____ _____    ______ ____
ROOT
ATOM      1  N   UNL     1       0.609  10.647  19.548  0.00  0.00    +0.000 N 
ATOM      2  H   UNL     1       1.482  10.669  19.021  0.00  0.00    +0.000 HD
ENDROOT
BRANCH   1   3
ATOM      3  C   UNL     1      -0.602  10.763  18.797  0.00  0.00    +0.000 A 
ATOM      4  C   UNL     1      -0.767   9.881  17.719  0.00  0.00    +0.000 A 
ATOM      5  C   UNL     1      -1.908   9.938  16.914  0.00  0.00    +0.000 A 
ATOM      6  C   UNL     1      -2.884  10.892  17.174  0.00  0.00    +0.000 A 
ATOM      7 CL   UNL     1      -4.284  10.987  16.179  0.00  0.00    +0.000 Cl
ATOM      8  C   UNL     1      -2.738  11.776  18.236  0.00  0.00    +0.000 A 
ATOM      9  C   UNL     1      -1.616  11.697  19.082  0.00  0.00    +0.000 A 
BRANCH   9  10
ATOM     10  C   UNL     1      -1.514  12.693  20.183  0.00  0.00    +0.000 C 
ATOM     11  O   UNL     1      -0.765  13.658  20.067  0.00  0.00    +0.000 OA
BRANCH  10  12
ATOM     12  C   UNL     1      -2.373  12.584  21.406  0.00  0.00    +0.000 A 
ATOM     13  C   UNL     1      -3.683  13.069  21.344  0.00  0.00    +0.000 A 
ATOM     14  C   UNL     1      -4.520  12.950  22.455  0.00  0.00    +0.000 A 
ATOM     15  N   UNL     1      -4.083  12.372  23.633  0.00  0.00    +0.000 N 
ATOM     16  O   UNL     1      -4.858  12.252  24.627  0.00  0.00    +0.000 OA
ATOM     17  C   UNL     1      -2.776  11.917  23.694  0.00  0.00    +0.000 A 
ATOM     18  C   UNL     1      -1.912  12.023  22.602  0.00  0.00    +0.000 A 
ENDBRANCH  10  12
ENDBRANCH   9  10
ENDBRANCH   1   3
BRANCH   1  19
ATOM     19  S   UNL     1       0.712   9.513  20.795  0.00  0.00    +0.000 S 
ATOM     20  O   UNL     1      -0.644   9.101  21.074  0.00  0.00    +0.000 OA
ATOM     21  O   UNL     1       1.566  10.038  21.840  0.00  0.00    +0.000 OA
BRANCH  19  25
ATOM     22  C   UNL     1       2.882   5.976  18.841  0.00  0.00    +0.000 A 
ATOM     23  C   UNL     1       2.246   5.842  20.090  0.00  0.00    +0.000 A 
ATOM     24  C   UNL     1       1.571   6.914  20.675  0.00  0.00    +0.000 A 
ATOM     25  C   UNL     1       1.546   8.148  20.026  0.00  0.00    +0.000 A 
ATOM     26  C   UNL     1       2.127   8.297  18.764  0.00  0.00    +0.000 A 
ATOM     27  C   UNL     1       2.791   7.213  18.179  0.00  0.00    +0.000 A 
BRANCH  22  29
ATOM     28  C   UNL     1       4.617   5.258  17.178  0.00  0.00    +0.000 C 
ATOM     29  C   UNL     1       3.591   4.783  18.210  0.00  0.00    +0.000 C 
ATOM     30  O   UNL     1       4.301   4.011  19.189  0.00  0.00    +0.000 OA
ATOM     31  C   UNL     1       3.886   2.658  19.024  0.00  0.00    +0.000 C 
ATOM     32  C   UNL     1       3.063   2.613  17.765  0.00  0.00    +0.000 C 
ATOM     33  O   UNL     1       2.617   3.945  17.566  0.00  0.00    +0.000 OA
ENDBRANCH  22  29
ENDBRANCH  19  25
ENDBRANCH   1  19
TORSDOF 6
ENDMDL
MODEL 2
REMARK VINA RESULT:      -8.4      0.839      1.322
REMARK  Name = 
REMARK  7 active torsions:
REMARK  status: ('A' for Active; 'I' for Inactive)
REMARK    1  A    between atoms: C_1  and  C_2
REMARK    2  A    between atoms: C_2  and  C_3
REMARK    3  A    between atoms: C_6  and  S_7
REMARK    4  A    between atoms: S_7  and  N_10
REMARK    5  A    between atoms: N_10  and  C_11
REMARK    6  A    between atoms: C_17  and  C_18
REMARK    7  A    between atoms: C_18  and  C_20
REMARK                            x       y       z     vdW  Elec       q    Type
REMARK                         _______ _______ _______ _____ _____    ______ ____
ROOT
ATOM      1  N   UNL     1       0.402  10.901  19.285  0.00  0.00    +0.000 N 
ATOM      2  H   UNL     1       1.236  10.956  18.701  0.00  0.00    +0.000 HD
ENDROOT
BRANCH   1   3
ATOM      3  C   UNL     1      -0.860  10.953  18.615  0.00  0.00    +0.000 A 
ATOM      4  C   UNL     1      -1.049  10.062  17.548  0.00  0.00    +0.000 A 
ATOM      5  C   UNL     1      -2.242  10.059  16.819  0.00  0.00    +0.000 A 
ATOM      6  C   UNL     1      -3.247  10.962  17.143  0.00  0.00    +0.000 A 
ATOM      7 CL   UNL     1      -4.711  10.984  16.242  0.00  0.00    +0.000 Cl
ATOM      8  C   UNL     1      -3.076  11.855  18.195  0.00  0.00    +0.000 A 
ATOM      9  C   UNL     1      -1.900  11.835  18.967  0.00  0.00    +0.000 A 
BRANCH   9  10
ATOM     10  C   UNL     1      -1.777  12.836  20.060  0.00  0.00    +0.000 C 
ATOM     11  O   UNL     1      -1.111  13.853  19.886  0.00  0.00    +0.000 OA
BRANCH  10  12
ATOM     12  C   UNL     1      -2.521  12.668  21.350  0.00  0.00    +0.000 A 
ATOM     13  C   UNL     1      -3.849  13.099  21.413  0.00  0.00    +0.000 A 
ATOM     14  C   UNL     1      -4.579  12.924  22.590  0.00  0.00    +0.000 A 
ATOM     15  N   UNL     1      -4.018  12.340  23.712  0.00  0.00    +0.000 N 
ATOM     16  O   UNL     1      -4.697  12.168  24.766  0.00  0.00    +0.000 OA
ATOM     17  C   UNL     1      -2.695  11.938  23.648  0.00  0.00    +0.000 A 
ATOM     18  C   UNL     1      -1.935  12.102  22.487  0.00  0.00    +0.000 A 
ENDBRANCH  10  12
ENDBRANCH   9  10
ENDBRANCH   1   3
BRANCH   1  19
ATOM     19  S   UNL     1       0.639   9.787  20.531  0.00  0.00    +0.000 S 
ATOM     20  O   UNL     1      -0.665   9.242  20.834  0.00  0.00    +0.000 OA
ATOM     21  O   UNL     1       1.452  10.398  21.561  0.00  0.00    +0.000 OA
BRANCH  19  25
ATOM     22  C   UNL     1       3.119   6.479  18.547  0.00  0.00    +0.000 A 
ATOM     23  C   UNL     1       2.565   6.305  19.830  0.00  0.00    +0.000 A 
ATOM     24  C   UNL     1       1.795   7.306  20.426  0.00  0.00    +0.000 A 
ATOM     25  C   UNL     1       1.591   8.510  19.752  0.00  0.00    +0.000 A 
ATOM     26  C   UNL     1       2.089   8.691  18.458  0.00  0.00    +0.000 A 
ATOM     27  C   UNL     1       2.849   7.677  17.864  0.00  0.00    +0.000 A 
BRANCH  22  29
ATOM     28  C   UNL     1       3.030   4.182  17.545  0.00  0.00    +0.000 C 
ATOM     29  C   UNL     1       3.936   5.361  17.907  0.00  0.00    +0.000 C 
ATOM     30  O   UNL     1       4.570   5.796  16.696  0.00  0.00    +0.000 OA
ATOM     31  C   UNL     1       5.949   5.463  16.813  0.00  0.00    +0.000 C 
ATOM     32  C   UNL     1       6.082   4.614  18.049  0.00  0.00    +0.000 C 
ATOM     33  O   UNL     1       4.942   4.924  18.835  0.00  0.00    +0.000 OA
ENDBRANCH  22  29
ENDBRANCH  19  25
ENDBRANCH   1  19
TORSDOF 6
ENDMDL
MODEL 3
REMARK VINA RESULT:      -8.4      5.136      8.085
REMARK  Name = 
REMARK  7 active torsions:
REMARK  status: ('A' for Active; 'I' for Inactive)
REMARK    1  A    between atoms: C_1  and  C_2
REMARK    2  A    between atoms: C_2  and  C_3
REMARK    3  A    between atoms: C_6  and  S_7
REMARK    4  A    between atoms: S_7  and  N_10
REMARK    5  A    between atoms: N_10  and  C_11
REMARK    6  A    between atoms: C_17  and  C_18
REMARK    7  A    between atoms: C_18  and  C_20
REMARK                            x       y       z     vdW  Elec       q    Type
REMARK                         _______ _______ _______ _____ _____    ______ ____
ROOT
ATOM      1  N   UNL     1       5.554   5.349  17.047  0.00  0.00    +0.000 N 
ATOM      2  H   UNL     1       5.804   5.237  16.065  0.00  0.00    +0.000 HD
ENDROOT
BRANCH   1   3
ATOM      3  C   UNL     1       4.321   4.762  17.470  0.00  0.00    +0.000 A 
ATOM      4  C   UNL     1       4.246   3.362  17.453  0.00  0.00    +0.000 A 
ATOM      5  C   UNL     1       3.072   2.702  17.827  0.00  0.00    +0.000 A 
ATOM      6  C   UNL     1       1.958   3.442  18.204  0.00  0.00    +0.000 A 
ATOM      7 CL   UNL     1       0.501   2.644  18.647  0.00  0.00    +0.000 Cl
ATOM      8  C   UNL     1       2.013   4.831  18.225  0.00  0.00    +0.000 A 
ATOM      9  C   UNL     1       3.203   5.505  17.897  0.00  0.00    +0.000 A 
BRANCH   9  10
ATOM     10  C   UNL     1       3.180   6.993  17.917  0.00  0.00    +0.000 C 
ATOM     11  O   UNL     1       3.837   7.626  17.096  0.00  0.00    +0.000 OA
BRANCH  10  12
ATOM     12  C   UNL     1       2.301   7.740  18.873  0.00  0.00    +0.000 A 
ATOM     13  C   UNL     1       1.675   8.907  18.428  0.00  0.00    +0.000 A 
ATOM     14  C   UNL     1       0.822   9.606  19.284  0.00  0.00    +0.000 A 
ATOM     15  N   UNL     1       0.584   9.179  20.579  0.00  0.00    +0.000 N 
ATOM     16  O   UNL     1      -0.207   9.811  21.338  0.00  0.00    +0.000 OA
ATOM     17  C   UNL     1       1.228   8.035  21.019  0.00  0.00    +0.000 A 
ATOM     18  C   UNL     1       2.090   7.314  20.189  0.00  0.00    +0.000 A 
ENDBRANCH  10  12
ENDBRANCH   9  10
ENDBRANCH   1   3
BRANCH   1  19
ATOM     19  S   UNL     1       6.927   5.195  18.016  0.00  0.00    +0.000 S 
ATOM     20  O   UNL     1       7.869   4.408  17.254  0.00  0.00    +0.000 OA
ATOM     21  O   UNL     1       6.522   4.795  19.348  0.00  0.00    +0.000 OA
BRANCH  19  25
ATOM     22  C   UNL     1       8.530   9.485  18.262  0.00  0.00    +0.000 A 
ATOM     23  C   UNL     1       8.942   8.498  19.178  0.00  0.00    +0.000 A 
ATOM     24  C   UNL     1       8.468   7.189  19.092  0.00  0.00    +0.000 A 
ATOM     25  C   UNL     1       7.549   6.854  18.097  0.00  0.00    +0.000 A 
ATOM     26  C   UNL     1       7.159   7.801  17.146  0.00  0.00    +0.000 A 
ATOM     27  C   UNL     1       7.650   9.109  17.232  0.00  0.00    +0.000 A 
BRANCH  22  29
ATOM     28  C   UNL     1       8.122  11.896  17.704  0.00  0.00    +0.000 C 
ATOM     29  C   UNL     1       9.083  10.903  18.362  0.00  0.00    +0.000 C 
ATOM     30  O   UNL     1       9.246  11.312  19.726  0.00  0.00    +0.000 OA
ATOM     31  C   UNL     1      10.583  11.786  19.856  0.00  0.00    +0.000 C 
ATOM     32  C   UNL     1      11.151  11.849  18.463  0.00  0.00    +0.000 C 
ATOM     33  O   UNL     1      10.356  10.957  17.698  0.00  0.00    +0.000 OA
ENDBRANCH  22  29
ENDBRANCH  19  25
ENDBRANCH   1  19
TORSDOF 6
ENDMDL
MODEL 4
REMARK VINA RESULT:      -8.3      5.099      8.131
REMARK  Name = 
REMARK  7 active torsions:
REMARK  status: ('A' for Active; 'I' for Inactive)
REMARK    1  A    between atoms: C_1  and  C_2
REMARK    2  A    between atoms: C_2  and  C_3
REMARK    3  A    between atoms: C_6  and  S_7
REMARK    4  A    between atoms: S_7  and  N_10
REMARK    5  A    between atoms: N_10  and  C_11
REMARK    6  A    between atoms: C_17  and  C_18
REMARK    7  A    between atoms: C_18  and  C_20
REMARK                            x       y       z     vdW  Elec       q    Type
REMARK                         _______ _______ _______ _____ _____    ______ ____
ROOT
ATOM      1  N   UNL     1       5.494   5.351  16.910  0.00  0.00    +0.000 N 
ATOM      2  H   UNL     1       5.689   5.287  15.911  0.00  0.00    +0.000 HD
ENDROOT
BRANCH   1   3
ATOM      3  C   UNL     1       4.270   4.773  17.367  0.00  0.00    +0.000 A 
ATOM      4  C   UNL     1       4.182   3.373  17.348  0.00  0.00    +0.000 A 
ATOM      5  C   UNL     1       3.014   2.721  17.754  0.00  0.00    +0.000 A 
ATOM      6  C   UNL     1       1.919   3.470  18.166  0.00  0.00    +0.000 A 
ATOM      7 CL   UNL     1       0.468   2.682  18.648  0.00  0.00    +0.000 Cl
ATOM      8  C   UNL     1       1.985   4.858  18.189  0.00  0.00    +0.000 A 
ATOM      9  C   UNL     1       3.171   5.523  17.829  0.00  0.00    +0.000 A 
BRANCH   9  10
ATOM     10  C   UNL     1       3.160   7.011  17.854  0.00  0.00    +0.000 C 
ATOM     11  O   UNL     1       3.838   7.641  17.047  0.00  0.00    +0.000 OA
BRANCH  10  12
ATOM     12  C   UNL     1       2.271   7.762  18.797  0.00  0.00    +0.000 A 
ATOM     13  C   UNL     1       2.118   7.274  20.098  0.00  0.00    +0.000 A 
ATOM     14  C   UNL     1       1.324   7.970  21.011  0.00  0.00    +0.000 A 
ATOM     15  N   UNL     1       0.668   9.136  20.660  0.00  0.00    +0.000 N 
ATOM     16  O   UNL     1      -0.033   9.769  21.503  0.00  0.00    +0.000 OA
ATOM     17  C   UNL     1       0.805   9.599  19.362  0.00  0.00    +0.000 A 
ATOM     18  C   UNL     1       1.589   8.925  18.423  0.00  0.00    +0.000 A 
ENDBRANCH  10  12
ENDBRANCH   9  10
ENDBRANCH   1   3
BRANCH   1  19
ATOM     19  S   UNL     1       6.913   5.108  17.794  0.00  0.00    +0.000 S 
ATOM     20  O   UNL     1       7.816   4.402  16.915  0.00  0.00    +0.000 OA
ATOM     21  O   UNL     1       6.571   4.579  19.098  0.00  0.00    +0.000 OA
BRANCH  19  25
ATOM     22  C   UNL     1       8.537   9.366  18.306  0.00  0.00    +0.000 A 
ATOM     23  C   UNL     1       7.620   9.053  17.283  0.00  0.00    +0.000 A 
ATOM     24  C   UNL     1       7.113   7.761  17.139  0.00  0.00    +0.000 A 
ATOM     25  C   UNL     1       7.539   6.754  18.006  0.00  0.00    +0.000 A 
ATOM     26  C   UNL     1       8.411   7.047  19.058  0.00  0.00    +0.000 A 
ATOM     27  C   UNL     1       8.904   8.349  19.203  0.00  0.00    +0.000 A 
BRANCH  22  29
ATOM     28  C   UNL     1       8.157  11.771  17.702  0.00  0.00    +0.000 C 
ATOM     29  C   UNL     1       9.057  10.792  18.458  0.00  0.00    +0.000 C 
ATOM     30  O   UNL     1       9.073  11.205  19.832  0.00  0.00    +0.000 OA
ATOM     31  C   UNL     1      10.383  11.697  20.098  0.00  0.00    +0.000 C 
ATOM     32  C   UNL     1      11.091  11.766  18.772  0.00  0.00    +0.000 C 
ATOM     33  O   UNL     1      10.392  10.863  17.930  0.00  0.00    +0.000 OA
ENDBRANCH  22  29
ENDBRANCH  19  25
ENDBRANCH   1  19
TORSDOF 6
ENDMDL
MODEL 5
REMARK VINA RESULT:      -8.3      0.714      1.275
REMARK  Name = 
REMARK  7 active torsions:
REMARK  status: ('A' for Active; 'I' for Inactive)
REMARK    1  A    between atoms: C_1  and  C_2
REMARK    2  A    between atoms: C_2  and  C_3
REMARK    3  A    between atoms: C_6  and  S_7
REMARK    4  A    between atoms: S_7  and  N_10
REMARK    5  A    between atoms: N_10  and  C_11
REMARK    6  A    between atoms: C_17  and  C_18
REMARK    7  A    between atoms: C_18  and  C_20
REMARK                            x       y       z     vdW  Elec       q    Type
REMARK                         _______ _______ _______ _____ _____    ______ ____
ROOT
ATOM      1  N   UNL     1       0.482  10.860  19.459  0.00  0.00    +0.000 N 
ATOM      2  H   UNL     1       1.342  10.801  18.913  0.00  0.00    +0.000 HD
ENDROOT
BRANCH   1   3
ATOM      3  C   UNL     1      -0.744  10.904  18.727  0.00  0.00    +0.000 A 
ATOM      4  C   UNL     1      -0.883   9.999  17.664  0.00  0.00    +0.000 A 
ATOM      5  C   UNL     1      -2.039   9.987  16.878  0.00  0.00    +0.000 A 
ATOM      6  C   UNL     1      -3.057  10.895  17.141  0.00  0.00    +0.000 A 
ATOM      7 CL   UNL     1      -4.475  10.905  16.169  0.00  0.00    +0.000 Cl
ATOM      8  C   UNL     1      -2.937  11.801  18.188  0.00  0.00    +0.000 A 
ATOM      9  C   UNL     1      -1.799  11.791  19.016  0.00  0.00    +0.000 A 
BRANCH   9  10
ATOM     10  C   UNL     1      -1.729  12.807  20.101  0.00  0.00    +0.000 C 
ATOM     11  O   UNL     1      -1.002  13.788  19.974  0.00  0.00    +0.000 OA
BRANCH  10  12
ATOM     12  C   UNL     1      -2.594  12.698  21.320  0.00  0.00    +0.000 A 
ATOM     13  C   UNL     1      -3.939  13.066  21.216  0.00  0.00    +0.000 A 
ATOM     14  C   UNL     1      -4.779  12.942  22.324  0.00  0.00    +0.000 A 
ATOM     15  N   UNL     1      -4.312  12.472  23.539  0.00  0.00    +0.000 N 
ATOM     16  O   UNL     1      -5.089  12.346  24.530  0.00  0.00    +0.000 OA
ATOM     17  C   UNL     1      -2.973  12.134  23.639  0.00  0.00    +0.000 A 
ATOM     18  C   UNL     1      -2.105  12.248  22.551  0.00  0.00    +0.000 A 
ENDBRANCH  10  12
ENDBRANCH   9  10
ENDBRANCH   1   3
BRANCH   1  19
ATOM     19  S   UNL     1       0.600   9.886  20.833  0.00  0.00    +0.000 S 
ATOM     20  O   UNL     1      -0.756   9.571  21.217  0.00  0.00    +0.000 OA
ATOM     21  O   UNL     1       1.520  10.499  21.768  0.00  0.00    +0.000 OA
BRANCH  19  25
ATOM     22  C   UNL     1       2.512   6.056  19.188  0.00  0.00    +0.000 A 
ATOM     23  C   UNL     1       2.574   7.267  18.474  0.00  0.00    +0.000 A 
ATOM     24  C   UNL     1       2.008   8.436  18.983  0.00  0.00    +0.000 A 
ATOM     25  C   UNL     1       1.345   8.402  20.210  0.00  0.00    +0.000 A 
ATOM     26  C   UNL     1       1.309   7.224  20.963  0.00  0.00    +0.000 A 
ATOM     27  C   UNL     1       1.892   6.060  20.450  0.00  0.00    +0.000 A 
BRANCH  22  29
ATOM     28  C   UNL     1       2.235   4.133  17.602  0.00  0.00    +0.000 C 
ATOM     29  C   UNL     1       3.162   4.797  18.622  0.00  0.00    +0.000 C 
ATOM     30  O   UNL     1       4.392   5.095  17.948  0.00  0.00    +0.000 OA
ATOM     31  C   UNL     1       5.381   4.228  18.495  0.00  0.00    +0.000 C 
ATOM     32  C   UNL     1       4.651   3.246  19.372  0.00  0.00    +0.000 C 
ATOM     33  O   UNL     1       3.424   3.881  19.698  0.00  0.00    +0.000 OA
ENDBRANCH  22  29
ENDBRANCH  19  25
ENDBRANCH   1  19
TORSDOF 6
ENDMDL
MODEL 6
REMARK VINA RESULT:      -8.3      5.106      8.121
REMARK  Name = 
REMARK  7 active torsions:
REMARK  status: ('A' for Active; 'I' for Inactive)
REMARK    1  A    between atoms: C_1  and  C_2
REMARK    2  A    between atoms: C_2  and  C_3
REMARK    3  A    between atoms: C_6  and  S_7
REMARK    4  A    between atoms: S_7  and  N_10
REMARK    5  A    between atoms: N_10  and  C_11
REMARK    6  A    between atoms: C_17  and  C_18
REMARK    7  A    between atoms: C_18  and  C_20
REMARK                            x       y       z     vdW  Elec       q    Type
REMARK                         _______ _______ _______ _____ _____    ______ ____
ROOT
ATOM      1  N   UNL     1       5.529   5.398  16.872  0.00  0.00    +0.000 N 
ATOM      2  H   UNL     1       5.698   5.366  15.866  0.00  0.00    +0.000 HD
ENDROOT
BRANCH   1   3
ATOM      3  C   UNL     1       4.308   4.822  17.340  0.00  0.00    +0.000 A 
ATOM      4  C   UNL     1       4.216   3.423  17.319  0.00  0.00    +0.000 A 
ATOM      5  C   UNL     1       3.050   2.774  17.736  0.00  0.00    +0.000 A 
ATOM      6  C   UNL     1       1.961   3.525  18.160  0.00  0.00    +0.000 A 
ATOM      7 CL   UNL     1       0.513   2.740  18.656  0.00  0.00    +0.000 Cl
ATOM      8  C   UNL     1       2.032   4.913  18.186  0.00  0.00    +0.000 A 
ATOM      9  C   UNL     1       3.216   5.575  17.815  0.00  0.00    +0.000 A 
BRANCH   9  10
ATOM     10  C   UNL     1       3.210   7.063  17.843  0.00  0.00    +0.000 C 
ATOM     11  O   UNL     1       3.915   7.692  17.059  0.00  0.00    +0.000 OA
BRANCH  10  12
ATOM     12  C   UNL     1       2.294   7.815  18.760  0.00  0.00    +0.000 A 
ATOM     13  C   UNL     1       2.129   7.345  20.066  0.00  0.00    +0.000 A 
ATOM     14  C   UNL     1       1.311   8.044  20.956  0.00  0.00    +0.000 A 
ATOM     15  N   UNL     1       0.642   9.194  20.575  0.00  0.00    +0.000 N 
ATOM     16  O   UNL     1      -0.082   9.829  21.397  0.00  0.00    +0.000 OA
ATOM     17  C   UNL     1       0.792   9.637  19.272  0.00  0.00    +0.000 A 
ATOM     18  C   UNL     1       1.601   8.961  18.356  0.00  0.00    +0.000 A 
ENDBRANCH  10  12
ENDBRANCH   9  10
ENDBRANCH   1   3
BRANCH   1  19
ATOM     19  S   UNL     1       6.966   5.103  17.709  0.00  0.00    +0.000 S 
ATOM     20  O   UNL     1       7.846   4.444  16.773  0.00  0.00    +0.000 OA
ATOM     21  O   UNL     1       6.650   4.505  18.990  0.00  0.00    +0.000 OA
BRANCH  19  25
ATOM     22  C   UNL     1       8.606   9.314  18.489  0.00  0.00    +0.000 A 
ATOM     23  C   UNL     1       8.920   8.239  19.343  0.00  0.00    +0.000 A 
ATOM     24  C   UNL     1       8.434   6.955  19.095  0.00  0.00    +0.000 A 
ATOM     25  C   UNL     1       7.603   6.733  17.997  0.00  0.00    +0.000 A 
ATOM     26  C   UNL     1       7.314   7.771  17.106  0.00  0.00    +0.000 A 
ATOM     27  C   UNL     1       7.816   9.054  17.356  0.00  0.00    +0.000 A 
BRANCH  22  29
ATOM     28  C   UNL     1       9.136  11.002  20.267  0.00  0.00    +0.000 C 
ATOM     29  C   UNL     1       9.169  10.704  18.767  0.00  0.00    +0.000 C 
ATOM     30  O   UNL     1      10.535  10.815  18.343  0.00  0.00    +0.000 OA
ATOM     31  C   UNL     1      10.616  11.973  17.517  0.00  0.00    +0.000 C 
ATOM     32  C   UNL     1       9.290  12.677  17.636  0.00  0.00    +0.000 C 
ATOM     33  O   UNL     1       8.379  11.679  18.068  0.00  0.00    +0.000 OA
ENDBRANCH  22  29
ENDBRANCH  19  25
ENDBRANCH   1  19
TORSDOF 6
ENDMDL
MODEL 7
REMARK VINA RESULT:      -8.2      1.327      1.628
REMARK  Name = 
REMARK  7 active torsions:
REMARK  status: ('A' for Active; 'I' for Inactive)
REMARK    1  A    between atoms: C_1  and  C_2
REMARK    2  A    between atoms: C_2  and  C_3
REMARK    3  A    between atoms: C_6  and  S_7
REMARK    4  A    between atoms: S_7  and  N_10
REMARK    5  A    between atoms: N_10  and  C_11
REMARK    6  A    between atoms: C_17  and  C_18
REMARK    7  A    between atoms: C_18  and  C_20
REMARK                            x       y       z     vdW  Elec       q    Type
REMARK                         _______ _______ _______ _____ _____    ______ ____
ROOT
ATOM      1  N   UNL     1      -0.217  10.814  18.633  0.00  0.00    +0.000 N 
ATOM      2  H   UNL     1       0.290  10.476  17.815  0.00  0.00    +0.000 HD
ENDROOT
BRANCH   1   3
ATOM      3  C   UNL     1      -1.635  10.941  18.507  0.00  0.00    +0.000 A 
ATOM      4  C   UNL     1      -2.294   9.968  17.741  0.00  0.00    +0.000 A 
ATOM      5  C   UNL     1      -3.676  10.026  17.543  0.00  0.00    +0.000 A 
ATOM      6  C   UNL     1      -4.406  11.070  18.098  0.00  0.00    +0.000 A 
ATOM      7 CL   UNL     1      -6.104  11.165  17.845  0.00  0.00    +0.000 Cl
ATOM      8  C   UNL     1      -3.770  12.045  18.858  0.00  0.00    +0.000 A 
ATOM      9  C   UNL     1      -2.387  11.971  19.104  0.00  0.00    +0.000 A 
BRANCH   9  10
ATOM     10  C   UNL     1      -1.771  13.063  19.905  0.00  0.00    +0.000 C 
ATOM     11  O   UNL     1      -0.948  13.812  19.387  0.00  0.00    +0.000 OA
BRANCH  10  12
ATOM     12  C   UNL     1      -2.198  13.321  21.318  0.00  0.00    +0.000 A 
ATOM     13  C   UNL     1      -2.370  14.646  21.730  0.00  0.00    +0.000 A 
ATOM     14  C   UNL     1      -2.800  14.917  23.030  0.00  0.00    +0.000 A 
ATOM     15  N   UNL     1      -3.054  13.904  23.936  0.00  0.00    +0.000 N 
ATOM     16  O   UNL     1      -3.463  14.163  25.106  0.00  0.00    +0.000 OA
ATOM     17  C   UNL     1      -2.857  12.595  23.528  0.00  0.00    +0.000 A 
ATOM     18  C   UNL     1      -2.424  12.289  22.235  0.00  0.00    +0.000 A 
ENDBRANCH  10  12
ENDBRANCH   9  10
ENDBRANCH   1   3
BRANCH   1  19
ATOM     19  S   UNL     1       0.440  10.145  20.038  0.00  0.00    +0.000 S 
ATOM     20  O   UNL     1      -0.662   9.531  20.742  0.00  0.00    +0.000 OA
ATOM     21  O   UNL     1       1.282  11.132  20.681  0.00  0.00    +0.000 OA
BRANCH  19  25
ATOM     22  C   UNL     1       3.104   6.791  18.400  0.00  0.00    +0.000 A 
ATOM     23  C   UNL     1       2.843   7.950  17.644  0.00  0.00    +0.000 A 
ATOM     24  C   UNL     1       2.046   8.978  18.151  0.00  0.00    +0.000 A 
ATOM     25  C   UNL     1       1.477   8.847  19.417  0.00  0.00    +0.000 A 
ATOM     26  C   UNL     1       1.759   7.729  20.208  0.00  0.00    +0.000 A 
ATOM     27  C   UNL     1       2.569   6.709  19.697  0.00  0.00    +0.000 A 
BRANCH  22  29
ATOM     28  C   UNL     1       4.773   6.209  16.620  0.00  0.00    +0.000 C 
ATOM     29  C   UNL     1       3.999   5.692  17.835  0.00  0.00    +0.000 C 
ATOM     30  O   UNL     1       4.966   5.251  18.798  0.00  0.00    +0.000 OA
ATOM     31  C   UNL     1       4.860   3.832  18.866  0.00  0.00    +0.000 C 
ATOM     32  C   UNL     1       3.941   3.418  17.748  0.00  0.00    +0.000 C 
ATOM     33  O   UNL     1       3.182   4.578  17.443  0.00  0.00    +0.000 OA
ENDBRANCH  22  29
ENDBRANCH  19  25
ENDBRANCH   1  19
TORSDOF 6
ENDMDL
MODEL 8
REMARK VINA RESULT:      -8.1      1.400      1.680
REMARK  Name = 
REMARK  7 active torsions:
REMARK  status: ('A' for Active; 'I' for Inactive)
REMARK    1  A    between atoms: C_1  and  C_2
REMARK    2  A    between atoms: C_2  and  C_3
REMARK    3  A    between atoms: C_6  and  S_7
REMARK    4  A    between atoms: S_7  and  N_10
REMARK    5  A    between atoms: N_10  and  C_11
REMARK    6  A    between atoms: C_17  and  C_18
REMARK    7  A    between atoms: C_18  and  C_20
REMARK                            x       y       z     vdW  Elec       q    Type
REMARK                         _______ _______ _______ _____ _____    ______ ____
ROOT
ATOM      1  N   UNL     1      -0.181  10.582  18.251  0.00  0.00    +0.000 N 
ATOM      2  H   UNL     1       0.236  10.100  17.455  0.00  0.00    +0.000 HD
ENDROOT
BRANCH   1   3
ATOM      3  C   UNL     1      -1.598  10.761  18.229  0.00  0.00    +0.000 A 
ATOM      4  C   UNL     1      -2.352   9.778  17.570  0.00  0.00    +0.000 A 
ATOM      5  C   UNL     1      -3.743   9.883  17.477  0.00  0.00    +0.000 A 
ATOM      6  C   UNL     1      -4.386  10.984  18.029  0.00  0.00    +0.000 A 
ATOM      7 CL   UNL     1      -6.095  11.137  17.904  0.00  0.00    +0.000 Cl
ATOM      8  C   UNL     1      -3.656  11.970  18.683  0.00  0.00    +0.000 A 
ATOM      9  C   UNL     1      -2.261  11.851  18.825  0.00  0.00    +0.000 A 
BRANCH   9  10
ATOM     10  C   UNL     1      -1.544  12.957  19.515  0.00  0.00    +0.000 C 
ATOM     11  O   UNL     1      -0.670  13.582  18.921  0.00  0.00    +0.000 OA
BRANCH  10  12
ATOM     12  C   UNL     1      -1.923  13.378  20.902  0.00  0.00    +0.000 A 
ATOM     13  C   UNL     1      -1.512  12.580  21.974  0.00  0.00    +0.000 A 
ATOM     14  C   UNL     1      -1.819  12.964  23.281  0.00  0.00    +0.000 A 
ATOM     15  N   UNL     1      -2.535  14.118  23.549  0.00  0.00    +0.000 N 
ATOM     16  O   UNL     1      -2.790  14.465  24.739  0.00  0.00    +0.000 OA
ATOM     17  C   UNL     1      -2.959  14.888  22.479  0.00  0.00    +0.000 A 
ATOM     18  C   UNL     1      -2.671  14.531  21.160  0.00  0.00    +0.000 A 
ENDBRANCH  10  12
ENDBRANCH   9  10
ENDBRANCH   1   3
BRANCH   1  19
ATOM     19  S   UNL     1       0.577  10.098  19.681  0.00  0.00    +0.000 S 
ATOM     20  O   UNL     1      -0.461   9.534  20.512  0.00  0.00    +0.000 OA
ATOM     21  O   UNL     1       1.414  11.179  20.159  0.00  0.00    +0.000 OA
BRANCH  19  25
ATOM     22  C   UNL     1       3.308   6.668  18.339  0.00  0.00    +0.000 A 
ATOM     23  C   UNL     1       2.678   6.649  19.598  0.00  0.00    +0.000 A 
ATOM     24  C   UNL     1       1.833   7.685  19.998  0.00  0.00    +0.000 A 
ATOM     25  C   UNL     1       1.627   8.772  19.149  0.00  0.00    +0.000 A 
ATOM     26  C   UNL     1       2.202   8.794  17.875  0.00  0.00    +0.000 A 
ATOM     27  C   UNL     1       3.037   7.744  17.477  0.00  0.00    +0.000 A 
BRANCH  22  29
ATOM     28  C   UNL     1       5.248   5.991  16.900  0.00  0.00    +0.000 C 
ATOM     29  C   UNL     1       4.207   5.511  17.914  0.00  0.00    +0.000 C 
ATOM     30  O   UNL     1       4.923   4.961  19.028  0.00  0.00    +0.000 OA
ATOM     31  C   UNL     1       4.691   3.555  19.012  0.00  0.00    +0.000 C 
ATOM     32  C   UNL     1       3.985   3.253  17.717  0.00  0.00    +0.000 C 
ATOM     33  O   UNL     1       3.398   4.483  17.320  0.00  0.00    +0.000 OA
ENDBRANCH  22  29
ENDBRANCH  19  25
ENDBRANCH   1  19
TORSDOF 6
ENDMDL
MODEL 9
REMARK VINA RESULT:      -8.1      2.203      2.744
REMARK  Name = 
REMARK  7 active torsions:
REMARK  status: ('A' for Active; 'I' for Inactive)
REMARK    1  A    between atoms: C_1  and  C_2
REMARK    2  A    between atoms: C_2  and  C_3
REMARK    3  A    between atoms: C_6  and  S_7
REMARK    4  A    between atoms: S_7  and  N_10
REMARK    5  A    between atoms: N_10  and  C_11
REMARK    6  A    between atoms: C_17  and  C_18
REMARK    7  A    between atoms: C_18  and  C_20
REMARK                            x       y       z     vdW  Elec       q    Type
REMARK                         _______ _______ _______ _____ _____    ______ ____
ROOT
ATOM      1  N   UNL     1       0.538  11.116  18.439  0.00  0.00    +0.000 N 
ATOM      2  H   UNL     1      -0.076  10.750  17.711  0.00  0.00    +0.000 HD
ENDROOT
BRANCH   1   3
ATOM      3  C   UNL     1       0.516  12.530  18.650  0.00  0.00    +0.000 A 
ATOM      4  C   UNL     1       1.727  13.216  18.479  0.00  0.00    +0.000 A 
ATOM      5  C   UNL     1       1.806  14.595  18.688  0.00  0.00    +0.000 A 
ATOM      6  C   UNL     1       0.674  15.295  19.087  0.00  0.00    +0.000 A 
ATOM      7 CL   UNL     1       0.761  16.989  19.367  0.00  0.00    +0.000 Cl
ATOM      8  C   UNL     1      -0.535  14.632  19.263  0.00  0.00    +0.000 A 
ATOM      9  C   UNL     1      -0.638  13.252  19.010  0.00  0.00    +0.000 A 
BRANCH   9  10
ATOM     10  C   UNL     1      -1.957  12.606  19.245  0.00  0.00    +0.000 C 
ATOM     11  O   UNL     1      -2.537  12.045  18.320  0.00  0.00    +0.000 OA
BRANCH  10  12
ATOM     12  C   UNL     1      -2.561  12.556  20.616  0.00  0.00    +0.000 A 
ATOM     13  C   UNL     1      -3.930  12.805  20.749  0.00  0.00    +0.000 A 
ATOM     14  C   UNL     1      -4.528  12.731  22.008  0.00  0.00    +0.000 A 
ATOM     15  N   UNL     1      -3.796  12.428  23.143  0.00  0.00    +0.000 N 
ATOM     16  O   UNL     1      -4.355  12.345  24.276  0.00  0.00    +0.000 OA
ATOM     17  C   UNL     1      -2.436  12.208  23.005  0.00  0.00    +0.000 A 
ATOM     18  C   UNL     1      -1.806  12.277  21.760  0.00  0.00    +0.000 A 
ENDBRANCH  10  12
ENDBRANCH   9  10
ENDBRANCH   1   3
BRANCH   1  19
ATOM     19  S   UNL     1       0.548  10.074  19.767  0.00  0.00    +0.000 S 
ATOM     20  O   UNL     1      -0.798   9.564  19.887  0.00  0.00    +0.000 OA
ATOM     21  O   UNL     1       1.200  10.734  20.879  0.00  0.00    +0.000 OA
BRANCH  19  25
ATOM     22  C   UNL     1       3.214   6.631  18.329  0.00  0.00    +0.000 A 
ATOM     23  C   UNL     1       2.970   7.754  17.515  0.00  0.00    +0.000 A 
ATOM     24  C   UNL     1       2.173   8.809  17.961  0.00  0.00    +0.000 A 
ATOM     25  C   UNL     1       1.586   8.742  19.224  0.00  0.00    +0.000 A 
ATOM     26  C   UNL     1       1.849   7.662  20.071  0.00  0.00    +0.000 A 
ATOM     27  C   UNL     1       2.660   6.614  19.621  0.00  0.00    +0.000 A 
BRANCH  22  29
ATOM     28  C   UNL     1       5.009   5.999  16.695  0.00  0.00    +0.000 C 
ATOM     29  C   UNL     1       4.110   5.502  17.829  0.00  0.00    +0.000 C 
ATOM     30  O   UNL     1       4.969   5.010  18.867  0.00  0.00    +0.000 OA
ATOM     31  C   UNL     1       4.799   3.597  18.905  0.00  0.00    +0.000 C 
ATOM     32  C   UNL     1       3.967   3.233  17.705  0.00  0.00    +0.000 C 
ATOM     33  O   UNL     1       3.286   4.427  17.351  0.00  0.00    +0.000 OA
ENDBRANCH  22  29
ENDBRANCH  19  25
ENDBRANCH   1  19
TORSDOF 6
ENDMDL
