MODEL 1
REMARK VINA RESULT:      -8.5      0.000      0.000
REMARK  Name = 
REMARK  4 active torsions:
REMARK  status: ('A' for Active; 'I' for Inactive)
REMARK    1  A    between atoms: C_1  and  C_2
REMARK    2  A    between atoms: C_6  and  C_7
REMARK    3  A    between atoms: C_7  and  C_9
REMARK    4  A    between atoms: C_12  and  C_13
REMARK                            x       y       z     vdW  Elec       q    Type
REMARK                         _______ _______ _______ _____ _____    ______ ____
ROOT
ATOM      1  C   UNL     1       5.597   4.973  16.667  0.00  0.00    +0.000 A 
ATOM      2  C   UNL     1       4.977   6.204  16.640  0.00  0.00    +0.000 A 
ATOM      3  N   UNL     1       3.812   6.043  17.332  0.00  0.00    +0.000 N 
ATOM      4  C   UNL     1       3.763   4.751  17.807  0.00  0.00    +0.000 A 
ATOM      5  N   UNL     1       4.825   4.082  17.392  0.00  0.00    +0.000 NA
ATOM      6  H   UNL     1       3.127   6.759  17.522  0.00  0.00    +0.000 HD
ENDROOT
BRANCH   4   7
ATOM      7  C   UNL     1       2.708   4.255  18.691  0.00  0.00    +0.000 A 
ATOM      8  C   UNL     1       2.571   4.710  20.010  0.00  0.00    +0.000 A 
ATOM      9  C   UNL     1       1.578   4.188  20.845  0.00  0.00    +0.000 A 
ATOM     10  C   UNL     1       0.711   3.207  20.369  0.00  0.00    +0.000 A 
ATOM     11  C   UNL     1       0.826   2.755  19.056  0.00  0.00    +0.000 A 
ATOM     12  C   UNL     1       1.814   3.282  18.221  0.00  0.00    +0.000 A 
ENDBRANCH   4   7
BRANCH   1  13
ATOM     13  C   UNL     1       6.885   4.656  16.058  0.00  0.00    +0.000 C 
ATOM     14  O   UNL     1       7.911   4.544  16.729  0.00  0.00    +0.000 OA
BRANCH  13  20
ATOM     15  C   UNL     1       5.236   2.679  11.735  0.00  0.00    +0.000 C 
ATOM     16  C   UNL     1       6.161   3.604  12.470  0.00  0.00    +0.000 A 
ATOM     17  C   UNL     1       7.044   4.443  11.781  0.00  0.00    +0.000 A 
ATOM     18  C   UNL     1       7.885   5.312  12.479  0.00  0.00    +0.000 A 
ATOM     19  C   UNL     1       7.844   5.356  13.873  0.00  0.00    +0.000 A 
ATOM     20  C   UNL     1       6.973   4.516  14.578  0.00  0.00    +0.000 A 
ATOM     21  C   UNL     1       6.135   3.643  13.871  0.00  0.00    +0.000 A 
ENDBRANCH  13  20
ENDBRANCH   1  13
TORSDOF 3
ENDMDL
MODEL 2
REMARK VINA RESULT:      -8.5      0.227      1.083
REMARK  Name = 
REMARK  4 active torsions:
REMARK  status: ('A' for Active; 'I' for Inactive)
REMARK    1  A    between atoms: C_1  and  C_2
REMARK    2  A    between atoms: C_6  and  C_7
REMARK    3  A    between atoms: C_7  and  C_9
REMARK    4  A    between atoms: C_12  and  C_13
REMARK                            x       y       z     vdW  Elec       q    Type
REMARK                         _______ _______ _______ _____ _____    ______ ____
ROOT
ATOM      1  C   UNL     1       5.630   4.953  16.649  0.00  0.00    +0.000 A 
ATOM      2  C   UNL     1       5.080   6.210  16.774  0.00  0.00    +0.000 A 
ATOM      3  N   UNL     1       3.893   6.029  17.424  0.00  0.00    +0.000 N 
ATOM      4  C   UNL     1       3.763   4.692  17.726  0.00  0.00    +0.000 A 
ATOM      5  N   UNL     1       4.795   4.022  17.242  0.00  0.00    +0.000 NA
ATOM      6  H   UNL     1       3.245   6.753  17.695  0.00  0.00    +0.000 HD
ENDROOT
BRANCH   4   7
ATOM      7  C   UNL     1       2.663   4.148  18.524  0.00  0.00    +0.000 A 
ATOM      8  C   UNL     1       1.975   2.988  18.144  0.00  0.00    +0.000 A 
ATOM      9  C   UNL     1       0.901   2.513  18.905  0.00  0.00    +0.000 A 
ATOM     10  C   UNL     1       0.507   3.195  20.055  0.00  0.00    +0.000 A 
ATOM     11  C   UNL     1       1.190   4.342  20.452  0.00  0.00    +0.000 A 
ATOM     12  C   UNL     1       2.266   4.811  19.694  0.00  0.00    +0.000 A 
ENDBRANCH   4   7
BRANCH   1  13
ATOM     13  C   UNL     1       6.911   4.643  16.022  0.00  0.00    +0.000 C 
ATOM     14  O   UNL     1       7.947   4.538  16.678  0.00  0.00    +0.000 OA
BRANCH  13  20
ATOM     15  C   UNL     1       5.250   2.609  11.731  0.00  0.00    +0.000 C 
ATOM     16  C   UNL     1       6.159   3.563  12.448  0.00  0.00    +0.000 A 
ATOM     17  C   UNL     1       7.005   4.427  11.743  0.00  0.00    +0.000 A 
ATOM     18  C   UNL     1       7.830   5.322  12.426  0.00  0.00    +0.000 A 
ATOM     19  C   UNL     1       7.812   5.367  13.821  0.00  0.00    +0.000 A 
ATOM     20  C   UNL     1       6.978   4.503  14.541  0.00  0.00    +0.000 A 
ATOM     21  C   UNL     1       6.155   3.603  13.850  0.00  0.00    +0.000 A 
ENDBRANCH  13  20
ENDBRANCH   1  13
TORSDOF 3
ENDMDL
MODEL 3
REMARK VINA RESULT:      -8.3      4.398      7.266
REMARK  Name = 
REMARK  4 active torsions:
REMARK  status: ('A' for Active; 'I' for Inactive)
REMARK    1  A    between atoms: C_1  and  C_2
REMARK    2  A    between atoms: C_6  and  C_7
REMARK    3  A    between atoms: C_7  and  C_9
REMARK    4  A    between atoms: C_12  and  C_13
REMARK                            x       y       z     vdW  Elec       q    Type
REMARK                         _______ _______ _______ _____ _____    ______ ____
ROOT
ATOM      1  C   UNL     1       7.101   6.842  17.360  0.00  0.00    +0.000 A 
ATOM      2  C   UNL     1       7.746   6.362  18.480  0.00  0.00    +0.000 A 
ATOM      3  N   UNL     1       8.468   7.414  18.966  0.00  0.00    +0.000 N 
ATOM      4  C   UNL     1       8.217   8.515  18.178  0.00  0.00    +0.000 A 
ATOM      5  N   UNL     1       7.410   8.180  17.186  0.00  0.00    +0.000 NA
ATOM      6  H   UNL     1       9.041   7.411  19.797  0.00  0.00    +0.000 HD
ENDROOT
BRANCH   4   7
ATOM      7  C   UNL     1       8.733   9.852  18.471  0.00  0.00    +0.000 A 
ATOM      8  C   UNL     1       9.500  10.117  19.615  0.00  0.00    +0.000 A 
ATOM      9  C   UNL     1       9.946  11.414  19.890  0.00  0.00    +0.000 A 
ATOM     10  C   UNL     1       9.631  12.458  19.024  0.00  0.00    +0.000 A 
ATOM     11  C   UNL     1       8.880  12.208  17.877  0.00  0.00    +0.000 A 
ATOM     12  C   UNL     1       8.440  10.911  17.600  0.00  0.00    +0.000 A 
ENDBRANCH   4   7
BRANCH   1  13
ATOM     13  C   UNL     1       6.201   6.076  16.503  0.00  0.00    +0.000 C 
ATOM     14  O   UNL     1       6.532   5.712  15.375  0.00  0.00    +0.000 OA
BRANCH  13  20
ATOM     15  C   UNL     1       2.549   2.773  17.537  0.00  0.00    +0.000 C 
ATOM     16  C   UNL     1       3.061   4.184  17.534  0.00  0.00    +0.000 A 
ATOM     17  C   UNL     1       2.312   5.226  18.090  0.00  0.00    +0.000 A 
ATOM     18  C   UNL     1       2.812   6.531  18.098  0.00  0.00    +0.000 A 
ATOM     19  C   UNL     1       4.068   6.802  17.555  0.00  0.00    +0.000 A 
ATOM     20  C   UNL     1       4.826   5.770  16.985  0.00  0.00    +0.000 A 
ATOM     21  C   UNL     1       4.317   4.464  16.978  0.00  0.00    +0.000 A 
ENDBRANCH  13  20
ENDBRANCH   1  13
TORSDOF 3
ENDMDL
MODEL 4
REMARK VINA RESULT:      -8.2      1.391      1.758
REMARK  Name = 
REMARK  4 active torsions:
REMARK  status: ('A' for Active; 'I' for Inactive)
REMARK    1  A    between atoms: C_1  and  C_2
REMARK    2  A    between atoms: C_6  and  C_7
REMARK    3  A    between atoms: C_7  and  C_9
REMARK    4  A    between atoms: C_12  and  C_13
REMARK                            x       y       z     vdW  Elec       q    Type
REMARK                         _______ _______ _______ _____ _____    ______ ____
ROOT
ATOM      1  C   UNL     1       5.234   4.993  16.754  0.00  0.00    +0.000 A 
ATOM      2  C   UNL     1       6.163   4.211  17.405  0.00  0.00    +0.000 A 
ATOM      3  N   UNL     1       5.519   3.712  18.501  0.00  0.00    +0.000 N 
ATOM      4  C   UNL     1       4.214   4.150  18.475  0.00  0.00    +0.000 A 
ATOM      5  N   UNL     1       4.030   4.948  17.437  0.00  0.00    +0.000 NA
ATOM      6  H   UNL     1       5.908   3.081  19.185  0.00  0.00    +0.000 HD
ENDROOT
BRANCH   4   7
ATOM      7  C   UNL     1       3.198   3.719  19.436  0.00  0.00    +0.000 A 
ATOM      8  C   UNL     1       1.869   4.158  19.358  0.00  0.00    +0.000 A 
ATOM      9  C   UNL     1       0.929   3.761  20.314  0.00  0.00    +0.000 A 
ATOM     10  C   UNL     1       1.309   2.919  21.357  0.00  0.00    +0.000 A 
ATOM     11  C   UNL     1       2.623   2.464  21.441  0.00  0.00    +0.000 A 
ATOM     12  C   UNL     1       3.560   2.857  20.482  0.00  0.00    +0.000 A 
ENDBRANCH   4   7
BRANCH   1  13
ATOM     13  C   UNL     1       5.462   5.732  15.516  0.00  0.00    +0.000 C 
ATOM     14  O   UNL     1       5.121   6.908  15.389  0.00  0.00    +0.000 OA
BRANCH  13  20
ATOM     15  C   UNL     1       5.148   2.477  11.692  0.00  0.00    +0.000 C 
ATOM     16  C   UNL     1       5.932   3.492  12.473  0.00  0.00    +0.000 A 
ATOM     17  C   UNL     1       7.209   3.891  12.063  0.00  0.00    +0.000 A 
ATOM     18  C   UNL     1       7.917   4.851  12.789  0.00  0.00    +0.000 A 
ATOM     19  C   UNL     1       7.350   5.426  13.927  0.00  0.00    +0.000 A 
ATOM     20  C   UNL     1       6.077   5.030  14.356  0.00  0.00    +0.000 A 
ATOM     21  C   UNL     1       5.373   4.063  13.624  0.00  0.00    +0.000 A 
ENDBRANCH  13  20
ENDBRANCH   1  13
TORSDOF 3
ENDMDL
MODEL 5
REMARK VINA RESULT:      -8.2      1.381      1.663
REMARK  Name = 
REMARK  4 active torsions:
REMARK  status: ('A' for Active; 'I' for Inactive)
REMARK    1  A    between atoms: C_1  and  C_2
REMARK    2  A    between atoms: C_6  and  C_7
REMARK    3  A    between atoms: C_7  and  C_9
REMARK    4  A    between atoms: C_12  and  C_13
REMARK                            x       y       z     vdW  Elec       q    Type
REMARK                         _______ _______ _______ _____ _____    ______ ____
ROOT
ATOM      1  C   UNL     1       5.242   4.972  16.753  0.00  0.00    +0.000 A 
ATOM      2  C   UNL     1       6.167   4.167  17.383  0.00  0.00    +0.000 A 
ATOM      3  N   UNL     1       5.533   3.676  18.487  0.00  0.00    +0.000 N 
ATOM      4  C   UNL     1       4.237   4.139  18.487  0.00  0.00    +0.000 A 
ATOM      5  N   UNL     1       4.051   4.946  17.456  0.00  0.00    +0.000 NA
ATOM      6  H   UNL     1       5.921   3.032  19.161  0.00  0.00    +0.000 HD
ENDROOT
BRANCH   4   7
ATOM      7  C   UNL     1       3.230   3.722  19.463  0.00  0.00    +0.000 A 
ATOM      8  C   UNL     1       3.549   2.901  20.553  0.00  0.00    +0.000 A 
ATOM      9  C   UNL     1       2.558   2.485  21.448  0.00  0.00    +0.000 A 
ATOM     10  C   UNL     1       1.237   2.888  21.261  0.00  0.00    +0.000 A 
ATOM     11  C   UNL     1       0.907   3.714  20.190  0.00  0.00    +0.000 A 
ATOM     12  C   UNL     1       1.899   4.134  19.300  0.00  0.00    +0.000 A 
ENDBRANCH   4   7
BRANCH   1  13
ATOM     13  C   UNL     1       5.464   5.713  15.515  0.00  0.00    +0.000 C 
ATOM     14  O   UNL     1       5.121   6.889  15.391  0.00  0.00    +0.000 OA
BRANCH  13  20
ATOM     15  C   UNL     1       5.132   2.465  11.687  0.00  0.00    +0.000 C 
ATOM     16  C   UNL     1       5.919   3.479  12.464  0.00  0.00    +0.000 A 
ATOM     17  C   UNL     1       7.193   3.880  12.049  0.00  0.00    +0.000 A 
ATOM     18  C   UNL     1       7.904   4.839  12.772  0.00  0.00    +0.000 A 
ATOM     19  C   UNL     1       7.343   5.412  13.915  0.00  0.00    +0.000 A 
ATOM     20  C   UNL     1       6.073   5.014  14.349  0.00  0.00    +0.000 A 
ATOM     21  C   UNL     1       5.366   4.048  13.620  0.00  0.00    +0.000 A 
ENDBRANCH  13  20
ENDBRANCH   1  13
TORSDOF 3
ENDMDL
MODEL 6
REMARK VINA RESULT:      -8.2      4.410      7.313
REMARK  Name = 
REMARK  4 active torsions:
REMARK  status: ('A' for Active; 'I' for Inactive)
REMARK    1  A    between atoms: C_1  and  C_2
REMARK    2  A    between atoms: C_6  and  C_7
REMARK    3  A    between atoms: C_7  and  C_9
REMARK    4  A    between atoms: C_12  and  C_13
REMARK                            x       y       z     vdW  Elec       q    Type
REMARK                         _______ _______ _______ _____ _____    ______ ____
ROOT
ATOM      1  C   UNL     1       7.158   6.846  17.355  0.00  0.00    +0.000 A 
ATOM      2  C   UNL     1       7.828   6.400  18.473  0.00  0.00    +0.000 A 
ATOM      3  N   UNL     1       8.507   7.484  18.950  0.00  0.00    +0.000 N 
ATOM      4  C   UNL     1       8.205   8.569  18.158  0.00  0.00    +0.000 A 
ATOM      5  N   UNL     1       7.408   8.195  17.172  0.00  0.00    +0.000 NA
ATOM      6  H   UNL     1       9.085   7.510  19.777  0.00  0.00    +0.000 HD
ENDROOT
BRANCH   4   7
ATOM      7  C   UNL     1       8.666   9.929  18.442  0.00  0.00    +0.000 A 
ATOM      8  C   UNL     1       8.452  10.986  17.546  0.00  0.00    +0.000 A 
ATOM      9  C   UNL     1       8.939  12.267  17.825  0.00  0.00    +0.000 A 
ATOM     10  C   UNL     1       9.644  12.504  19.004  0.00  0.00    +0.000 A 
ATOM     11  C   UNL     1       9.853  11.466  19.909  0.00  0.00    +0.000 A 
ATOM     12  C   UNL     1       9.361  10.188  19.632  0.00  0.00    +0.000 A 
ENDBRANCH   4   7
BRANCH   1  13
ATOM     13  C   UNL     1       6.287   6.038  16.507  0.00  0.00    +0.000 C 
ATOM     14  O   UNL     1       6.601   5.732  15.357  0.00  0.00    +0.000 OA
BRANCH  13  20
ATOM     15  C   UNL     1       3.037   2.429  17.822  0.00  0.00    +0.000 C 
ATOM     16  C   UNL     1       3.385   3.884  17.711  0.00  0.00    +0.000 A 
ATOM     17  C   UNL     1       2.526   4.874  18.200  0.00  0.00    +0.000 A 
ATOM     18  C   UNL     1       2.874   6.223  18.107  0.00  0.00    +0.000 A 
ATOM     19  C   UNL     1       4.090   6.594  17.530  0.00  0.00    +0.000 A 
ATOM     20  C   UNL     1       4.957   5.616  17.027  0.00  0.00    +0.000 A 
ATOM     21  C   UNL     1       4.599   4.263  17.120  0.00  0.00    +0.000 A 
ENDBRANCH  13  20
ENDBRANCH   1  13
TORSDOF 3
ENDMDL
MODEL 7
REMARK VINA RESULT:      -8.0      4.400      7.459
REMARK  Name = 
REMARK  4 active torsions:
REMARK  status: ('A' for Active; 'I' for Inactive)
REMARK    1  A    between atoms: C_1  and  C_2
REMARK    2  A    between atoms: C_6  and  C_7
REMARK    3  A    between atoms: C_7  and  C_9
REMARK    4  A    between atoms: C_12  and  C_13
REMARK                            x       y       z     vdW  Elec       q    Type
REMARK                         _______ _______ _______ _____ _____    ______ ____
ROOT
ATOM      1  C   UNL     1       7.165   6.774  17.395  0.00  0.00    +0.000 A 
ATOM      2  C   UNL     1       7.825   6.348  18.527  0.00  0.00    +0.000 A 
ATOM      3  N   UNL     1       8.508   7.438  18.985  0.00  0.00    +0.000 N 
ATOM      4  C   UNL     1       8.219   8.507  18.168  0.00  0.00    +0.000 A 
ATOM      5  N   UNL     1       7.426   8.116  17.184  0.00  0.00    +0.000 NA
ATOM      6  H   UNL     1       9.080   7.478  19.815  0.00  0.00    +0.000 HD
ENDROOT
BRANCH   4   7
ATOM      7  C   UNL     1       8.686   9.869  18.425  0.00  0.00    +0.000 A 
ATOM      8  C   UNL     1       8.348  10.940  17.585  0.00  0.00    +0.000 A 
ATOM      9  C   UNL     1       8.843  12.225  17.833  0.00  0.00    +0.000 A 
ATOM     10  C   UNL     1       9.680  12.451  18.924  0.00  0.00    +0.000 A 
ATOM     11  C   UNL     1      10.014  11.399  19.774  0.00  0.00    +0.000 A 
ATOM     12  C   UNL     1       9.514  10.118  19.529  0.00  0.00    +0.000 A 
ENDBRANCH   4   7
BRANCH   1  13
ATOM     13  C   UNL     1       6.295   5.952  16.558  0.00  0.00    +0.000 C 
ATOM     14  O   UNL     1       6.551   5.730  15.375  0.00  0.00    +0.000 OA
BRANCH  13  20
ATOM     15  C   UNL     1       2.235   6.473  19.484  0.00  0.00    +0.000 C 
ATOM     16  C   UNL     1       3.039   5.660  18.513  0.00  0.00    +0.000 A 
ATOM     17  C   UNL     1       2.571   4.431  18.036  0.00  0.00    +0.000 A 
ATOM     18  C   UNL     1       3.322   3.695  17.117  0.00  0.00    +0.000 A 
ATOM     19  C   UNL     1       4.547   4.187  16.661  0.00  0.00    +0.000 A 
ATOM     20  C   UNL     1       5.034   5.411  17.137  0.00  0.00    +0.000 A 
ATOM     21  C   UNL     1       4.276   6.142  18.062  0.00  0.00    +0.000 A 
ENDBRANCH  13  20
ENDBRANCH   1  13
TORSDOF 3
ENDMDL
MODEL 8
REMARK VINA RESULT:      -8.0      1.719      6.957
REMARK  Name = 
REMARK  4 active torsions:
REMARK  status: ('A' for Active; 'I' for Inactive)
REMARK    1  A    between atoms: C_1  and  C_2
REMARK    2  A    between atoms: C_6  and  C_7
REMARK    3  A    between atoms: C_7  and  C_9
REMARK    4  A    between atoms: C_12  and  C_13
REMARK                            x       y       z     vdW  Elec       q    Type
REMARK                         _______ _______ _______ _____ _____    ______ ____
ROOT
ATOM      1  C   UNL     1       6.485   5.378  17.751  0.00  0.00    +0.000 A 
ATOM      2  C   UNL     1       7.301   6.409  17.339  0.00  0.00    +0.000 A 
ATOM      3  N   UNL     1       7.518   6.196  16.008  0.00  0.00    +0.000 N 
ATOM      4  C   UNL     1       6.802   5.085  15.623  0.00  0.00    +0.000 A 
ATOM      5  N   UNL     1       6.190   4.562  16.672  0.00  0.00    +0.000 NA
ATOM      6  H   UNL     1       8.060   6.782  15.391  0.00  0.00    +0.000 HD
ENDROOT
BRANCH   4   7
ATOM      7  C   UNL     1       6.707   4.626  14.237  0.00  0.00    +0.000 A 
ATOM      8  C   UNL     1       5.745   3.690  13.831  0.00  0.00    +0.000 A 
ATOM      9  C   UNL     1       5.703   3.239  12.507  0.00  0.00    +0.000 A 
ATOM     10  C   UNL     1       6.623   3.721  11.577  0.00  0.00    +0.000 A 
ATOM     11  C   UNL     1       7.576   4.660  11.964  0.00  0.00    +0.000 A 
ATOM     12  C   UNL     1       7.612   5.114  13.285  0.00  0.00    +0.000 A 
ENDBRANCH   4   7
BRANCH   1  13
ATOM     13  C   UNL     1       5.976   5.185  19.106  0.00  0.00    +0.000 C 
ATOM     14  O   UNL     1       6.727   5.107  20.077  0.00  0.00    +0.000 OA
BRANCH  13  20
ATOM     15  C   UNL     1       2.082   2.842  21.264  0.00  0.00    +0.000 C 
ATOM     16  C   UNL     1       2.613   3.934  20.382  0.00  0.00    +0.000 A 
ATOM     17  C   UNL     1       1.762   4.898  19.831  0.00  0.00    +0.000 A 
ATOM     18  C   UNL     1       2.275   5.920  19.029  0.00  0.00    +0.000 A 
ATOM     19  C   UNL     1       3.646   5.990  18.777  0.00  0.00    +0.000 A 
ATOM     20  C   UNL     1       4.510   5.027  19.313  0.00  0.00    +0.000 A 
ATOM     21  C   UNL     1       3.988   4.002  20.114  0.00  0.00    +0.000 A 
ENDBRANCH  13  20
ENDBRANCH   1  13
TORSDOF 3
ENDMDL
MODEL 9
REMARK VINA RESULT:      -8.0      1.692      6.802
REMARK  Name = 
REMARK  4 active torsions:
REMARK  status: ('A' for Active; 'I' for Inactive)
REMARK    1  A    between atoms: C_1  and  C_2
REMARK    2  A    between atoms: C_6  and  C_7
REMARK    3  A    between atoms: C_7  and  C_9
REMARK    4  A    between atoms: C_12  and  C_13
REMARK                            x       y       z     vdW  Elec       q    Type
REMARK                         _______ _______ _______ _____ _____    ______ ____
ROOT
ATOM      1  C   UNL     1       6.416   5.358  17.764  0.00  0.00    +0.000 A 
ATOM      2  C   UNL     1       7.191   6.438  17.401  0.00  0.00    +0.000 A 
ATOM      3  N   UNL     1       7.473   6.259  16.077  0.00  0.00    +0.000 N 
ATOM      4  C   UNL     1       6.833   5.119  15.647  0.00  0.00    +0.000 A 
ATOM      5  N   UNL     1       6.208   4.547  16.662  0.00  0.00    +0.000 NA
ATOM      6  H   UNL     1       8.006   6.884  15.491  0.00  0.00    +0.000 HD
ENDROOT
BRANCH   4   7
ATOM      7  C   UNL     1       6.818   4.679  14.251  0.00  0.00    +0.000 A 
ATOM      8  C   UNL     1       7.694   5.213  13.296  0.00  0.00    +0.000 A 
ATOM      9  C   UNL     1       7.629   4.803  11.961  0.00  0.00    +0.000 A 
ATOM     10  C   UNL     1       6.688   3.854  11.567  0.00  0.00    +0.000 A 
ATOM     11  C   UNL     1       5.819   3.305  12.508  0.00  0.00    +0.000 A 
ATOM     12  C   UNL     1       5.889   3.711  13.843  0.00  0.00    +0.000 A 
ENDBRANCH   4   7
BRANCH   1  13
ATOM     13  C   UNL     1       5.864   5.116  19.093  0.00  0.00    +0.000 C 
ATOM     14  O   UNL     1       6.578   5.063  20.094  0.00  0.00    +0.000 OA
BRANCH  13  20
ATOM     15  C   UNL     1       1.939   1.973  19.267  0.00  0.00    +0.000 C 
ATOM     16  C   UNL     1       2.494   3.363  19.369  0.00  0.00    +0.000 A 
ATOM     17  C   UNL     1       1.678   4.444  19.720  0.00  0.00    +0.000 A 
ATOM     18  C   UNL     1       2.214   5.729  19.830  0.00  0.00    +0.000 A 
ATOM     19  C   UNL     1       3.574   5.942  19.598  0.00  0.00    +0.000 A 
ATOM     20  C   UNL     1       4.402   4.872  19.238  0.00  0.00    +0.000 A 
ATOM     21  C   UNL     1       3.856   3.585  19.125  0.00  0.00    +0.000 A 
ENDBRANCH  13  20
ENDBRANCH   1  13
TORSDOF 3
ENDMDL
