MODEL 1
REMARK VINA RESULT:      -8.8      0.000      0.000
REMARK  Name = 
REMARK  9 active torsions:
REMARK  status: ('A' for Active; 'I' for Inactive)
REMARK    1  A    between atoms: C_1  and  C_2
REMARK    2  A    between atoms: C_2  and  C_3
REMARK    3  A    between atoms: C_6  and  C_7
REMARK    4  A    between atoms: C_7  and  C_8
REMARK    5  A    between atoms: C_10  and  C_11
REMARK    6  A    between atoms: C_17  and  O_18
REMARK    7  A    between atoms: C_19  and  O_20
REMARK    8  A    between atoms: C_21  and  O_22
REMARK    9  A    between atoms: C_25  and  C_26
REMARK                            x       y       z     vdW  Elec       q    Type
REMARK                         _______ _______ _______ _____ _____    ______ ____
ROOT
ATOM      1  C   UNL     1       1.377   9.145  19.153  0.00  0.00    +0.000 A 
ATOM      2  C   UNL     1       1.932   8.179  18.290  0.00  0.00    +0.000 A 
ATOM      3  C   UNL     1       2.238   6.882  18.722  0.00  0.00    +0.000 A 
ATOM      4  C   UNL     1       2.136   6.622  20.094  0.00  0.00    +0.000 A 
ATOM      5  C   UNL     1       1.611   7.568  20.972  0.00  0.00    +0.000 A 
ATOM      6  C   UNL     1       1.190   8.825  20.511  0.00  0.00    +0.000 A 
ATOM      7  C   UNL     1       0.549   9.778  21.489  0.00  0.00    +0.000 C 
ENDROOT
BRANCH   3   8
ATOM      8  C   UNL     1       2.708   5.840  17.720  0.00  0.00    +0.000 C 
ATOM      9  O   UNL     1       2.008   4.580  17.799  0.00  0.00    +0.000 OA
ATOM     10  C   UNL     1       2.338   3.651  18.889  0.00  0.00    +0.000 C 
ATOM     11  C   UNL     1       1.562   2.292  18.816  0.00  0.00    +0.000 C 
ATOM     12  N   UNL     1       0.529   2.865  19.699  0.00  0.00    +0.000 NA
ATOM     13  C   UNL     1       1.547   3.798  20.233  0.00  0.00    +0.000 C 
ATOM     14  C   UNL     1       3.850   3.392  19.016  0.00  0.00    +0.000 C 
ATOM     15  C   UNL     1       4.670   4.682  18.872  0.00  0.00    +0.000 C 
ATOM     16  C   UNL     1       4.215   5.510  17.656  0.00  0.00    +0.000 C 
ATOM     17  H   UNL     1       0.134   2.222  20.383  0.00  0.00    +0.000 HD
BRANCH  14  18
ATOM     18  O   UNL     1       4.266   2.437  18.023  0.00  0.00    +0.000 OA
ATOM     19  H   UNL     1       5.242   2.460  17.991  0.00  0.00    +0.000 HD
ENDBRANCH  14  18
BRANCH  15  20
ATOM     20  O   UNL     1       4.638   5.417  20.090  0.00  0.00    +0.000 OA
ATOM     21  H   UNL     1       4.400   4.801  20.804  0.00  0.00    +0.000 HD
ENDBRANCH  15  20
BRANCH  16  22
ATOM     22  O   UNL     1       4.499   4.742  16.461  0.00  0.00    +0.000 OA
ATOM     23  H   UNL     1       5.460   4.808  16.292  0.00  0.00    +0.000 HD
ENDBRANCH  16  22
ENDBRANCH   3   8
BRANCH   1  24
ATOM     24  C   UNL     1       0.911  10.451  18.546  0.00  0.00    +0.000 C 
BRANCH  24  28
ATOM     25  C   UNL     1      -3.279  11.046  17.641  0.00  0.00    +0.000 A 
ATOM     26  C   UNL     1      -2.664  11.837  18.613  0.00  0.00    +0.000 A 
ATOM     27  C   UNL     1      -1.334  11.611  18.964  0.00  0.00    +0.000 A 
ATOM     28  C   UNL     1      -0.587  10.594  18.352  0.00  0.00    +0.000 A 
ATOM     29  C   UNL     1      -1.234   9.757  17.433  0.00  0.00    +0.000 A 
ATOM     30  C   UNL     1      -2.568   9.977  17.083  0.00  0.00    +0.000 A 
BRANCH  25  32
ATOM     31  C   UNL     1      -5.714  11.028  18.119  0.00  0.00    +0.000 C 
ATOM     32  C   UNL     1      -4.638  11.422  17.113  0.00  0.00    +0.000 C 
ENDBRANCH  25  32
ENDBRANCH  24  28
ENDBRANCH   1  24
TORSDOF 7
ENDMDL
MODEL 2
REMARK VINA RESULT:      -8.7      5.142      7.566
REMARK  Name = 
REMARK  9 active torsions:
REMARK  status: ('A' for Active; 'I' for Inactive)
REMARK    1  A    between atoms: C_1  and  C_2
REMARK    2  A    between atoms: C_2  and  C_3
REMARK    3  A    between atoms: C_6  and  C_7
REMARK    4  A    between atoms: C_7  and  C_8
REMARK    5  A    between atoms: C_10  and  C_11
REMARK    6  A    between atoms: C_17  and  O_18
REMARK    7  A    between atoms: C_19  and  O_20
REMARK    8  A    between atoms: C_21  and  O_22
REMARK    9  A    between atoms: C_25  and  C_26
REMARK                            x       y       z     vdW  Elec       q    Type
REMARK                         _______ _______ _______ _____ _____    ______ ____
ROOT
ATOM      1  C   UNL     1       6.212   5.594  17.326  0.00  0.00    +0.000 A 
ATOM      2  C   UNL     1       4.847   5.251  17.279  0.00  0.00    +0.000 A 
ATOM      3  C   UNL     1       4.074   5.107  18.440  0.00  0.00    +0.000 A 
ATOM      4  C   UNL     1       4.747   5.144  19.667  0.00  0.00    +0.000 A 
ATOM      5  C   UNL     1       6.103   5.460  19.738  0.00  0.00    +0.000 A 
ATOM      6  C   UNL     1       6.845   5.726  18.577  0.00  0.00    +0.000 A 
ATOM      7  C   UNL     1       8.285   6.148  18.718  0.00  0.00    +0.000 C 
ENDROOT
BRANCH   3   8
ATOM      8  C   UNL     1       2.577   4.869  18.328  0.00  0.00    +0.000 C 
ATOM      9  O   UNL     1       1.947   4.456  19.560  0.00  0.00    +0.000 OA
ATOM     10  C   UNL     1       2.115   3.067  20.012  0.00  0.00    +0.000 C 
ATOM     11  C   UNL     1       1.320   2.730  21.320  0.00  0.00    +0.000 C 
ATOM     12  N   UNL     1       2.523   3.066  22.105  0.00  0.00    +0.000 NA
ATOM     13  C   UNL     1       3.349   2.743  20.920  0.00  0.00    +0.000 C 
ATOM     14  C   UNL     1       1.790   2.038  18.915  0.00  0.00    +0.000 C 
ATOM     15  C   UNL     1       2.370   2.445  17.552  0.00  0.00    +0.000 C 
ATOM     16  C   UNL     1       2.065   3.919  17.224  0.00  0.00    +0.000 C 
ATOM     17  H   UNL     1       2.691   2.478  22.919  0.00  0.00    +0.000 HD
BRANCH  14  18
ATOM     18  O   UNL     1       0.364   1.872  18.807  0.00  0.00    +0.000 OA
ATOM     19  H   UNL     1      -0.035   2.281  19.600  0.00  0.00    +0.000 HD
ENDBRANCH  14  18
BRANCH  15  20
ATOM     20  O   UNL     1       3.759   2.140  17.505  0.00  0.00    +0.000 OA
ATOM     21  H   UNL     1       4.224   2.774  18.077  0.00  0.00    +0.000 HD
ENDBRANCH  15  20
BRANCH  16  22
ATOM     22  O   UNL     1       0.629   4.057  17.085  0.00  0.00    +0.000 OA
ATOM     23  H   UNL     1       0.252   4.121  17.985  0.00  0.00    +0.000 HD
ENDBRANCH  16  22
ENDBRANCH   3   8
BRANCH   1  24
ATOM     24  C   UNL     1       6.907   5.908  16.018  0.00  0.00    +0.000 C 
BRANCH  24  28
ATOM     25  C   UNL     1       5.938   3.505  12.551  0.00  0.00    +0.000 A 
ATOM     26  C   UNL     1       5.169   3.385  13.710  0.00  0.00    +0.000 A 
ATOM     27  C   UNL     1       5.511   4.102  14.857  0.00  0.00    +0.000 A 
ATOM     28  C   UNL     1       6.624   4.955  14.872  0.00  0.00    +0.000 A 
ATOM     29  C   UNL     1       7.433   5.010  13.729  0.00  0.00    +0.000 A 
ATOM     30  C   UNL     1       7.096   4.290  12.580  0.00  0.00    +0.000 A 
BRANCH  25  32
ATOM     31  C   UNL     1       3.959   3.159  11.095  0.00  0.00    +0.000 C 
ATOM     32  C   UNL     1       5.453   2.903  11.259  0.00  0.00    +0.000 C 
ENDBRANCH  25  32
ENDBRANCH  24  28
ENDBRANCH   1  24
TORSDOF 7
ENDMDL
MODEL 3
REMARK VINA RESULT:      -8.7      0.375      1.009
REMARK  Name = 
REMARK  9 active torsions:
REMARK  status: ('A' for Active; 'I' for Inactive)
REMARK    1  A    between atoms: C_1  and  C_2
REMARK    2  A    between atoms: C_2  and  C_3
REMARK    3  A    between atoms: C_6  and  C_7
REMARK    4  A    between atoms: C_7  and  C_8
REMARK    5  A    between atoms: C_10  and  C_11
REMARK    6  A    between atoms: C_17  and  O_18
REMARK    7  A    between atoms: C_19  and  O_20
REMARK    8  A    between atoms: C_21  and  O_22
REMARK    9  A    between atoms: C_25  and  C_26
REMARK                            x       y       z     vdW  Elec       q    Type
REMARK                         _______ _______ _______ _____ _____    ______ ____
ROOT
ATOM      1  C   UNL     1       1.521   9.106  19.120  0.00  0.00    +0.000 A 
ATOM      2  C   UNL     1       2.023   8.079  18.297  0.00  0.00    +0.000 A 
ATOM      3  C   UNL     1       2.198   6.769  18.763  0.00  0.00    +0.000 A 
ATOM      4  C   UNL     1       2.020   6.546  20.134  0.00  0.00    +0.000 A 
ATOM      5  C   UNL     1       1.546   7.553  20.973  0.00  0.00    +0.000 A 
ATOM      6  C   UNL     1       1.254   8.832  20.475  0.00  0.00    +0.000 A 
ATOM      7  C   UNL     1       0.660   9.855  21.409  0.00  0.00    +0.000 C 
ENDROOT
BRANCH   3   8
ATOM      8  C   UNL     1       2.614   5.671  17.797  0.00  0.00    +0.000 C 
ATOM      9  O   UNL     1       1.954   4.406  18.016  0.00  0.00    +0.000 OA
ATOM     10  C   UNL     1       2.392   3.560  19.136  0.00  0.00    +0.000 C 
ATOM     11  C   UNL     1       1.646   2.183  19.216  0.00  0.00    +0.000 C 
ATOM     12  N   UNL     1       0.672   2.796  20.138  0.00  0.00    +0.000 NA
ATOM     13  C   UNL     1       1.704   3.783  20.526  0.00  0.00    +0.000 C 
ATOM     14  C   UNL     1       3.915   3.340  19.159  0.00  0.00    +0.000 C 
ATOM     15  C   UNL     1       4.689   4.633  18.865  0.00  0.00    +0.000 C 
ATOM     16  C   UNL     1       4.119   5.367  17.636  0.00  0.00    +0.000 C 
ATOM     17  H   UNL     1       0.348   2.193  20.893  0.00  0.00    +0.000 HD
BRANCH  14  18
ATOM     18  O   UNL     1       4.276   2.327  18.203  0.00  0.00    +0.000 OA
ATOM     19  H   UNL     1       4.291   1.473  18.677  0.00  0.00    +0.000 HD
ENDBRANCH  14  18
BRANCH  15  20
ATOM     20  O   UNL     1       4.734   5.449  20.030  0.00  0.00    +0.000 OA
ATOM     21  H   UNL     1       5.668   5.620  20.239  0.00  0.00    +0.000 HD
ENDBRANCH  15  20
BRANCH  16  22
ATOM     22  O   UNL     1       4.329   4.524  16.476  0.00  0.00    +0.000 OA
ATOM     23  H   UNL     1       4.101   5.053  15.686  0.00  0.00    +0.000 HD
ENDBRANCH  16  22
ENDBRANCH   3   8
BRANCH   1  24
ATOM     24  C   UNL     1       1.195  10.435  18.472  0.00  0.00    +0.000 C 
BRANCH  24  28
ATOM     25  C   UNL     1      -3.072  11.059  18.102  0.00  0.00    +0.000 A 
ATOM     26  C   UNL     1      -2.474   9.979  17.450  0.00  0.00    +0.000 A 
ATOM     27  C   UNL     1      -1.091   9.806  17.503  0.00  0.00    +0.000 A 
ATOM     28  C   UNL     1      -0.276  10.701  18.211  0.00  0.00    +0.000 A 
ATOM     29  C   UNL     1      -0.877  11.823  18.799  0.00  0.00    +0.000 A 
ATOM     30  C   UNL     1      -2.261  12.003  18.742  0.00  0.00    +0.000 A 
BRANCH  25  32
ATOM     31  C   UNL     1      -5.157  11.859  17.020  0.00  0.00    +0.000 C 
ATOM     32  C   UNL     1      -4.572  11.129  18.223  0.00  0.00    +0.000 C 
ENDBRANCH  25  32
ENDBRANCH  24  28
ENDBRANCH   1  24
TORSDOF 7
ENDMDL
MODEL 4
REMARK VINA RESULT:      -8.5      2.418      5.076
REMARK  Name = 
REMARK  9 active torsions:
REMARK  status: ('A' for Active; 'I' for Inactive)
REMARK    1  A    between atoms: C_1  and  C_2
REMARK    2  A    between atoms: C_2  and  C_3
REMARK    3  A    between atoms: C_6  and  C_7
REMARK    4  A    between atoms: C_7  and  C_8
REMARK    5  A    between atoms: C_10  and  C_11
REMARK    6  A    between atoms: C_17  and  O_18
REMARK    7  A    between atoms: C_19  and  O_20
REMARK    8  A    between atoms: C_21  and  O_22
REMARK    9  A    between atoms: C_25  and  C_26
REMARK                            x       y       z     vdW  Elec       q    Type
REMARK                         _______ _______ _______ _____ _____    ______ ____
ROOT
ATOM      1  C   UNL     1       2.733   4.414  19.445  0.00  0.00    +0.000 A 
ATOM      2  C   UNL     1       3.944   4.379  18.726  0.00  0.00    +0.000 A 
ATOM      3  C   UNL     1       4.110   3.583  17.585  0.00  0.00    +0.000 A 
ATOM      4  C   UNL     1       3.084   2.682  17.277  0.00  0.00    +0.000 A 
ATOM      5  C   UNL     1       1.885   2.681  17.987  0.00  0.00    +0.000 A 
ATOM      6  C   UNL     1       1.677   3.570  19.054  0.00  0.00    +0.000 A 
ATOM      7  C   UNL     1       0.329   3.587  19.730  0.00  0.00    +0.000 C 
ENDROOT
BRANCH   3   8
ATOM      8  C   UNL     1       5.389   3.685  16.770  0.00  0.00    +0.000 C 
ATOM      9  O   UNL     1       6.564   4.002  17.545  0.00  0.00    +0.000 OA
ATOM     10  C   UNL     1       6.765   5.387  17.997  0.00  0.00    +0.000 C 
ATOM     11  C   UNL     1       8.114   5.610  18.763  0.00  0.00    +0.000 C 
ATOM     12  N   UNL     1       7.404   5.363  20.031  0.00  0.00    +0.000 NA
ATOM     13  C   UNL     1       6.149   5.796  19.377  0.00  0.00    +0.000 C 
ATOM     14  C   UNL     1       6.625   6.413  16.859  0.00  0.00    +0.000 C 
ATOM     15  C   UNL     1       5.431   6.102  15.945  0.00  0.00    +0.000 C 
ATOM     16  C   UNL     1       5.402   4.616  15.538  0.00  0.00    +0.000 C 
ATOM     17  H   UNL     1       7.700   5.940  20.817  0.00  0.00    +0.000 HD
BRANCH  14  18
ATOM     18  O   UNL     1       7.836   6.449  16.083  0.00  0.00    +0.000 OA
ATOM     19  H   UNL     1       8.402   7.150  16.462  0.00  0.00    +0.000 HD
ENDBRANCH  14  18
BRANCH  15  20
ATOM     20  O   UNL     1       4.223   6.535  16.559  0.00  0.00    +0.000 OA
ATOM     21  H   UNL     1       4.344   7.459  16.837  0.00  0.00    +0.000 HD
ENDBRANCH  15  20
BRANCH  16  22
ATOM     22  O   UNL     1       6.578   4.350  14.734  0.00  0.00    +0.000 OA
ATOM     23  H   UNL     1       7.295   4.085  15.343  0.00  0.00    +0.000 HD
ENDBRANCH  16  22
ENDBRANCH   3   8
BRANCH   1  24
ATOM     24  C   UNL     1       2.595   5.443  20.547  0.00  0.00    +0.000 C 
BRANCH  24  28
ATOM     25  C   UNL     1       1.126   9.300  19.245  0.00  0.00    +0.000 A 
ATOM     26  C   UNL     1       1.863   8.509  18.362  0.00  0.00    +0.000 A 
ATOM     27  C   UNL     1       2.401   7.295  18.789  0.00  0.00    +0.000 A 
ATOM     28  C   UNL     1       2.214   6.843  20.103  0.00  0.00    +0.000 A 
ATOM     29  C   UNL     1       1.538   7.679  21.002  0.00  0.00    +0.000 A 
ATOM     30  C   UNL     1       1.002   8.898  20.580  0.00  0.00    +0.000 A 
BRANCH  25  32
ATOM     31  C   UNL     1      -0.876  10.044  17.981  0.00  0.00    +0.000 C 
ATOM     32  C   UNL     1       0.370  10.498  18.733  0.00  0.00    +0.000 C 
ENDBRANCH  25  32
ENDBRANCH  24  28
ENDBRANCH   1  24
TORSDOF 7
ENDMDL
MODEL 5
REMARK VINA RESULT:      -8.4      5.172      7.785
REMARK  Name = 
REMARK  9 active torsions:
REMARK  status: ('A' for Active; 'I' for Inactive)
REMARK    1  A    between atoms: C_1  and  C_2
REMARK    2  A    between atoms: C_2  and  C_3
REMARK    3  A    between atoms: C_6  and  C_7
REMARK    4  A    between atoms: C_7  and  C_8
REMARK    5  A    between atoms: C_10  and  C_11
REMARK    6  A    between atoms: C_17  and  O_18
REMARK    7  A    between atoms: C_19  and  O_20
REMARK    8  A    between atoms: C_21  and  O_22
REMARK    9  A    between atoms: C_25  and  C_26
REMARK                            x       y       z     vdW  Elec       q    Type
REMARK                         _______ _______ _______ _____ _____    ______ ____
ROOT
ATOM      1  C   UNL     1       6.229   5.655  17.301  0.00  0.00    +0.000 A 
ATOM      2  C   UNL     1       4.863   5.318  17.238  0.00  0.00    +0.000 A 
ATOM      3  C   UNL     1       4.105   5.063  18.389  0.00  0.00    +0.000 A 
ATOM      4  C   UNL     1       4.793   4.983  19.605  0.00  0.00    +0.000 A 
ATOM      5  C   UNL     1       6.150   5.290  19.690  0.00  0.00    +0.000 A 
ATOM      6  C   UNL     1       6.878   5.666  18.550  0.00  0.00    +0.000 A 
ATOM      7  C   UNL     1       8.320   6.072  18.713  0.00  0.00    +0.000 C 
ENDROOT
BRANCH   3   8
ATOM      8  C   UNL     1       2.606   4.838  18.274  0.00  0.00    +0.000 C 
ATOM      9  O   UNL     1       1.966   4.453  19.509  0.00  0.00    +0.000 OA
ATOM     10  C   UNL     1       2.118   3.072  19.989  0.00  0.00    +0.000 C 
ATOM     11  C   UNL     1       1.313   2.768  21.299  0.00  0.00    +0.000 C 
ATOM     12  N   UNL     1       2.515   3.108  22.084  0.00  0.00    +0.000 NA
ATOM     13  C   UNL     1       3.344   2.754  20.910  0.00  0.00    +0.000 C 
ATOM     14  C   UNL     1       1.789   2.025  18.910  0.00  0.00    +0.000 C 
ATOM     15  C   UNL     1       2.381   2.401  17.543  0.00  0.00    +0.000 C 
ATOM     16  C   UNL     1       2.091   3.871  17.185  0.00  0.00    +0.000 C 
ATOM     17  H   UNL     1       2.673   2.534  22.910  0.00  0.00    +0.000 HD
BRANCH  14  18
ATOM     18  O   UNL     1       0.363   1.871  18.798  0.00  0.00    +0.000 OA
ATOM     19  H   UNL     1      -0.032   2.760  18.891  0.00  0.00    +0.000 HD
ENDBRANCH  14  18
BRANCH  15  20
ATOM     20  O   UNL     1       3.766   2.082  17.509  0.00  0.00    +0.000 OA
ATOM     21  H   UNL     1       4.011   1.913  16.582  0.00  0.00    +0.000 HD
ENDBRANCH  15  20
BRANCH  16  22
ATOM     22  O   UNL     1       0.657   4.020  17.035  0.00  0.00    +0.000 OA
ATOM     23  H   UNL     1       0.429   3.747  16.124  0.00  0.00    +0.000 HD
ENDBRANCH  16  22
ENDBRANCH   3   8
BRANCH   1  24
ATOM     24  C   UNL     1       6.909   6.092  16.020  0.00  0.00    +0.000 C 
BRANCH  24  28
ATOM     25  C   UNL     1       6.018   3.468  12.696  0.00  0.00    +0.000 A 
ATOM     26  C   UNL     1       7.198   4.213  12.689  0.00  0.00    +0.000 A 
ATOM     27  C   UNL     1       7.465   5.114  13.719  0.00  0.00    +0.000 A 
ATOM     28  C   UNL     1       6.565   5.289  14.780  0.00  0.00    +0.000 A 
ATOM     29  C   UNL     1       5.349   4.593  14.739  0.00  0.00    +0.000 A 
ATOM     30  C   UNL     1       5.075   3.694  13.706  0.00  0.00    +0.000 A 
BRANCH  25  32
ATOM     31  C   UNL     1       7.176   1.920  11.140  0.00  0.00    +0.000 C 
ATOM     32  C   UNL     1       5.827   2.349  11.706  0.00  0.00    +0.000 C 
ENDBRANCH  25  32
ENDBRANCH  24  28
ENDBRANCH   1  24
TORSDOF 7
ENDMDL
MODEL 6
REMARK VINA RESULT:      -8.1      1.603      2.938
REMARK  Name = 
REMARK  9 active torsions:
REMARK  status: ('A' for Active; 'I' for Inactive)
REMARK    1  A    between atoms: C_1  and  C_2
REMARK    2  A    between atoms: C_2  and  C_3
REMARK    3  A    between atoms: C_6  and  C_7
REMARK    4  A    between atoms: C_7  and  C_8
REMARK    5  A    between atoms: C_10  and  C_11
REMARK    6  A    between atoms: C_17  and  O_18
REMARK    7  A    between atoms: C_19  and  O_20
REMARK    8  A    between atoms: C_21  and  O_22
REMARK    9  A    between atoms: C_25  and  C_26
REMARK                            x       y       z     vdW  Elec       q    Type
REMARK                         _______ _______ _______ _____ _____    ______ ____
ROOT
ATOM      1  C   UNL     1       1.330   8.742  19.439  0.00  0.00    +0.000 A 
ATOM      2  C   UNL     1       1.227   7.447  19.986  0.00  0.00    +0.000 A 
ATOM      3  C   UNL     1       2.065   6.399  19.580  0.00  0.00    +0.000 A 
ATOM      4  C   UNL     1       2.899   6.633  18.480  0.00  0.00    +0.000 A 
ATOM      5  C   UNL     1       3.001   7.899  17.907  0.00  0.00    +0.000 A 
ATOM      6  C   UNL     1       2.250   8.978  18.400  0.00  0.00    +0.000 A 
ATOM      7  C   UNL     1       2.465  10.344  17.800  0.00  0.00    +0.000 C 
ENDROOT
BRANCH   3   8
ATOM      8  C   UNL     1       2.003   5.060  20.297  0.00  0.00    +0.000 C 
ATOM      9  O   UNL     1       3.239   4.316  20.274  0.00  0.00    +0.000 OA
ATOM     10  C   UNL     1       3.625   3.616  19.040  0.00  0.00    +0.000 C 
ATOM     11  C   UNL     1       4.949   2.786  19.174  0.00  0.00    +0.000 C 
ATOM     12  N   UNL     1       5.698   3.953  18.674  0.00  0.00    +0.000 NA
ATOM     13  C   UNL     1       4.469   4.411  17.988  0.00  0.00    +0.000 C 
ATOM     14  C   UNL     1       2.499   2.730  18.479  0.00  0.00    +0.000 C 
ATOM     15  C   UNL     1       1.133   3.430  18.534  0.00  0.00    +0.000 C 
ATOM     16  C   UNL     1       0.881   4.072  19.911  0.00  0.00    +0.000 C 
ATOM     17  H   UNL     1       6.480   3.738  18.057  0.00  0.00    +0.000 HD
BRANCH  14  18
ATOM     18  O   UNL     1       2.441   1.492  19.211  0.00  0.00    +0.000 OA
ATOM     19  H   UNL     1       2.329   0.774  18.557  0.00  0.00    +0.000 HD
ENDBRANCH  14  18
BRANCH  15  20
ATOM     20  O   UNL     1       1.017   4.354  17.459  0.00  0.00    +0.000 OA
ATOM     21  H   UNL     1       1.865   4.823  17.375  0.00  0.00    +0.000 HD
ENDBRANCH  15  20
BRANCH  16  22
ATOM     22  O   UNL     1       0.804   3.008  20.892  0.00  0.00    +0.000 OA
ATOM     23  H   UNL     1      -0.098   3.022  21.269  0.00  0.00    +0.000 HD
ENDBRANCH  16  22
ENDBRANCH   3   8
BRANCH   1  24
ATOM     24  C   UNL     1       0.511   9.844  20.075  0.00  0.00    +0.000 C 
BRANCH  24  28
ATOM     25  C   UNL     1      -2.991  11.233  17.945  0.00  0.00    +0.000 A 
ATOM     26  C   UNL     1      -2.241  10.177  17.425  0.00  0.00    +0.000 A 
ATOM     27  C   UNL     1      -1.072   9.764  18.064  0.00  0.00    +0.000 A 
ATOM     28  C   UNL     1      -0.628  10.393  19.236  0.00  0.00    +0.000 A 
ATOM     29  C   UNL     1      -1.346  11.500  19.708  0.00  0.00    +0.000 A 
ATOM     30  C   UNL     1      -2.514  11.919  19.068  0.00  0.00    +0.000 A 
BRANCH  25  32
ATOM     31  C   UNL     1      -5.430  10.874  18.234  0.00  0.00    +0.000 C 
ATOM     32  C   UNL     1      -4.354  11.539  17.382  0.00  0.00    +0.000 C 
ENDBRANCH  25  32
ENDBRANCH  24  28
ENDBRANCH   1  24
TORSDOF 7
ENDMDL
MODEL 7
REMARK VINA RESULT:      -8.1      4.980      7.985
REMARK  Name = 
REMARK  9 active torsions:
REMARK  status: ('A' for Active; 'I' for Inactive)
REMARK    1  A    between atoms: C_1  and  C_2
REMARK    2  A    between atoms: C_2  and  C_3
REMARK    3  A    between atoms: C_6  and  C_7
REMARK    4  A    between atoms: C_7  and  C_8
REMARK    5  A    between atoms: C_10  and  C_11
REMARK    6  A    between atoms: C_17  and  O_18
REMARK    7  A    between atoms: C_19  and  O_20
REMARK    8  A    between atoms: C_21  and  O_22
REMARK    9  A    between atoms: C_25  and  C_26
REMARK                            x       y       z     vdW  Elec       q    Type
REMARK                         _______ _______ _______ _____ _____    ______ ____
ROOT
ATOM      1  C   UNL     1       6.407   5.610  16.434  0.00  0.00    +0.000 A 
ATOM      2  C   UNL     1       5.331   4.710  16.561  0.00  0.00    +0.000 A 
ATOM      3  C   UNL     1       4.270   4.938  17.449  0.00  0.00    +0.000 A 
ATOM      4  C   UNL     1       4.399   6.011  18.340  0.00  0.00    +0.000 A 
ATOM      5  C   UNL     1       5.466   6.902  18.248  0.00  0.00    +0.000 A 
ATOM      6  C   UNL     1       6.462   6.738  17.273  0.00  0.00    +0.000 A 
ATOM      7  C   UNL     1       7.546   7.781  17.162  0.00  0.00    +0.000 C 
ENDROOT
BRANCH   3   8
ATOM      8  C   UNL     1       3.069   4.006  17.450  0.00  0.00    +0.000 C 
ATOM      9  O   UNL     1       2.024   4.384  18.370  0.00  0.00    +0.000 OA
ATOM     10  C   UNL     1       2.208   4.118  19.804  0.00  0.00    +0.000 C 
ATOM     11  C   UNL     1       0.969   4.508  20.682  0.00  0.00    +0.000 C 
ATOM     12  N   UNL     1       1.583   5.829  20.911  0.00  0.00    +0.000 NA
ATOM     13  C   UNL     1       2.910   5.222  20.664  0.00  0.00    +0.000 C 
ATOM     14  C   UNL     1       2.625   2.665  20.092  0.00  0.00    +0.000 C 
ATOM     15  C   UNL     1       3.691   2.164  19.106  0.00  0.00    +0.000 C 
ATOM     16  C   UNL     1       3.313   2.494  17.650  0.00  0.00    +0.000 C 
ATOM     17  H   UNL     1       1.453   6.214  21.845  0.00  0.00    +0.000 HD
BRANCH  14  18
ATOM     18  O   UNL     1       1.472   1.806  20.041  0.00  0.00    +0.000 OA
ATOM     19  H   UNL     1       1.680   1.009  20.566  0.00  0.00    +0.000 HD
ENDBRANCH  14  18
BRANCH  15  20
ATOM     20  O   UNL     1       4.970   2.664  19.477  0.00  0.00    +0.000 OA
ATOM     21  H   UNL     1       5.629   2.273  18.878  0.00  0.00    +0.000 HD
ENDBRANCH  15  20
BRANCH  16  22
ATOM     22  O   UNL     1       2.112   1.755  17.321  0.00  0.00    +0.000 OA
ATOM     23  H   UNL     1       1.873   1.980  16.400  0.00  0.00    +0.000 HD
ENDBRANCH  16  22
ENDBRANCH   3   8
BRANCH   1  24
ATOM     24  C   UNL     1       7.402   5.367  15.318  0.00  0.00    +0.000 C 
BRANCH  24  28
ATOM     25  C   UNL     1       5.893   3.126  11.937  0.00  0.00    +0.000 A 
ATOM     26  C   UNL     1       7.149   3.731  11.858  0.00  0.00    +0.000 A 
ATOM     27  C   UNL     1       7.618   4.513  12.913  0.00  0.00    +0.000 A 
ATOM     28  C   UNL     1       6.849   4.707  14.069  0.00  0.00    +0.000 A 
ATOM     29  C   UNL     1       5.559   4.158  14.107  0.00  0.00    +0.000 A 
ATOM     30  C   UNL     1       5.084   3.379  13.050  0.00  0.00    +0.000 A 
BRANCH  25  32
ATOM     31  C   UNL     1       6.301   0.843  11.054  0.00  0.00    +0.000 C 
ATOM     32  C   UNL     1       5.477   2.116  10.900  0.00  0.00    +0.000 C 
ENDBRANCH  25  32
ENDBRANCH  24  28
ENDBRANCH   1  24
TORSDOF 7
ENDMDL
MODEL 8
REMARK VINA RESULT:      -8.0      5.423      7.680
REMARK  Name = 
REMARK  9 active torsions:
REMARK  status: ('A' for Active; 'I' for Inactive)
REMARK    1  A    between atoms: C_1  and  C_2
REMARK    2  A    between atoms: C_2  and  C_3
REMARK    3  A    between atoms: C_6  and  C_7
REMARK    4  A    between atoms: C_7  and  C_8
REMARK    5  A    between atoms: C_10  and  C_11
REMARK    6  A    between atoms: C_17  and  O_18
REMARK    7  A    between atoms: C_19  and  O_20
REMARK    8  A    between atoms: C_21  and  O_22
REMARK    9  A    between atoms: C_25  and  C_26
REMARK                            x       y       z     vdW  Elec       q    Type
REMARK                         _______ _______ _______ _____ _____    ______ ____
ROOT
ATOM      1  C   UNL     1      -3.567  11.202  17.463  0.00  0.00    +0.000 A 
ATOM      2  C   UNL     1      -2.898  11.331  18.697  0.00  0.00    +0.000 A 
ATOM      3  C   UNL     1      -1.617  10.803  18.908  0.00  0.00    +0.000 A 
ATOM      4  C   UNL     1      -1.087   9.984  17.904  0.00  0.00    +0.000 A 
ATOM      5  C   UNL     1      -1.740   9.822  16.684  0.00  0.00    +0.000 A 
ATOM      6  C   UNL     1      -2.966  10.456  16.431  0.00  0.00    +0.000 A 
ATOM      7  C   UNL     1      -3.586  10.318  15.063  0.00  0.00    +0.000 C 
ENDROOT
BRANCH   3   8
ATOM      8  C   UNL     1      -0.886  11.087  20.211  0.00  0.00    +0.000 C 
ATOM      9  O   UNL     1      -0.895  12.475  20.607  0.00  0.00    +0.000 OA
ATOM     10  C   UNL     1       0.002  13.416  19.920  0.00  0.00    +0.000 C 
ATOM     11  C   UNL     1      -0.052  14.873  20.496  0.00  0.00    +0.000 C 
ATOM     12  N   UNL     1      -1.073  15.205  19.486  0.00  0.00    +0.000 NA
ATOM     13  C   UNL     1      -0.536  14.123  18.631  0.00  0.00    +0.000 C 
ATOM     14  C   UNL     1       1.458  12.921  19.867  0.00  0.00    +0.000 C 
ATOM     15  C   UNL     1       1.548  11.428  19.517  0.00  0.00    +0.000 C 
ATOM     16  C   UNL     1       0.568  10.590  20.360  0.00  0.00    +0.000 C 
ATOM     17  H   UNL     1      -1.006  16.140  19.089  0.00  0.00    +0.000 HD
BRANCH  14  18
ATOM     18  O   UNL     1       2.104  13.166  21.129  0.00  0.00    +0.000 OA
ATOM     19  H   UNL     1       1.413  13.456  21.756  0.00  0.00    +0.000 HD
ENDBRANCH  14  18
BRANCH  15  20
ATOM     20  O   UNL     1       1.376  11.246  18.117  0.00  0.00    +0.000 OA
ATOM     21  H   UNL     1       1.286  12.125  17.710  0.00  0.00    +0.000 HD
ENDBRANCH  15  20
BRANCH  16  22
ATOM     22  O   UNL     1       0.979  10.683  21.747  0.00  0.00    +0.000 OA
ATOM     23  H   UNL     1       0.967  11.629  21.992  0.00  0.00    +0.000 HD
ENDBRANCH  16  22
ENDBRANCH   3   8
BRANCH   1  24
ATOM     24  C   UNL     1      -4.860  11.967  17.278  0.00  0.00    +0.000 C 
BRANCH  24  28
ATOM     25  C   UNL     1      -7.309  11.773  20.841  0.00  0.00    +0.000 A 
ATOM     26  C   UNL     1      -7.282  10.687  19.963  0.00  0.00    +0.000 A 
ATOM     27  C   UNL     1      -6.552  10.763  18.777  0.00  0.00    +0.000 A 
ATOM     28  C   UNL     1      -5.832  11.918  18.442  0.00  0.00    +0.000 A 
ATOM     29  C   UNL     1      -5.926  13.028  19.293  0.00  0.00    +0.000 A 
ATOM     30  C   UNL     1      -6.661  12.958  20.479  0.00  0.00    +0.000 A 
BRANCH  25  32
ATOM     31  C   UNL     1      -7.795  12.927  22.983  0.00  0.00    +0.000 C 
ATOM     32  C   UNL     1      -7.917  11.618  22.211  0.00  0.00    +0.000 C 
ENDBRANCH  25  32
ENDBRANCH  24  28
ENDBRANCH   1  24
TORSDOF 7
ENDMDL
MODEL 9
REMARK VINA RESULT:      -7.9      1.688      2.897
REMARK  Name = 
REMARK  9 active torsions:
REMARK  status: ('A' for Active; 'I' for Inactive)
REMARK    1  A    between atoms: C_1  and  C_2
REMARK    2  A    between atoms: C_2  and  C_3
REMARK    3  A    between atoms: C_6  and  C_7
REMARK    4  A    between atoms: C_7  and  C_8
REMARK    5  A    between atoms: C_10  and  C_11
REMARK    6  A    between atoms: C_17  and  O_18
REMARK    7  A    between atoms: C_19  and  O_20
REMARK    8  A    between atoms: C_21  and  O_22
REMARK    9  A    between atoms: C_25  and  C_26
REMARK                            x       y       z     vdW  Elec       q    Type
REMARK                         _______ _______ _______ _____ _____    ______ ____
ROOT
ATOM      1  C   UNL     1       1.505   8.711  19.251  0.00  0.00    +0.000 A 
ATOM      2  C   UNL     1       1.351   7.442  19.843  0.00  0.00    +0.000 A 
ATOM      3  C   UNL     1       2.171   6.358  19.504  0.00  0.00    +0.000 A 
ATOM      4  C   UNL     1       3.044   6.527  18.423  0.00  0.00    +0.000 A 
ATOM      5  C   UNL     1       3.198   7.767  17.806  0.00  0.00    +0.000 A 
ATOM      6  C   UNL     1       2.462   8.883  18.233  0.00  0.00    +0.000 A 
ATOM      7  C   UNL     1       2.732  10.220  17.589  0.00  0.00    +0.000 C 
ENDROOT
BRANCH   3   8
ATOM      8  C   UNL     1       2.052   5.050  20.269  0.00  0.00    +0.000 C 
ATOM      9  O   UNL     1       3.252   4.249  20.268  0.00  0.00    +0.000 OA
ATOM     10  C   UNL     1       3.599   3.488  19.059  0.00  0.00    +0.000 C 
ATOM     11  C   UNL     1       4.883   2.603  19.217  0.00  0.00    +0.000 C 
ATOM     12  N   UNL     1       5.683   3.715  18.672  0.00  0.00    +0.000 NA
ATOM     13  C   UNL     1       4.472   4.205  17.975  0.00  0.00    +0.000 C 
ATOM     14  C   UNL     1       2.429   2.635  18.535  0.00  0.00    +0.000 C 
ATOM     15  C   UNL     1       1.098   3.400  18.569  0.00  0.00    +0.000 C 
ATOM     16  C   UNL     1       0.883   4.101  19.924  0.00  0.00    +0.000 C 
ATOM     17  H   UNL     1       6.450   3.442  18.060  0.00  0.00    +0.000 HD
BRANCH  14  18
ATOM     18  O   UNL     1       2.319   1.428  19.310  0.00  0.00    +0.000 OA
ATOM     19  H   UNL     1       3.225   1.152  19.546  0.00  0.00    +0.000 HD
ENDBRANCH  14  18
BRANCH  15  20
ATOM     20  O   UNL     1       1.019   4.289  17.462  0.00  0.00    +0.000 OA
ATOM     21  H   UNL     1       0.340   3.950  16.853  0.00  0.00    +0.000 HD
ENDBRANCH  15  20
BRANCH  16  22
ATOM     22  O   UNL     1       0.763   3.079  20.943  0.00  0.00    +0.000 OA
ATOM     23  H   UNL     1      -0.110   2.653  20.828  0.00  0.00    +0.000 HD
ENDBRANCH  16  22
ENDBRANCH   3   8
BRANCH   1  24
ATOM     24  C   UNL     1       0.697   9.859  19.819  0.00  0.00    +0.000 C 
BRANCH  24  28
ATOM     25  C   UNL     1      -2.808  10.965  17.533  0.00  0.00    +0.000 A 
ATOM     26  C   UNL     1      -2.591  11.542  18.785  0.00  0.00    +0.000 A 
ATOM     27  C   UNL     1      -1.504  11.144  19.563  0.00  0.00    +0.000 A 
ATOM     28  C   UNL     1      -0.608  10.167  19.108  0.00  0.00    +0.000 A 
ATOM     29  C   UNL     1      -0.876   9.539  17.883  0.00  0.00    +0.000 A 
ATOM     30  C   UNL     1      -1.967   9.931  17.105  0.00  0.00    +0.000 A 
BRANCH  25  32
ATOM     31  C   UNL     1      -3.866  10.761  15.297  0.00  0.00    +0.000 C 
ATOM     32  C   UNL     1      -3.849  11.539  16.608  0.00  0.00    +0.000 C 
ENDBRANCH  25  32
ENDBRANCH  24  28
ENDBRANCH   1  24
TORSDOF 7
ENDMDL
