MODEL 1
REMARK VINA RESULT:      -8.4      0.000      0.000
REMARK  Name = 
REMARK  14 active torsions:
REMARK  status: ('A' for Active; 'I' for Inactive)
REMARK    1  A    between atoms: C_1  and  C_2
REMARK    2  A    between atoms: C_2  and  C_3
REMARK    3  A    between atoms: C_3  and  C_4
REMARK    4  A    between atoms: C_3  and  C_5
REMARK    5  A    between atoms: C_5  and  N_6
REMARK    6  A    between atoms: C_5  and  C_7
REMARK    7  A    between atoms: C_7  and  N_8
REMARK    8  A    between atoms: N_8  and  C_21
REMARK    9  A    between atoms: C_9  and  C_11
REMARK   10  A    between atoms: C_13  and  C_14
REMARK   11  A    between atoms: C_24  and  C_25
REMARK   12  A    between atoms: C_28  and  C_29
REMARK   13  A    between atoms: C_29  and  O_30
REMARK   14  A    between atoms: O_30  and  C_31
REMARK                            x       y       z     vdW  Elec       q    Type
REMARK                         _______ _______ _______ _____ _____    ______ ____
ROOT
ATOM      1  N   UNL     1       6.264   5.173  17.047  0.00  0.00    +0.000 N 
ATOM      2  C   UNL     1       4.877   5.028  17.278  0.00  0.00    +0.000 C 
ATOM      3  O   UNL     1       4.191   4.199  16.678  0.00  0.00    +0.000 OA
ENDROOT
BRANCH   1   4
ATOM      4  C   UNL     1       6.958   6.340  17.475  0.00  0.00    +0.000 A 
ATOM      5  C   UNL     1       6.664   7.574  16.897  0.00  0.00    +0.000 A 
ATOM      6  C   UNL     1       7.338   8.729  17.316  0.00  0.00    +0.000 A 
ATOM      7  C   UNL     1       8.290   8.697  18.352  0.00  0.00    +0.000 A 
ATOM      8  C   UNL     1       8.525   7.445  18.954  0.00  0.00    +0.000 A 
ATOM      9  C   UNL     1       7.883   6.281  18.516  0.00  0.00    +0.000 A 
BRANCH   7  10
ATOM     10  C   UNL     1       9.043   9.912  18.760  0.00  0.00    +0.000 A 
ATOM     11  C   UNL     1       9.722  10.721  17.831  0.00  0.00    +0.000 A 
ATOM     12  C   UNL     1      10.477  11.832  18.235  0.00  0.00    +0.000 A 
ATOM     13  C   UNL     1      10.567  12.183  19.586  0.00  0.00    +0.000 A 
ATOM     14  C   UNL     1       9.882  11.405  20.520  0.00  0.00    +0.000 A 
ATOM     15  C   UNL     1       9.139  10.289  20.113  0.00  0.00    +0.000 A 
BRANCH  13  16
ATOM     16  C   UNL     1      11.416  13.346  20.029  0.00  0.00    +0.000 C 
BRANCH  16  17
ATOM     17  O   UNL     1      11.145  14.479  19.206  0.00  0.00    +0.000 OA
ATOM     18  C   UNL     1      10.045  15.229  19.701  0.00  0.00    +0.000 C 
ENDBRANCH  16  17
ENDBRANCH  13  16
ENDBRANCH   7  10
ENDBRANCH   1   4
BRANCH   2  19
ATOM     19  C   UNL     1       4.247   5.849  18.396  0.00  0.00    +0.000 C 
ATOM     20  C   UNL     1       3.692   5.168  19.628  0.00  0.00    +0.000 C 
ATOM     21  C   UNL     1       2.739   5.877  18.695  0.00  0.00    +0.000 C 
BRANCH  21  22
ATOM     22  C   UNL     1       2.098   7.192  19.143  0.00  0.00    +0.000 A 
ATOM     23  C   UNL     1       1.686   7.418  20.467  0.00  0.00    +0.000 A 
ATOM     24  C   UNL     1       1.189   8.670  20.853  0.00  0.00    +0.000 A 
ATOM     25  C   UNL     1       1.099   9.670  19.900  0.00  0.00    +0.000 A 
ATOM     26  F   UNL     1       0.658  10.890  20.229  0.00  0.00    +0.000 F 
ATOM     27  C   UNL     1       1.482   9.379  18.607  0.00  0.00    +0.000 A 
ATOM     28  N   UNL     1       1.969   8.176  18.210  0.00  0.00    +0.000 NA
ENDBRANCH  21  22
ENDBRANCH   2  19
BRANCH   1  29
ATOM     29  C   UNL     1       6.991   4.376  16.014  0.00  0.00    +0.000 C 
BRANCH  29  30
ATOM     30  C   UNL     1       6.855   4.901  14.552  0.00  0.00    +0.000 C 
BRANCH  30  31
ATOM     31  N   UNL     1       8.081   5.582  14.103  0.00  0.00    +0.000 NA
ATOM     32  H   UNL     1       8.128   5.591  13.085  0.00  0.00    +0.000 HD
ATOM     33  H   UNL     1       8.891   5.019  14.384  0.00  0.00    +0.000 HD
ENDBRANCH  30  31
BRANCH  30  34
ATOM     34  C   UNL     1       6.418   3.827  13.484  0.00  0.00    +0.000 C 
ATOM     35  C   UNL     1       7.236   3.956  12.189  0.00  0.00    +0.000 C 
BRANCH  34  37
ATOM     36  C   UNL     1       4.615   3.283  11.727  0.00  0.00    +0.000 C 
ATOM     37  C   UNL     1       4.905   3.771  13.153  0.00  0.00    +0.000 C 
ENDBRANCH  34  37
ENDBRANCH  30  34
ENDBRANCH  29  30
ENDBRANCH   1  29
TORSDOF 11
ENDMDL
MODEL 2
REMARK VINA RESULT:      -8.4      0.596      1.445
REMARK  Name = 
REMARK  14 active torsions:
REMARK  status: ('A' for Active; 'I' for Inactive)
REMARK    1  A    between atoms: C_1  and  C_2
REMARK    2  A    between atoms: C_2  and  C_3
REMARK    3  A    between atoms: C_3  and  C_4
REMARK    4  A    between atoms: C_3  and  C_5
REMARK    5  A    between atoms: C_5  and  N_6
REMARK    6  A    between atoms: C_5  and  C_7
REMARK    7  A    between atoms: C_7  and  N_8
REMARK    8  A    between atoms: N_8  and  C_21
REMARK    9  A    between atoms: C_9  and  C_11
REMARK   10  A    between atoms: C_13  and  C_14
REMARK   11  A    between atoms: C_24  and  C_25
REMARK   12  A    between atoms: C_28  and  C_29
REMARK   13  A    between atoms: C_29  and  O_30
REMARK   14  A    between atoms: O_30  and  C_31
REMARK                            x       y       z     vdW  Elec       q    Type
REMARK                         _______ _______ _______ _____ _____    ______ ____
ROOT
ATOM      1  N   UNL     1       6.251   5.141  17.008  0.00  0.00    +0.000 N 
ATOM      2  C   UNL     1       4.864   4.961  17.214  0.00  0.00    +0.000 C 
ATOM      3  O   UNL     1       4.212   4.108  16.612  0.00  0.00    +0.000 OA
ENDROOT
BRANCH   1   4
ATOM      4  C   UNL     1       6.904   6.332  17.435  0.00  0.00    +0.000 A 
ATOM      5  C   UNL     1       7.843   6.279  18.464  0.00  0.00    +0.000 A 
ATOM      6  C   UNL     1       8.494   7.445  18.886  0.00  0.00    +0.000 A 
ATOM      7  C   UNL     1       8.265   8.688  18.268  0.00  0.00    +0.000 A 
ATOM      8  C   UNL     1       7.352   8.700  17.195  0.00  0.00    +0.000 A 
ATOM      9  C   UNL     1       6.669   7.546  16.792  0.00  0.00    +0.000 A 
BRANCH   7  10
ATOM     10  C   UNL     1       8.916   9.934  18.751  0.00  0.00    +0.000 A 
ATOM     11  C   UNL     1       9.346  10.089  20.082  0.00  0.00    +0.000 A 
ATOM     12  C   UNL     1       9.907  11.290  20.540  0.00  0.00    +0.000 A 
ATOM     13  C   UNL     1      10.072  12.378  19.675  0.00  0.00    +0.000 A 
ATOM     14  C   UNL     1       9.671  12.235  18.346  0.00  0.00    +0.000 A 
ATOM     15  C   UNL     1       9.101  11.037  17.897  0.00  0.00    +0.000 A 
BRANCH  13  16
ATOM     16  C   UNL     1      10.629  13.686  20.174  0.00  0.00    +0.000 C 
BRANCH  16  17
ATOM     17  O   UNL     1       9.813  14.762  19.714  0.00  0.00    +0.000 OA
ATOM     18  C   UNL     1      10.596  15.796  19.134  0.00  0.00    +0.000 C 
ENDBRANCH  16  17
ENDBRANCH  13  16
ENDBRANCH   7  10
ENDBRANCH   1   4
BRANCH   2  19
ATOM     19  C   UNL     1       4.191   5.777  18.311  0.00  0.00    +0.000 C 
ATOM     20  C   UNL     1       3.380   5.091  19.389  0.00  0.00    +0.000 C 
ATOM     21  C   UNL     1       2.673   5.996  18.408  0.00  0.00    +0.000 C 
BRANCH  21  22
ATOM     22  C   UNL     1       2.150   7.352  18.888  0.00  0.00    +0.000 A 
ATOM     23  C   UNL     1       1.958   8.438  18.018  0.00  0.00    +0.000 A 
ATOM     24  C   UNL     1       1.391   9.631  18.485  0.00  0.00    +0.000 A 
ATOM     25  C   UNL     1       1.040   9.720  19.821  0.00  0.00    +0.000 A 
ATOM     26  F   UNL     1       0.469  10.830  20.305  0.00  0.00    +0.000 F 
ATOM     27  C   UNL     1       1.287   8.636  20.637  0.00  0.00    +0.000 A 
ATOM     28  N   UNL     1       1.833   7.469  20.207  0.00  0.00    +0.000 NA
ENDBRANCH  21  22
ENDBRANCH   2  19
BRANCH   1  29
ATOM     29  C   UNL     1       7.018   4.353  15.998  0.00  0.00    +0.000 C 
BRANCH  29  30
ATOM     30  C   UNL     1       6.884   4.850  14.525  0.00  0.00    +0.000 C 
BRANCH  30  31
ATOM     31  N   UNL     1       8.095   5.559  14.078  0.00  0.00    +0.000 NA
ATOM     32  H   UNL     1       7.928   6.564  14.057  0.00  0.00    +0.000 HD
ATOM     33  H   UNL     1       8.274   5.316  13.097  0.00  0.00    +0.000 HD
ENDBRANCH  30  31
BRANCH  30  34
ATOM     34  C   UNL     1       6.491   3.746  13.471  0.00  0.00    +0.000 C 
ATOM     35  C   UNL     1       7.280   3.911  12.162  0.00  0.00    +0.000 C 
BRANCH  34  37
ATOM     36  C   UNL     1       4.682   3.355  11.679  0.00  0.00    +0.000 C 
ATOM     37  C   UNL     1       4.978   3.603  13.165  0.00  0.00    +0.000 C 
ENDBRANCH  34  37
ENDBRANCH  30  34
ENDBRANCH  29  30
ENDBRANCH   1  29
TORSDOF 11
ENDMDL
MODEL 3
REMARK VINA RESULT:      -8.1      0.933      1.329
REMARK  Name = 
REMARK  14 active torsions:
REMARK  status: ('A' for Active; 'I' for Inactive)
REMARK    1  A    between atoms: C_1  and  C_2
REMARK    2  A    between atoms: C_2  and  C_3
REMARK    3  A    between atoms: C_3  and  C_4
REMARK    4  A    between atoms: C_3  and  C_5
REMARK    5  A    between atoms: C_5  and  N_6
REMARK    6  A    between atoms: C_5  and  C_7
REMARK    7  A    between atoms: C_7  and  N_8
REMARK    8  A    between atoms: N_8  and  C_21
REMARK    9  A    between atoms: C_9  and  C_11
REMARK   10  A    between atoms: C_13  and  C_14
REMARK   11  A    between atoms: C_24  and  C_25
REMARK   12  A    between atoms: C_28  and  C_29
REMARK   13  A    between atoms: C_29  and  O_30
REMARK   14  A    between atoms: O_30  and  C_31
REMARK                            x       y       z     vdW  Elec       q    Type
REMARK                         _______ _______ _______ _____ _____    ______ ____
ROOT
ATOM      1  N   UNL     1       6.024   4.674  16.884  0.00  0.00    +0.000 N 
ATOM      2  C   UNL     1       4.689   4.387  17.254  0.00  0.00    +0.000 C 
ATOM      3  O   UNL     1       4.033   3.495  16.716  0.00  0.00    +0.000 OA
ENDROOT
BRANCH   1   4
ATOM      4  C   UNL     1       6.636   5.904  17.254  0.00  0.00    +0.000 A 
ATOM      5  C   UNL     1       6.116   7.108  16.783  0.00  0.00    +0.000 A 
ATOM      6  C   UNL     1       6.710   8.324  17.146  0.00  0.00    +0.000 A 
ATOM      7  C   UNL     1       7.808   8.380  18.024  0.00  0.00    +0.000 A 
ATOM      8  C   UNL     1       8.277   7.150  18.527  0.00  0.00    +0.000 A 
ATOM      9  C   UNL     1       7.713   5.929  18.139  0.00  0.00    +0.000 A 
BRANCH   7  10
ATOM     10  C   UNL     1       8.471   9.665  18.368  0.00  0.00    +0.000 A 
ATOM     11  C   UNL     1       9.315   9.799  19.486  0.00  0.00    +0.000 A 
ATOM     12  C   UNL     1       9.890  11.031  19.832  0.00  0.00    +0.000 A 
ATOM     13  C   UNL     1       9.651  12.174  19.061  0.00  0.00    +0.000 A 
ATOM     14  C   UNL     1       8.834  12.055  17.936  0.00  0.00    +0.000 A 
ATOM     15  C   UNL     1       8.253  10.825  17.601  0.00  0.00    +0.000 A 
BRANCH  13  16
ATOM     16  C   UNL     1      10.226  13.509  19.457  0.00  0.00    +0.000 C 
BRANCH  16  17
ATOM     17  O   UNL     1      10.420  14.311  18.294  0.00  0.00    +0.000 OA
ATOM     18  C   UNL     1       9.907  15.623  18.476  0.00  0.00    +0.000 C 
ENDBRANCH  16  17
ENDBRANCH  13  16
ENDBRANCH   7  10
ENDBRANCH   1   4
BRANCH   2  19
ATOM     19  C   UNL     1       4.098   5.137  18.441  0.00  0.00    +0.000 C 
ATOM     20  C   UNL     1       3.250   4.409  19.462  0.00  0.00    +0.000 C 
ATOM     21  C   UNL     1       2.604   5.462  18.593  0.00  0.00    +0.000 C 
BRANCH  21  22
ATOM     22  C   UNL     1       2.198   6.798  19.219  0.00  0.00    +0.000 A 
ATOM     23  C   UNL     1       2.135   7.990  18.477  0.00  0.00    +0.000 A 
ATOM     24  C   UNL     1       1.669   9.171  19.070  0.00  0.00    +0.000 A 
ATOM     25  C   UNL     1       1.288   9.140  20.400  0.00  0.00    +0.000 A 
ATOM     26  F   UNL     1       0.810  10.237  21.000  0.00  0.00    +0.000 F 
ATOM     27  C   UNL     1       1.408   7.951  21.089  0.00  0.00    +0.000 A 
ATOM     28  N   UNL     1       1.853   6.793  20.536  0.00  0.00    +0.000 NA
ENDBRANCH  21  22
ENDBRANCH   2  19
BRANCH   1  29
ATOM     29  C   UNL     1       6.717   3.957  15.771  0.00  0.00    +0.000 C 
BRANCH  29  30
ATOM     30  C   UNL     1       6.592   4.629  14.369  0.00  0.00    +0.000 C 
BRANCH  30  31
ATOM     31  N   UNL     1       7.786   5.426  14.039  0.00  0.00    +0.000 NA
ATOM     32  H   UNL     1       8.568   5.150  14.630  0.00  0.00    +0.000 HD
ATOM     33  H   UNL     1       7.610   6.403  14.300  0.00  0.00    +0.000 HD
ENDBRANCH  30  31
BRANCH  30  34
ATOM     34  C   UNL     1       6.255   3.653  13.178  0.00  0.00    +0.000 C 
ATOM     35  C   UNL     1       7.361   3.663  12.111  0.00  0.00    +0.000 C 
BRANCH  34  37
ATOM     36  C   UNL     1       4.535   2.753  11.485  0.00  0.00    +0.000 C 
ATOM     37  C   UNL     1       4.870   3.846  12.509  0.00  0.00    +0.000 C 
ENDBRANCH  34  37
ENDBRANCH  30  34
ENDBRANCH  29  30
ENDBRANCH   1  29
TORSDOF 11
ENDMDL
MODEL 4
REMARK VINA RESULT:      -7.7      0.542      1.266
REMARK  Name = 
REMARK  14 active torsions:
REMARK  status: ('A' for Active; 'I' for Inactive)
REMARK    1  A    between atoms: C_1  and  C_2
REMARK    2  A    between atoms: C_2  and  C_3
REMARK    3  A    between atoms: C_3  and  C_4
REMARK    4  A    between atoms: C_3  and  C_5
REMARK    5  A    between atoms: C_5  and  N_6
REMARK    6  A    between atoms: C_5  and  C_7
REMARK    7  A    between atoms: C_7  and  N_8
REMARK    8  A    between atoms: N_8  and  C_21
REMARK    9  A    between atoms: C_9  and  C_11
REMARK   10  A    between atoms: C_13  and  C_14
REMARK   11  A    between atoms: C_24  and  C_25
REMARK   12  A    between atoms: C_28  and  C_29
REMARK   13  A    between atoms: C_29  and  O_30
REMARK   14  A    between atoms: O_30  and  C_31
REMARK                            x       y       z     vdW  Elec       q    Type
REMARK                         _______ _______ _______ _____ _____    ______ ____
ROOT
ATOM      1  N   UNL     1       6.226   5.123  17.152  0.00  0.00    +0.000 N 
ATOM      2  C   UNL     1       4.849   4.946  17.423  0.00  0.00    +0.000 C 
ATOM      3  O   UNL     1       4.174   4.080  16.866  0.00  0.00    +0.000 OA
ENDROOT
BRANCH   1   4
ATOM      4  C   UNL     1       6.895   6.322  17.528  0.00  0.00    +0.000 A 
ATOM      5  C   UNL     1       7.861   6.293  18.533  0.00  0.00    +0.000 A 
ATOM      6  C   UNL     1       8.528   7.467  18.905  0.00  0.00    +0.000 A 
ATOM      7  C   UNL     1       8.288   8.694  18.259  0.00  0.00    +0.000 A 
ATOM      8  C   UNL     1       7.346   8.680  17.210  0.00  0.00    +0.000 A 
ATOM      9  C   UNL     1       6.648   7.519  16.858  0.00  0.00    +0.000 A 
BRANCH   7  10
ATOM     10  C   UNL     1       8.956   9.950  18.689  0.00  0.00    +0.000 A 
ATOM     11  C   UNL     1       8.836  10.454  19.997  0.00  0.00    +0.000 A 
ATOM     12  C   UNL     1       9.424  11.670  20.375  0.00  0.00    +0.000 A 
ATOM     13  C   UNL     1      10.170  12.419  19.458  0.00  0.00    +0.000 A 
ATOM     14  C   UNL     1      10.319  11.923  18.162  0.00  0.00    +0.000 A 
ATOM     15  C   UNL     1       9.719  10.715  17.787  0.00  0.00    +0.000 A 
BRANCH  13  16
ATOM     16  C   UNL     1      10.763  13.749  19.846  0.00  0.00    +0.000 C 
BRANCH  16  17
ATOM     17  O   UNL     1      10.699  13.908  21.262  0.00  0.00    +0.000 OA
ATOM     18  C   UNL     1      10.154  15.170  21.618  0.00  0.00    +0.000 C 
ENDBRANCH  16  17
ENDBRANCH  13  16
ENDBRANCH   7  10
ENDBRANCH   1   4
BRANCH   2  19
ATOM     19  C   UNL     1       4.224   5.781  18.534  0.00  0.00    +0.000 C 
ATOM     20  C   UNL     1       3.650   5.113  19.764  0.00  0.00    +0.000 C 
ATOM     21  C   UNL     1       2.715   5.833  18.821  0.00  0.00    +0.000 C 
BRANCH  21  22
ATOM     22  C   UNL     1       2.092   7.160  19.260  0.00  0.00    +0.000 A 
ATOM     23  C   UNL     1       1.764   7.433  20.599  0.00  0.00    +0.000 A 
ATOM     24  C   UNL     1       1.281   8.696  20.968  0.00  0.00    +0.000 A 
ATOM     25  C   UNL     1       1.121   9.658  19.987  0.00  0.00    +0.000 A 
ATOM     26  F   UNL     1       0.690  10.887  20.298  0.00  0.00    +0.000 F 
ATOM     27  C   UNL     1       1.423   9.322  18.684  0.00  0.00    +0.000 A 
ATOM     28  N   UNL     1       1.895   8.107  18.302  0.00  0.00    +0.000 NA
ENDBRANCH  21  22
ENDBRANCH   2  19
BRANCH   1  29
ATOM     29  C   UNL     1       6.949   4.317  16.123  0.00  0.00    +0.000 C 
BRANCH  29  30
ATOM     30  C   UNL     1       6.824   4.842  14.659  0.00  0.00    +0.000 C 
BRANCH  30  31
ATOM     31  N   UNL     1       8.016   5.604  14.251  0.00  0.00    +0.000 NA
ATOM     32  H   UNL     1       8.407   6.101  15.050  0.00  0.00    +0.000 HD
ATOM     33  H   UNL     1       7.724   6.352  13.612  0.00  0.00    +0.000 HD
ENDBRANCH  30  31
BRANCH  30  34
ATOM     34  C   UNL     1       6.490   3.748  13.575  0.00  0.00    +0.000 C 
ATOM     35  C   UNL     1       7.378   3.902  12.329  0.00  0.00    +0.000 C 
BRANCH  34  37
ATOM     36  C   UNL     1       4.816   3.135  11.716  0.00  0.00    +0.000 C 
ATOM     37  C   UNL     1       5.002   3.634  13.155  0.00  0.00    +0.000 C 
ENDBRANCH  34  37
ENDBRANCH  30  34
ENDBRANCH  29  30
ENDBRANCH   1  29
TORSDOF 11
ENDMDL
MODEL 5
REMARK VINA RESULT:      -7.5      0.725      1.386
REMARK  Name = 
REMARK  14 active torsions:
REMARK  status: ('A' for Active; 'I' for Inactive)
REMARK    1  A    between atoms: C_1  and  C_2
REMARK    2  A    between atoms: C_2  and  C_3
REMARK    3  A    between atoms: C_3  and  C_4
REMARK    4  A    between atoms: C_3  and  C_5
REMARK    5  A    between atoms: C_5  and  N_6
REMARK    6  A    between atoms: C_5  and  C_7
REMARK    7  A    between atoms: C_7  and  N_8
REMARK    8  A    between atoms: N_8  and  C_21
REMARK    9  A    between atoms: C_9  and  C_11
REMARK   10  A    between atoms: C_13  and  C_14
REMARK   11  A    between atoms: C_24  and  C_25
REMARK   12  A    between atoms: C_28  and  C_29
REMARK   13  A    between atoms: C_29  and  O_30
REMARK   14  A    between atoms: O_30  and  C_31
REMARK                            x       y       z     vdW  Elec       q    Type
REMARK                         _______ _______ _______ _____ _____    ______ ____
ROOT
ATOM      1  N   UNL     1       6.223   5.357  17.025  0.00  0.00    +0.000 N 
ATOM      2  C   UNL     1       4.833   5.237  17.259  0.00  0.00    +0.000 C 
ATOM      3  O   UNL     1       4.126   4.444  16.637  0.00  0.00    +0.000 OA
ENDROOT
BRANCH   1   4
ATOM      4  C   UNL     1       6.946   6.494  17.486  0.00  0.00    +0.000 A 
ATOM      5  C   UNL     1       6.704   7.746  16.924  0.00  0.00    +0.000 A 
ATOM      6  C   UNL     1       7.407   8.870  17.375  0.00  0.00    +0.000 A 
ATOM      7  C   UNL     1       8.337   8.790  18.428  0.00  0.00    +0.000 A 
ATOM      8  C   UNL     1       8.520   7.521  19.013  0.00  0.00    +0.000 A 
ATOM      9  C   UNL     1       7.848   6.386  18.543  0.00  0.00    +0.000 A 
BRANCH   7  10
ATOM     10  C   UNL     1       9.121   9.972  18.872  0.00  0.00    +0.000 A 
ATOM     11  C   UNL     1       9.194  10.361  20.222  0.00  0.00    +0.000 A 
ATOM     12  C   UNL     1       9.891  11.511  20.621  0.00  0.00    +0.000 A 
ATOM     13  C   UNL     1      10.555  12.307  19.681  0.00  0.00    +0.000 A 
ATOM     14  C   UNL     1      10.513  11.924  18.340  0.00  0.00    +0.000 A 
ATOM     15  C   UNL     1       9.805  10.782  17.945  0.00  0.00    +0.000 A 
BRANCH  13  16
ATOM     16  C   UNL     1      11.264  13.570  20.098  0.00  0.00    +0.000 C 
BRANCH  16  17
ATOM     17  O   UNL     1      10.312  14.521  20.570  0.00  0.00    +0.000 OA
ATOM     18  C   UNL     1      10.291  15.683  19.755  0.00  0.00    +0.000 C 
ENDBRANCH  16  17
ENDBRANCH  13  16
ENDBRANCH   7  10
ENDBRANCH   1   4
BRANCH   2  19
ATOM     19  C   UNL     1       4.229   6.036  18.407  0.00  0.00    +0.000 C 
ATOM     20  C   UNL     1       3.613   5.328  19.593  0.00  0.00    +0.000 C 
ATOM     21  C   UNL     1       2.720   6.135  18.681  0.00  0.00    +0.000 C 
BRANCH  21  22
ATOM     22  C   UNL     1       2.145   7.460  19.184  0.00  0.00    +0.000 A 
ATOM     23  C   UNL     1       1.934   8.562  18.337  0.00  0.00    +0.000 A 
ATOM     24  C   UNL     1       1.320   9.724  18.822  0.00  0.00    +0.000 A 
ATOM     25  C   UNL     1       0.941   9.768  20.152  0.00  0.00    +0.000 A 
ATOM     26  F   UNL     1       0.325  10.847  20.652  0.00  0.00    +0.000 F 
ATOM     27  C   UNL     1       1.207   8.673  20.946  0.00  0.00    +0.000 A 
ATOM     28  N   UNL     1       1.798   7.534  20.499  0.00  0.00    +0.000 NA
ENDBRANCH  21  22
ENDBRANCH   2  19
BRANCH   1  29
ATOM     29  C   UNL     1       6.925   4.577  15.963  0.00  0.00    +0.000 C 
BRANCH  29  30
ATOM     30  C   UNL     1       6.835   5.179  14.526  0.00  0.00    +0.000 C 
BRANCH  30  31
ATOM     31  N   UNL     1       8.161   5.570  14.017  0.00  0.00    +0.000 NA
ATOM     32  H   UNL     1       8.242   5.334  13.029  0.00  0.00    +0.000 HD
ATOM     33  H   UNL     1       8.872   4.986  14.471  0.00  0.00    +0.000 HD
ENDBRANCH  30  31
BRANCH  30  34
ATOM     34  C   UNL     1       6.095   4.283  13.462  0.00  0.00    +0.000 C 
ATOM     35  C   UNL     1       5.485   3.028  14.109  0.00  0.00    +0.000 C 
BRANCH  34  37
ATOM     36  C   UNL     1       6.560   2.500  11.661  0.00  0.00    +0.000 C 
ATOM     37  C   UNL     1       6.921   3.887  12.211  0.00  0.00    +0.000 C 
ENDBRANCH  34  37
ENDBRANCH  30  34
ENDBRANCH  29  30
ENDBRANCH   1  29
TORSDOF 11
ENDMDL
MODEL 6
REMARK VINA RESULT:      -7.4      6.370     11.133
REMARK  Name = 
REMARK  14 active torsions:
REMARK  status: ('A' for Active; 'I' for Inactive)
REMARK    1  A    between atoms: C_1  and  C_2
REMARK    2  A    between atoms: C_2  and  C_3
REMARK    3  A    between atoms: C_3  and  C_4
REMARK    4  A    between atoms: C_3  and  C_5
REMARK    5  A    between atoms: C_5  and  N_6
REMARK    6  A    between atoms: C_5  and  C_7
REMARK    7  A    between atoms: C_7  and  N_8
REMARK    8  A    between atoms: N_8  and  C_21
REMARK    9  A    between atoms: C_9  and  C_11
REMARK   10  A    between atoms: C_13  and  C_14
REMARK   11  A    between atoms: C_24  and  C_25
REMARK   12  A    between atoms: C_28  and  C_29
REMARK   13  A    between atoms: C_29  and  O_30
REMARK   14  A    between atoms: O_30  and  C_31
REMARK                            x       y       z     vdW  Elec       q    Type
REMARK                         _______ _______ _______ _____ _____    ______ ____
ROOT
ATOM      1  N   UNL     1      -1.784  13.254  22.031  0.00  0.00    +0.000 N 
ATOM      2  C   UNL     1      -3.070  13.598  21.556  0.00  0.00    +0.000 C 
ATOM      3  O   UNL     1      -3.873  14.243  22.232  0.00  0.00    +0.000 OA
ENDROOT
BRANCH   1   4
ATOM      4  C   UNL     1      -1.019  12.234  21.397  0.00  0.00    +0.000 A 
ATOM      5  C   UNL     1      -1.140  10.911  21.819  0.00  0.00    +0.000 A 
ATOM      6  C   UNL     1      -0.396   9.901  21.197  0.00  0.00    +0.000 A 
ATOM      7  C   UNL     1       0.455  10.170  20.109  0.00  0.00    +0.000 A 
ATOM      8  C   UNL     1       0.514  11.508  19.669  0.00  0.00    +0.000 A 
ATOM      9  C   UNL     1      -0.198  12.528  20.310  0.00  0.00    +0.000 A 
BRANCH   7  10
ATOM     10  C   UNL     1       1.285   9.107  19.483  0.00  0.00    +0.000 A 
ATOM     11  C   UNL     1       1.644   7.933  20.170  0.00  0.00    +0.000 A 
ATOM     12  C   UNL     1       2.475   6.964  19.589  0.00  0.00    +0.000 A 
ATOM     13  C   UNL     1       2.966   7.129  18.289  0.00  0.00    +0.000 A 
ATOM     14  C   UNL     1       2.602   8.277  17.583  0.00  0.00    +0.000 A 
ATOM     15  C   UNL     1       1.781   9.247  18.173  0.00  0.00    +0.000 A 
BRANCH  13  16
ATOM     16  C   UNL     1       3.898   6.115  17.678  0.00  0.00    +0.000 C 
BRANCH  16  17
ATOM     17  O   UNL     1       5.087   6.024  18.460  0.00  0.00    +0.000 OA
ATOM     18  C   UNL     1       5.308   4.698  18.917  0.00  0.00    +0.000 C 
ENDBRANCH  16  17
ENDBRANCH  13  16
ENDBRANCH   7  10
ENDBRANCH   1   4
BRANCH   2  19
ATOM     19  C   UNL     1      -3.415  13.258  20.111  0.00  0.00    +0.000 C 
ATOM     20  C   UNL     1      -4.859  13.146  19.674  0.00  0.00    +0.000 C 
ATOM     21  C   UNL     1      -3.995  11.907  19.664  0.00  0.00    +0.000 C 
BRANCH  21  22
ATOM     22  C   UNL     1      -3.551  11.320  18.323  0.00  0.00    +0.000 A 
ATOM     23  C   UNL     1      -2.480  10.417  18.212  0.00  0.00    +0.000 A 
ATOM     24  C   UNL     1      -2.168   9.833  16.977  0.00  0.00    +0.000 A 
ATOM     25  C   UNL     1      -2.925  10.177  15.871  0.00  0.00    +0.000 A 
ATOM     26  F   UNL     1      -2.681   9.623  14.676  0.00  0.00    +0.000 F 
ATOM     27  C   UNL     1      -3.940  11.097  16.031  0.00  0.00    +0.000 A 
ATOM     28  N   UNL     1      -4.263  11.673  17.217  0.00  0.00    +0.000 NA
ENDBRANCH  21  22
ENDBRANCH   2  19
BRANCH   1  29
ATOM     29  C   UNL     1      -1.325  13.591  23.412  0.00  0.00    +0.000 C 
BRANCH  29  30
ATOM     30  C   UNL     1      -1.066  15.107  23.675  0.00  0.00    +0.000 C 
BRANCH  30  31
ATOM     31  N   UNL     1      -0.539  15.341  25.030  0.00  0.00    +0.000 NA
ATOM     32  H   UNL     1       0.395  14.945  25.119  0.00  0.00    +0.000 HD
ATOM     33  H   UNL     1      -1.102  14.803  25.699  0.00  0.00    +0.000 HD
ENDBRANCH  30  31
BRANCH  30  34
ATOM     34  C   UNL     1      -0.153  15.832  22.614  0.00  0.00    +0.000 C 
ATOM     35  C   UNL     1       0.868  16.760  23.291  0.00  0.00    +0.000 C 
BRANCH  34  37
ATOM     36  C   UNL     1      -0.388  16.231  20.080  0.00  0.00    +0.000 C 
ATOM     37  C   UNL     1      -0.894  16.592  21.483  0.00  0.00    +0.000 C 
ENDBRANCH  34  37
ENDBRANCH  30  34
ENDBRANCH  29  30
ENDBRANCH   1  29
TORSDOF 11
ENDMDL
MODEL 7
REMARK VINA RESULT:      -7.4      5.955     11.698
REMARK  Name = 
REMARK  14 active torsions:
REMARK  status: ('A' for Active; 'I' for Inactive)
REMARK    1  A    between atoms: C_1  and  C_2
REMARK    2  A    between atoms: C_2  and  C_3
REMARK    3  A    between atoms: C_3  and  C_4
REMARK    4  A    between atoms: C_3  and  C_5
REMARK    5  A    between atoms: C_5  and  N_6
REMARK    6  A    between atoms: C_5  and  C_7
REMARK    7  A    between atoms: C_7  and  N_8
REMARK    8  A    between atoms: N_8  and  C_21
REMARK    9  A    between atoms: C_9  and  C_11
REMARK   10  A    between atoms: C_13  and  C_14
REMARK   11  A    between atoms: C_24  and  C_25
REMARK   12  A    between atoms: C_28  and  C_29
REMARK   13  A    between atoms: C_29  and  O_30
REMARK   14  A    between atoms: O_30  and  C_31
REMARK                            x       y       z     vdW  Elec       q    Type
REMARK                         _______ _______ _______ _____ _____    ______ ____
ROOT
ATOM      1  N   UNL     1      -2.575  13.347  20.874  0.00  0.00    +0.000 N 
ATOM      2  C   UNL     1      -2.310  14.711  20.606  0.00  0.00    +0.000 C 
ATOM      3  O   UNL     1      -3.188  15.573  20.646  0.00  0.00    +0.000 OA
ENDROOT
BRANCH   1   4
ATOM      4  C   UNL     1      -1.652  12.335  20.488  0.00  0.00    +0.000 A 
ATOM      5  C   UNL     1      -1.671  11.836  19.186  0.00  0.00    +0.000 A 
ATOM      6  C   UNL     1      -0.763  10.843  18.797  0.00  0.00    +0.000 A 
ATOM      7  C   UNL     1       0.219  10.351  19.676  0.00  0.00    +0.000 A 
ATOM      8  C   UNL     1       0.249  10.913  20.968  0.00  0.00    +0.000 A 
ATOM      9  C   UNL     1      -0.679  11.879  21.375  0.00  0.00    +0.000 A 
BRANCH   7  10
ATOM     10  C   UNL     1       1.148   9.260  19.279  0.00  0.00    +0.000 A 
ATOM     11  C   UNL     1       1.724   9.194  17.998  0.00  0.00    +0.000 A 
ATOM     12  C   UNL     1       2.554   8.129  17.617  0.00  0.00    +0.000 A 
ATOM     13  C   UNL     1       2.850   7.097  18.514  0.00  0.00    +0.000 A 
ATOM     14  C   UNL     1       2.306   7.158  19.797  0.00  0.00    +0.000 A 
ATOM     15  C   UNL     1       1.468   8.217  20.168  0.00  0.00    +0.000 A 
BRANCH  13  16
ATOM     16  C   UNL     1       3.702   5.927  18.094  0.00  0.00    +0.000 C 
BRANCH  16  17
ATOM     17  O   UNL     1       4.322   5.349  19.241  0.00  0.00    +0.000 OA
ATOM     18  C   UNL     1       5.735   5.477  19.187  0.00  0.00    +0.000 C 
ENDBRANCH  16  17
ENDBRANCH  13  16
ENDBRANCH   7  10
ENDBRANCH   1   4
BRANCH   2  19
ATOM     19  C   UNL     1      -0.863  15.128  20.381  0.00  0.00    +0.000 C 
ATOM     20  C   UNL     1      -0.532  16.534  19.927  0.00  0.00    +0.000 C 
ATOM     21  C   UNL     1      -0.249  15.380  18.994  0.00  0.00    +0.000 C 
BRANCH  21  22
ATOM     22  C   UNL     1       1.202  14.966  18.742  0.00  0.00    +0.000 A 
ATOM     23  C   UNL     1       1.600  13.620  18.661  0.00  0.00    +0.000 A 
ATOM     24  C   UNL     1       2.922  13.288  18.337  0.00  0.00    +0.000 A 
ATOM     25  C   UNL     1       3.827  14.311  18.115  0.00  0.00    +0.000 A 
ATOM     26  F   UNL     1       5.093  14.041  17.775  0.00  0.00    +0.000 F 
ATOM     27  C   UNL     1       3.391  15.613  18.246  0.00  0.00    +0.000 A 
ATOM     28  N   UNL     1       2.114  15.959  18.556  0.00  0.00    +0.000 NA
ENDBRANCH  21  22
ENDBRANCH   2  19
BRANCH   1  29
ATOM     29  C   UNL     1      -3.950  12.842  21.164  0.00  0.00    +0.000 C 
BRANCH  29  30
ATOM     30  C   UNL     1      -4.373  12.890  22.664  0.00  0.00    +0.000 C 
BRANCH  30  31
ATOM     31  N   UNL     1      -3.293  13.412  23.518  0.00  0.00    +0.000 NA
ATOM     32  H   UNL     1      -2.467  13.616  22.957  0.00  0.00    +0.000 HD
ATOM     33  H   UNL     1      -2.985  12.666  24.151  0.00  0.00    +0.000 HD
ENDBRANCH  30  31
BRANCH  30  34
ATOM     34  C   UNL     1      -5.714  13.662  22.965  0.00  0.00    +0.000 C 
ATOM     35  C   UNL     1      -5.440  15.074  23.508  0.00  0.00    +0.000 C 
BRANCH  34  37
ATOM     36  C   UNL     1      -7.863  13.842  24.373  0.00  0.00    +0.000 C 
ATOM     37  C   UNL     1      -6.732  12.931  23.877  0.00  0.00    +0.000 C 
ENDBRANCH  34  37
ENDBRANCH  30  34
ENDBRANCH  29  30
ENDBRANCH   1  29
TORSDOF 11
ENDMDL
MODEL 8
REMARK VINA RESULT:      -7.3      0.937      1.447
REMARK  Name = 
REMARK  14 active torsions:
REMARK  status: ('A' for Active; 'I' for Inactive)
REMARK    1  A    between atoms: C_1  and  C_2
REMARK    2  A    between atoms: C_2  and  C_3
REMARK    3  A    between atoms: C_3  and  C_4
REMARK    4  A    between atoms: C_3  and  C_5
REMARK    5  A    between atoms: C_5  and  N_6
REMARK    6  A    between atoms: C_5  and  C_7
REMARK    7  A    between atoms: C_7  and  N_8
REMARK    8  A    between atoms: N_8  and  C_21
REMARK    9  A    between atoms: C_9  and  C_11
REMARK   10  A    between atoms: C_13  and  C_14
REMARK   11  A    between atoms: C_24  and  C_25
REMARK   12  A    between atoms: C_28  and  C_29
REMARK   13  A    between atoms: C_29  and  O_30
REMARK   14  A    between atoms: O_30  and  C_31
REMARK                            x       y       z     vdW  Elec       q    Type
REMARK                         _______ _______ _______ _____ _____    ______ ____
ROOT
ATOM      1  N   UNL     1       6.073   4.935  17.191  0.00  0.00    +0.000 N 
ATOM      2  C   UNL     1       4.715   4.716  17.523  0.00  0.00    +0.000 C 
ATOM      3  O   UNL     1       4.047   3.819  17.008  0.00  0.00    +0.000 OA
ENDROOT
BRANCH   1   4
ATOM      4  C   UNL     1       6.716   6.162  17.520  0.00  0.00    +0.000 A 
ATOM      5  C   UNL     1       7.768   6.171  18.434  0.00  0.00    +0.000 A 
ATOM      6  C   UNL     1       8.410   7.373  18.759  0.00  0.00    +0.000 A 
ATOM      7  C   UNL     1       8.055   8.592  18.151  0.00  0.00    +0.000 A 
ATOM      8  C   UNL     1       7.025   8.541  17.190  0.00  0.00    +0.000 A 
ATOM      9  C   UNL     1       6.354   7.350  16.888  0.00  0.00    +0.000 A 
BRANCH   7  10
ATOM     10  C   UNL     1       8.700   9.875  18.534  0.00  0.00    +0.000 A 
ATOM     11  C   UNL     1       8.678  11.005  17.697  0.00  0.00    +0.000 A 
ATOM     12  C   UNL     1       9.339  12.193  18.044  0.00  0.00    +0.000 A 
ATOM     13  C   UNL     1      10.034  12.297  19.254  0.00  0.00    +0.000 A 
ATOM     14  C   UNL     1      10.047  11.193  20.108  0.00  0.00    +0.000 A 
ATOM     15  C   UNL     1       9.396  10.006  19.751  0.00  0.00    +0.000 A 
BRANCH  13  16
ATOM     16  C   UNL     1      10.785  13.554  19.610  0.00  0.00    +0.000 C 
BRANCH  16  17
ATOM     17  O   UNL     1      10.376  14.617  18.752  0.00  0.00    +0.000 OA
ATOM     18  C   UNL     1      11.114  15.803  19.007  0.00  0.00    +0.000 C 
ENDBRANCH  16  17
ENDBRANCH  13  16
ENDBRANCH   7  10
ENDBRANCH   1   4
BRANCH   2  19
ATOM     19  C   UNL     1       4.109   5.548  18.646  0.00  0.00    +0.000 C 
ATOM     20  C   UNL     1       3.351   4.880  19.772  0.00  0.00    +0.000 C 
ATOM     21  C   UNL     1       2.600   5.782  18.821  0.00  0.00    +0.000 C 
BRANCH  21  22
ATOM     22  C   UNL     1       2.116   7.147  19.315  0.00  0.00    +0.000 A 
ATOM     23  C   UNL     1       2.012   8.262  18.467  0.00  0.00    +0.000 A 
ATOM     24  C   UNL     1       1.476   9.467  18.942  0.00  0.00    +0.000 A 
ATOM     25  C   UNL     1       1.068   9.537  20.262  0.00  0.00    +0.000 A 
ATOM     26  F   UNL     1       0.524  10.659  20.751  0.00  0.00    +0.000 F 
ATOM     27  C   UNL     1       1.230   8.423  21.059  0.00  0.00    +0.000 A 
ATOM     28  N   UNL     1       1.743   7.244  20.621  0.00  0.00    +0.000 NA
ENDBRANCH  21  22
ENDBRANCH   2  19
BRANCH   1  29
ATOM     29  C   UNL     1       6.779   4.136  16.145  0.00  0.00    +0.000 C 
BRANCH  29  30
ATOM     30  C   UNL     1       6.153   4.207  14.718  0.00  0.00    +0.000 C 
BRANCH  30  31
ATOM     31  N   UNL     1       5.296   5.394  14.559  0.00  0.00    +0.000 NA
ATOM     32  H   UNL     1       5.138   5.840  15.462  0.00  0.00    +0.000 HD
ATOM     33  H   UNL     1       4.361   5.087  14.267  0.00  0.00    +0.000 HD
ENDBRANCH  30  31
BRANCH  30  34
ATOM     34  C   UNL     1       7.177   4.122  13.524  0.00  0.00    +0.000 C 
ATOM     35  C   UNL     1       7.910   5.458  13.315  0.00  0.00    +0.000 C 
BRANCH  34  37
ATOM     36  C   UNL     1       5.142   3.175  12.261  0.00  0.00    +0.000 C 
ATOM     37  C   UNL     1       6.611   3.611  12.174  0.00  0.00    +0.000 C 
ENDBRANCH  34  37
ENDBRANCH  30  34
ENDBRANCH  29  30
ENDBRANCH   1  29
TORSDOF 11
ENDMDL
MODEL 9
REMARK VINA RESULT:      -7.3      6.286     12.060
REMARK  Name = 
REMARK  14 active torsions:
REMARK  status: ('A' for Active; 'I' for Inactive)
REMARK    1  A    between atoms: C_1  and  C_2
REMARK    2  A    between atoms: C_2  and  C_3
REMARK    3  A    between atoms: C_3  and  C_4
REMARK    4  A    between atoms: C_3  and  C_5
REMARK    5  A    between atoms: C_5  and  N_6
REMARK    6  A    between atoms: C_5  and  C_7
REMARK    7  A    between atoms: C_7  and  N_8
REMARK    8  A    between atoms: N_8  and  C_21
REMARK    9  A    between atoms: C_9  and  C_11
REMARK   10  A    between atoms: C_13  and  C_14
REMARK   11  A    between atoms: C_24  and  C_25
REMARK   12  A    between atoms: C_28  and  C_29
REMARK   13  A    between atoms: C_29  and  O_30
REMARK   14  A    between atoms: O_30  and  C_31
REMARK                            x       y       z     vdW  Elec       q    Type
REMARK                         _______ _______ _______ _____ _____    ______ ____
ROOT
ATOM      1  N   UNL     1      -2.659  14.075  20.967  0.00  0.00    +0.000 N 
ATOM      2  C   UNL     1      -2.339  15.407  20.618  0.00  0.00    +0.000 C 
ATOM      3  O   UNL     1      -3.173  16.313  20.638  0.00  0.00    +0.000 OA
ENDROOT
BRANCH   1   4
ATOM      4  C   UNL     1      -1.798  12.999  20.609  0.00  0.00    +0.000 A 
ATOM      5  C   UNL     1      -1.912  12.406  19.353  0.00  0.00    +0.000 A 
ATOM      6  C   UNL     1      -1.065  11.350  18.991  0.00  0.00    +0.000 A 
ATOM      7  C   UNL     1      -0.051  10.886  19.849  0.00  0.00    +0.000 A 
ATOM      8  C   UNL     1       0.075  11.541  21.090  0.00  0.00    +0.000 A 
ATOM      9  C   UNL     1      -0.791  12.572  21.473  0.00  0.00    +0.000 A 
BRANCH   7  10
ATOM     10  C   UNL     1       0.813   9.731  19.487  0.00  0.00    +0.000 A 
ATOM     11  C   UNL     1       1.307   9.544  18.183  0.00  0.00    +0.000 A 
ATOM     12  C   UNL     1       2.074   8.420  17.840  0.00  0.00    +0.000 A 
ATOM     13  C   UNL     1       2.387   7.449  18.796  0.00  0.00    +0.000 A 
ATOM     14  C   UNL     1       1.924   7.629  20.101  0.00  0.00    +0.000 A 
ATOM     15  C   UNL     1       1.149   8.747  20.435  0.00  0.00    +0.000 A 
BRANCH  13  16
ATOM     16  C   UNL     1       3.169   6.217  18.422  0.00  0.00    +0.000 C 
BRANCH  16  17
ATOM     17  O   UNL     1       2.521   5.059  18.945  0.00  0.00    +0.000 OA
ATOM     18  C   UNL     1       1.833   4.345  17.928  0.00  0.00    +0.000 C 
ENDBRANCH  16  17
ENDBRANCH  13  16
ENDBRANCH   7  10
ENDBRANCH   1   4
BRANCH   2  19
ATOM     19  C   UNL     1      -0.881  15.741  20.328  0.00  0.00    +0.000 C 
ATOM     20  C   UNL     1      -0.509  17.063  19.693  0.00  0.00    +0.000 C 
ATOM     21  C   UNL     1      -0.277  15.789  18.916  0.00  0.00    +0.000 C 
BRANCH  21  22
ATOM     22  C   UNL     1       1.156  15.295  18.708  0.00  0.00    +0.000 A 
ATOM     23  C   UNL     1       1.476  13.931  18.602  0.00  0.00    +0.000 A 
ATOM     24  C   UNL     1       2.788  13.529  18.320  0.00  0.00    +0.000 A 
ATOM     25  C   UNL     1       3.760  14.501  18.162  0.00  0.00    +0.000 A 
ATOM     26  F   UNL     1       5.021  14.164  17.863  0.00  0.00    +0.000 F 
ATOM     27  C   UNL     1       3.397  15.822  18.314  0.00  0.00    +0.000 A 
ATOM     28  N   UNL     1       2.132  16.237  18.585  0.00  0.00    +0.000 NA
ENDBRANCH  21  22
ENDBRANCH   2  19
BRANCH   1  29
ATOM     29  C   UNL     1      -4.046  13.653  21.324  0.00  0.00    +0.000 C 
BRANCH  29  30
ATOM     30  C   UNL     1      -4.348  13.586  22.853  0.00  0.00    +0.000 C 
BRANCH  30  31
ATOM     31  N   UNL     1      -3.888  12.317  23.443  0.00  0.00    +0.000 NA
ATOM     32  H   UNL     1      -4.656  11.853  23.925  0.00  0.00    +0.000 HD
ATOM     33  H   UNL     1      -3.216  12.528  24.189  0.00  0.00    +0.000 HD
ENDBRANCH  30  31
BRANCH  30  34
ATOM     34  C   UNL     1      -3.810  14.798  23.703  0.00  0.00    +0.000 C 
ATOM     35  C   UNL     1      -3.300  14.338  25.079  0.00  0.00    +0.000 C 
BRANCH  34  37
ATOM     36  C   UNL     1      -6.252  15.582  23.934  0.00  0.00    +0.000 C 
ATOM     37  C   UNL     1      -4.777  15.998  23.869  0.00  0.00    +0.000 C 
ENDBRANCH  34  37
ENDBRANCH  30  34
ENDBRANCH  29  30
ENDBRANCH   1  29
TORSDOF 11
ENDMDL
