MODEL 1
REMARK VINA RESULT:      -8.6      0.000      0.000
REMARK  Name = 
REMARK  4 active torsions:
REMARK  status: ('A' for Active; 'I' for Inactive)
REMARK    1  A    between atoms: C_1  and  C_2
REMARK    2  A    between atoms: C_5  and  C_6
REMARK    3  A    between atoms: N_8  and  C_9
REMARK    4  A    between atoms: C_13  and  C_14
REMARK                            x       y       z     vdW  Elec       q    Type
REMARK                         _______ _______ _______ _____ _____    ______ ____
ROOT
ATOM      1  C   UNL     1       6.840   6.634  16.847  0.00  0.00    +0.000 A 
ATOM      2  C   UNL     1       7.268   5.874  15.754  0.00  0.00    +0.000 A 
ATOM      3  C   UNL     1       6.723   4.622  15.487  0.00  0.00    +0.000 A 
ATOM      4  C   UNL     1       5.742   4.103  16.322  0.00  0.00    +0.000 A 
ATOM      5  C   UNL     1       5.306   4.823  17.442  0.00  0.00    +0.000 A 
ATOM      6  C   UNL     1       5.868   6.090  17.703  0.00  0.00    +0.000 A 
ENDROOT
BRANCH   5   7
ATOM      7  C   UNL     1       4.263   4.281  18.299  0.00  0.00    +0.000 A 
ATOM      8  C   UNL     1       2.909   4.332  18.035  0.00  0.00    +0.000 A 
ATOM      9  N   UNL     1       2.298   3.742  19.109  0.00  0.00    +0.000 N 
ATOM     10  C   UNL     1       0.943   3.525  19.346  0.00  0.00    +0.000 A 
ATOM     11  C   UNL     1       0.566   2.928  20.489  0.00  0.00    +0.000 A 
ATOM     12  C   UNL     1       1.591   2.545  21.451  0.00  0.00    +0.000 A 
ATOM     13  C   UNL     1       2.902   2.757  21.210  0.00  0.00    +0.000 A 
ATOM     14  C   UNL     1       3.308   3.368  19.989  0.00  0.00    +0.000 A 
ATOM     15  N   UNL     1       4.500   3.660  19.507  0.00  0.00    +0.000 NA
ENDBRANCH   5   7
BRANCH   1  18
ATOM     16  C   UNL     1       8.175   8.247  18.186  0.00  0.00    +0.000 C 
ATOM     17  O   UNL     1       8.617   7.459  19.018  0.00  0.00    +0.000 OA
ATOM     18  N   UNL     1       7.350   7.933  17.115  0.00  0.00    +0.000 N 
ATOM     19  H   UNL     1       7.230   8.628  16.389  0.00  0.00    +0.000 HD
BRANCH  16  24
ATOM     20  C   UNL     1       9.810  13.735  19.063  0.00  0.00    +0.000 C 
ATOM     21  C   UNL     1       9.407  12.313  18.795  0.00  0.00    +0.000 A 
ATOM     22  C   UNL     1       9.864  11.283  19.623  0.00  0.00    +0.000 A 
ATOM     23  C   UNL     1       9.471   9.968  19.383  0.00  0.00    +0.000 A 
ATOM     24  C   UNL     1       8.625   9.658  18.308  0.00  0.00    +0.000 A 
ATOM     25  C   UNL     1       8.166  10.679  17.474  0.00  0.00    +0.000 A 
ATOM     26  C   UNL     1       8.558  12.003  17.721  0.00  0.00    +0.000 A 
ENDBRANCH  16  24
ENDBRANCH   1  18
TORSDOF 3
ENDMDL
MODEL 2
REMARK VINA RESULT:      -8.5      0.661      1.131
REMARK  Name = 
REMARK  4 active torsions:
REMARK  status: ('A' for Active; 'I' for Inactive)
REMARK    1  A    between atoms: C_1  and  C_2
REMARK    2  A    between atoms: C_5  and  C_6
REMARK    3  A    between atoms: N_8  and  C_9
REMARK    4  A    between atoms: C_13  and  C_14
REMARK                            x       y       z     vdW  Elec       q    Type
REMARK                         _______ _______ _______ _____ _____    ______ ____
ROOT
ATOM      1  C   UNL     1       6.890   6.720  16.837  0.00  0.00    +0.000 A 
ATOM      2  C   UNL     1       7.389   5.941  15.789  0.00  0.00    +0.000 A 
ATOM      3  C   UNL     1       6.846   4.695  15.492  0.00  0.00    +0.000 A 
ATOM      4  C   UNL     1       5.793   4.201  16.253  0.00  0.00    +0.000 A 
ATOM      5  C   UNL     1       5.283   4.940  17.327  0.00  0.00    +0.000 A 
ATOM      6  C   UNL     1       5.844   6.201  17.620  0.00  0.00    +0.000 A 
ENDROOT
BRANCH   5   7
ATOM      7  C   UNL     1       4.167   4.424  18.105  0.00  0.00    +0.000 A 
ATOM      8  C   UNL     1       4.056   4.492  19.479  0.00  0.00    +0.000 A 
ATOM      9  N   UNL     1       2.880   3.862  19.788  0.00  0.00    +0.000 N 
ATOM     10  C   UNL     1       2.287   3.658  21.031  0.00  0.00    +0.000 A 
ATOM     11  C   UNL     1       1.119   2.996  21.099  0.00  0.00    +0.000 A 
ATOM     12  C   UNL     1       0.523   2.499  19.866  0.00  0.00    +0.000 A 
ATOM     13  C   UNL     1       1.104   2.705  18.666  0.00  0.00    +0.000 A 
ATOM     14  C   UNL     1       2.330   3.427  18.587  0.00  0.00    +0.000 A 
ATOM     15  N   UNL     1       3.077   3.779  17.560  0.00  0.00    +0.000 NA
ENDBRANCH   5   7
BRANCH   1  18
ATOM     16  C   UNL     1       8.218   8.307  18.213  0.00  0.00    +0.000 C 
ATOM     17  O   UNL     1       8.655   7.503  19.033  0.00  0.00    +0.000 OA
ATOM     18  N   UNL     1       7.398   8.013  17.132  0.00  0.00    +0.000 N 
ATOM     19  H   UNL     1       7.282   8.722  16.419  0.00  0.00    +0.000 HD
BRANCH  16  24
ATOM     20  C   UNL     1       9.837  13.781  19.197  0.00  0.00    +0.000 C 
ATOM     21  C   UNL     1       9.439  12.363  18.902  0.00  0.00    +0.000 A 
ATOM     22  C   UNL     1       9.861  11.325  19.738  0.00  0.00    +0.000 A 
ATOM     23  C   UNL     1       9.473  10.013  19.473  0.00  0.00    +0.000 A 
ATOM     24  C   UNL     1       8.668   9.715  18.364  0.00  0.00    +0.000 A 
ATOM     25  C   UNL     1       8.244  10.745  17.521  0.00  0.00    +0.000 A 
ATOM     26  C   UNL     1       8.631  12.065  17.794  0.00  0.00    +0.000 A 
ENDBRANCH  16  24
ENDBRANCH   1  18
TORSDOF 3
ENDMDL
MODEL 3
REMARK VINA RESULT:      -8.1      7.110      8.069
REMARK  Name = 
REMARK  4 active torsions:
REMARK  status: ('A' for Active; 'I' for Inactive)
REMARK    1  A    between atoms: C_1  and  C_2
REMARK    2  A    between atoms: C_5  and  C_6
REMARK    3  A    between atoms: N_8  and  C_9
REMARK    4  A    between atoms: C_13  and  C_14
REMARK                            x       y       z     vdW  Elec       q    Type
REMARK                         _______ _______ _______ _____ _____    ______ ____
ROOT
ATOM      1  C   UNL     1       0.751  10.011  19.775  0.00  0.00    +0.000 A 
ATOM      2  C   UNL     1       1.210  10.499  18.547  0.00  0.00    +0.000 A 
ATOM      3  C   UNL     1       2.011   9.724  17.715  0.00  0.00    +0.000 A 
ATOM      4  C   UNL     1       2.379   8.442  18.107  0.00  0.00    +0.000 A 
ATOM      5  C   UNL     1       1.961   7.928  19.341  0.00  0.00    +0.000 A 
ATOM      6  C   UNL     1       1.151   8.725  20.177  0.00  0.00    +0.000 A 
ENDROOT
BRANCH   5   7
ATOM      7  C   UNL     1       2.332   6.577  19.734  0.00  0.00    +0.000 A 
ATOM      8  C   UNL     1       3.326   5.822  19.145  0.00  0.00    +0.000 A 
ATOM      9  N   UNL     1       3.311   4.617  19.795  0.00  0.00    +0.000 N 
ATOM     10  C   UNL     1       4.116   3.497  19.600  0.00  0.00    +0.000 A 
ATOM     11  C   UNL     1       3.915   2.406  20.359  0.00  0.00    +0.000 A 
ATOM     12  C   UNL     1       2.847   2.428  21.348  0.00  0.00    +0.000 A 
ATOM     13  C   UNL     1       2.075   3.519  21.532  0.00  0.00    +0.000 A 
ATOM     14  C   UNL     1       2.300   4.686  20.746  0.00  0.00    +0.000 A 
ATOM     15  N   UNL     1       1.716   5.869  20.743  0.00  0.00    +0.000 NA
ENDBRANCH   5   7
BRANCH   1  18
ATOM     16  C   UNL     1       0.291  11.889  21.336  0.00  0.00    +0.000 C 
ATOM     17  O   UNL     1       1.401  12.413  21.309  0.00  0.00    +0.000 OA
ATOM     18  N   UNL     1      -0.103  10.766  20.621  0.00  0.00    +0.000 N 
ATOM     19  H   UNL     1      -1.093  10.561  20.569  0.00  0.00    +0.000 HD
BRANCH  16  24
ATOM     20  C   UNL     1      -3.422  14.623  24.842  0.00  0.00    +0.000 C 
ATOM     21  C   UNL     1      -2.493  13.911  23.901  0.00  0.00    +0.000 A 
ATOM     22  C   UNL     1      -1.335  14.546  23.441  0.00  0.00    +0.000 A 
ATOM     23  C   UNL     1      -0.464  13.875  22.584  0.00  0.00    +0.000 A 
ATOM     24  C   UNL     1      -0.739  12.565  22.166  0.00  0.00    +0.000 A 
ATOM     25  C   UNL     1      -1.895  11.923  22.618  0.00  0.00    +0.000 A 
ATOM     26  C   UNL     1      -2.766  12.599  23.485  0.00  0.00    +0.000 A 
ENDBRANCH  16  24
ENDBRANCH   1  18
TORSDOF 3
ENDMDL
MODEL 4
REMARK VINA RESULT:      -8.0      4.596      7.372
REMARK  Name = 
REMARK  4 active torsions:
REMARK  status: ('A' for Active; 'I' for Inactive)
REMARK    1  A    between atoms: C_1  and  C_2
REMARK    2  A    between atoms: C_5  and  C_6
REMARK    3  A    between atoms: N_8  and  C_9
REMARK    4  A    between atoms: C_13  and  C_14
REMARK                            x       y       z     vdW  Elec       q    Type
REMARK                         _______ _______ _______ _____ _____    ______ ____
ROOT
ATOM      1  C   UNL     1       2.082   5.522  20.680  0.00  0.00    +0.000 A 
ATOM      2  C   UNL     1       1.881   4.294  21.319  0.00  0.00    +0.000 A 
ATOM      3  C   UNL     1       2.488   3.131  20.856  0.00  0.00    +0.000 A 
ATOM      4  C   UNL     1       3.302   3.176  19.731  0.00  0.00    +0.000 A 
ATOM      5  C   UNL     1       3.506   4.382  19.049  0.00  0.00    +0.000 A 
ATOM      6  C   UNL     1       2.883   5.555  19.527  0.00  0.00    +0.000 A 
ENDROOT
BRANCH   5   7
ATOM      7  C   UNL     1       4.378   4.426  17.885  0.00  0.00    +0.000 A 
ATOM      8  C   UNL     1       5.603   5.060  17.831  0.00  0.00    +0.000 A 
ATOM      9  N   UNL     1       6.058   4.881  16.552  0.00  0.00    +0.000 N 
ATOM     10  C   UNL     1       7.247   5.311  15.968  0.00  0.00    +0.000 A 
ATOM     11  C   UNL     1       7.483   5.025  14.677  0.00  0.00    +0.000 A 
ATOM     12  C   UNL     1       6.475   4.289  13.927  0.00  0.00    +0.000 A 
ATOM     13  C   UNL     1       5.327   3.874  14.502  0.00  0.00    +0.000 A 
ATOM     14  C   UNL     1       5.083   4.154  15.877  0.00  0.00    +0.000 A 
ATOM     15  N   UNL     1       4.076   3.847  16.671  0.00  0.00    +0.000 NA
ENDBRANCH   5   7
BRANCH   1  18
ATOM     16  C   UNL     1       1.518   7.933  20.467  0.00  0.00    +0.000 C 
ATOM     17  O   UNL     1       1.973   8.118  19.341  0.00  0.00    +0.000 OA
ATOM     18  N   UNL     1       1.508   6.730  21.159  0.00  0.00    +0.000 N 
ATOM     19  H   UNL     1       0.922   6.661  21.982  0.00  0.00    +0.000 HD
BRANCH  16  24
ATOM     20  C   UNL     1      -1.384  12.234  23.043  0.00  0.00    +0.000 C 
ATOM     21  C   UNL     1      -0.594  11.144  22.378  0.00  0.00    +0.000 A 
ATOM     22  C   UNL     1      -0.472   9.891  22.985  0.00  0.00    +0.000 A 
ATOM     23  C   UNL     1       0.245   8.875  22.355  0.00  0.00    +0.000 A 
ATOM     24  C   UNL     1       0.861   9.097  21.115  0.00  0.00    +0.000 A 
ATOM     25  C   UNL     1       0.748  10.347  20.501  0.00  0.00    +0.000 A 
ATOM     26  C   UNL     1       0.020  11.365  21.135  0.00  0.00    +0.000 A 
ENDBRANCH  16  24
ENDBRANCH   1  18
TORSDOF 3
ENDMDL
MODEL 5
REMARK VINA RESULT:      -8.0      4.486      7.441
REMARK  Name = 
REMARK  4 active torsions:
REMARK  status: ('A' for Active; 'I' for Inactive)
REMARK    1  A    between atoms: C_1  and  C_2
REMARK    2  A    between atoms: C_5  and  C_6
REMARK    3  A    between atoms: N_8  and  C_9
REMARK    4  A    between atoms: C_13  and  C_14
REMARK                            x       y       z     vdW  Elec       q    Type
REMARK                         _______ _______ _______ _____ _____    ______ ____
ROOT
ATOM      1  C   UNL     1       2.049   5.235  20.758  0.00  0.00    +0.000 A 
ATOM      2  C   UNL     1       1.958   4.014  21.433  0.00  0.00    +0.000 A 
ATOM      3  C   UNL     1       2.658   2.894  20.996  0.00  0.00    +0.000 A 
ATOM      4  C   UNL     1       3.458   2.976  19.863  0.00  0.00    +0.000 A 
ATOM      5  C   UNL     1       3.554   4.175  19.146  0.00  0.00    +0.000 A 
ATOM      6  C   UNL     1       2.837   5.304  19.596  0.00  0.00    +0.000 A 
ENDROOT
BRANCH   5   7
ATOM      7  C   UNL     1       4.411   4.259  17.973  0.00  0.00    +0.000 A 
ATOM      8  C   UNL     1       5.717   4.707  17.971  0.00  0.00    +0.000 A 
ATOM      9  N   UNL     1       6.127   4.652  16.666  0.00  0.00    +0.000 N 
ATOM     10  C   UNL     1       7.361   4.982  16.112  0.00  0.00    +0.000 A 
ATOM     11  C   UNL     1       7.539   4.857  14.786  0.00  0.00    +0.000 A 
ATOM     12  C   UNL     1       6.423   4.395  13.970  0.00  0.00    +0.000 A 
ATOM     13  C   UNL     1       5.232   4.075  14.517  0.00  0.00    +0.000 A 
ATOM     14  C   UNL     1       5.047   4.184  15.925  0.00  0.00    +0.000 A 
ATOM     15  N   UNL     1       4.013   3.916  16.698  0.00  0.00    +0.000 NA
ENDBRANCH   5   7
BRANCH   1  18
ATOM     16  C   UNL     1       1.489   7.652  20.613  0.00  0.00    +0.000 C 
ATOM     17  O   UNL     1       2.132   7.919  19.601  0.00  0.00    +0.000 OA
ATOM     18  N   UNL     1       1.379   6.404  21.209  0.00  0.00    +0.000 N 
ATOM     19  H   UNL     1       0.658   6.274  21.907  0.00  0.00    +0.000 HD
BRANCH  16  24
ATOM     20  C   UNL     1      -1.249  12.246  22.839  0.00  0.00    +0.000 C 
ATOM     21  C   UNL     1      -0.577  11.030  22.267  0.00  0.00    +0.000 A 
ATOM     22  C   UNL     1      -0.106  11.040  20.951  0.00  0.00    +0.000 A 
ATOM     23  C   UNL     1       0.535   9.917  20.431  0.00  0.00    +0.000 A 
ATOM     24  C   UNL     1       0.707   8.765  21.211  0.00  0.00    +0.000 A 
ATOM     25  C   UNL     1       0.236   8.745  22.526  0.00  0.00    +0.000 A 
ATOM     26  C   UNL     1      -0.403   9.878  23.049  0.00  0.00    +0.000 A 
ENDBRANCH  16  24
ENDBRANCH   1  18
TORSDOF 3
ENDMDL
MODEL 6
REMARK VINA RESULT:      -7.9      6.903      8.496
REMARK  Name = 
REMARK  4 active torsions:
REMARK  status: ('A' for Active; 'I' for Inactive)
REMARK    1  A    between atoms: C_1  and  C_2
REMARK    2  A    between atoms: C_5  and  C_6
REMARK    3  A    between atoms: N_8  and  C_9
REMARK    4  A    between atoms: C_13  and  C_14
REMARK                            x       y       z     vdW  Elec       q    Type
REMARK                         _______ _______ _______ _____ _____    ______ ____
ROOT
ATOM      1  C   UNL     1       0.491   9.895  19.501  0.00  0.00    +0.000 A 
ATOM      2  C   UNL     1       1.168  10.482  18.428  0.00  0.00    +0.000 A 
ATOM      3  C   UNL     1       2.193   9.813  17.768  0.00  0.00    +0.000 A 
ATOM      4  C   UNL     1       2.568   8.540  18.182  0.00  0.00    +0.000 A 
ATOM      5  C   UNL     1       1.930   7.930  19.269  0.00  0.00    +0.000 A 
ATOM      6  C   UNL     1       0.894   8.620  19.933  0.00  0.00    +0.000 A 
ENDROOT
BRANCH   5   7
ATOM      7  C   UNL     1       2.314   6.588  19.683  0.00  0.00    +0.000 A 
ATOM      8  C   UNL     1       3.309   5.830  19.100  0.00  0.00    +0.000 A 
ATOM      9  N   UNL     1       3.307   4.636  19.771  0.00  0.00    +0.000 N 
ATOM     10  C   UNL     1       4.119   3.519  19.590  0.00  0.00    +0.000 A 
ATOM     11  C   UNL     1       3.930   2.440  20.368  0.00  0.00    +0.000 A 
ATOM     12  C   UNL     1       2.869   2.471  21.364  0.00  0.00    +0.000 A 
ATOM     13  C   UNL     1       2.090   3.560  21.534  0.00  0.00    +0.000 A 
ATOM     14  C   UNL     1       2.301   4.715  20.728  0.00  0.00    +0.000 A 
ATOM     15  N   UNL     1       1.709   5.893  20.708  0.00  0.00    +0.000 NA
ENDBRANCH   5   7
BRANCH   1  18
ATOM     16  C   UNL     1      -0.447  11.386  21.255  0.00  0.00    +0.000 C 
ATOM     17  O   UNL     1       0.611  11.733  21.772  0.00  0.00    +0.000 OA
ATOM     18  N   UNL     1      -0.588  10.540  20.163  0.00  0.00    +0.000 N 
ATOM     19  H   UNL     1      -1.491  10.501  19.707  0.00  0.00    +0.000 HD
BRANCH  16  24
ATOM     20  C   UNL     1      -5.371  13.342  23.596  0.00  0.00    +0.000 C 
ATOM     21  C   UNL     1      -4.083  12.878  22.980  0.00  0.00    +0.000 A 
ATOM     22  C   UNL     1      -3.149  12.175  23.747  0.00  0.00    +0.000 A 
ATOM     23  C   UNL     1      -1.963  11.728  23.168  0.00  0.00    +0.000 A 
ATOM     24  C   UNL     1      -1.686  11.985  21.817  0.00  0.00    +0.000 A 
ATOM     25  C   UNL     1      -2.611  12.689  21.043  0.00  0.00    +0.000 A 
ATOM     26  C   UNL     1      -3.806  13.132  21.628  0.00  0.00    +0.000 A 
ENDBRANCH  16  24
ENDBRANCH   1  18
TORSDOF 3
ENDMDL
MODEL 7
REMARK VINA RESULT:      -7.8      4.640      7.321
REMARK  Name = 
REMARK  4 active torsions:
REMARK  status: ('A' for Active; 'I' for Inactive)
REMARK    1  A    between atoms: C_1  and  C_2
REMARK    2  A    between atoms: C_5  and  C_6
REMARK    3  A    between atoms: N_8  and  C_9
REMARK    4  A    between atoms: C_13  and  C_14
REMARK                            x       y       z     vdW  Elec       q    Type
REMARK                         _______ _______ _______ _____ _____    ______ ____
ROOT
ATOM      1  C   UNL     1       2.083   5.585  20.665  0.00  0.00    +0.000 A 
ATOM      2  C   UNL     1       1.942   4.365  21.334  0.00  0.00    +0.000 A 
ATOM      3  C   UNL     1       2.569   3.212  20.872  0.00  0.00    +0.000 A 
ATOM      4  C   UNL     1       3.344   3.260  19.720  0.00  0.00    +0.000 A 
ATOM      5  C   UNL     1       3.488   4.458  19.009  0.00  0.00    +0.000 A 
ATOM      6  C   UNL     1       2.845   5.620  19.485  0.00  0.00    +0.000 A 
ENDROOT
BRANCH   5   7
ATOM      7  C   UNL     1       4.319   4.505  17.816  0.00  0.00    +0.000 A 
ATOM      8  C   UNL     1       4.029   3.881  16.619  0.00  0.00    +0.000 A 
ATOM      9  N   UNL     1       5.085   4.156  15.791  0.00  0.00    +0.000 N 
ATOM     10  C   UNL     1       5.293   3.775  14.468  0.00  0.00    +0.000 A 
ATOM     11  C   UNL     1       6.422   4.156  13.847  0.00  0.00    +0.000 A 
ATOM     12  C   UNL     1       7.399   4.942  14.589  0.00  0.00    +0.000 A 
ATOM     13  C   UNL     1       7.187   5.309  15.870  0.00  0.00    +0.000 A 
ATOM     14  C   UNL     1       5.980   4.927  16.525  0.00  0.00    +0.000 A 
ATOM     15  N   UNL     1       5.524   5.170  17.738  0.00  0.00    +0.000 NA
ENDBRANCH   5   7
BRANCH   1  18
ATOM     16  C   UNL     1       1.515   7.997  20.464  0.00  0.00    +0.000 C 
ATOM     17  O   UNL     1       2.006   8.199  19.356  0.00  0.00    +0.000 OA
ATOM     18  N   UNL     1       1.489   6.785  21.140  0.00  0.00    +0.000 N 
ATOM     19  H   UNL     1       0.876   6.703  21.942  0.00  0.00    +0.000 HD
BRANCH  16  24
ATOM     20  C   UNL     1      -1.464  12.233  23.058  0.00  0.00    +0.000 C 
ATOM     21  C   UNL     1      -0.656  11.162  22.383  0.00  0.00    +0.000 A 
ATOM     22  C   UNL     1      -0.379   9.964  23.047  0.00  0.00    +0.000 A 
ATOM     23  C   UNL     1       0.354   8.965  22.410  0.00  0.00    +0.000 A 
ATOM     24  C   UNL     1       0.831   9.150  21.104  0.00  0.00    +0.000 A 
ATOM     25  C   UNL     1       0.562  10.345  20.433  0.00  0.00    +0.000 A 
ATOM     26  C   UNL     1      -0.181  11.346  21.075  0.00  0.00    +0.000 A 
ENDBRANCH  16  24
ENDBRANCH   1  18
TORSDOF 3
ENDMDL
MODEL 8
REMARK VINA RESULT:      -7.8      1.216      1.819
REMARK  Name = 
REMARK  4 active torsions:
REMARK  status: ('A' for Active; 'I' for Inactive)
REMARK    1  A    between atoms: C_1  and  C_2
REMARK    2  A    between atoms: C_5  and  C_6
REMARK    3  A    between atoms: N_8  and  C_9
REMARK    4  A    between atoms: C_13  and  C_14
REMARK                            x       y       z     vdW  Elec       q    Type
REMARK                         _______ _______ _______ _____ _____    ______ ____
ROOT
ATOM      1  C   UNL     1       7.356   6.551  17.572  0.00  0.00    +0.000 A 
ATOM      2  C   UNL     1       7.547   6.023  16.290  0.00  0.00    +0.000 A 
ATOM      3  C   UNL     1       6.727   5.015  15.795  0.00  0.00    +0.000 A 
ATOM      4  C   UNL     1       5.702   4.506  16.583  0.00  0.00    +0.000 A 
ATOM      5  C   UNL     1       5.496   4.991  17.881  0.00  0.00    +0.000 A 
ATOM      6  C   UNL     1       6.335   6.012  18.374  0.00  0.00    +0.000 A 
ENDROOT
BRANCH   5   7
ATOM      7  C   UNL     1       4.406   4.468  18.692  0.00  0.00    +0.000 A 
ATOM      8  C   UNL     1       4.558   3.705  19.832  0.00  0.00    +0.000 A 
ATOM      9  N   UNL     1       3.289   3.405  20.250  0.00  0.00    +0.000 N 
ATOM     10  C   UNL     1       2.874   2.667  21.356  0.00  0.00    +0.000 A 
ATOM     11  C   UNL     1       1.559   2.491  21.568  0.00  0.00    +0.000 A 
ATOM     12  C   UNL     1       0.613   3.064  20.621  0.00  0.00    +0.000 A 
ATOM     13  C   UNL     1       1.025   3.780  19.554  0.00  0.00    +0.000 A 
ATOM     14  C   UNL     1       2.417   3.990  19.338  0.00  0.00    +0.000 A 
ATOM     15  N   UNL     1       3.071   4.657  18.407  0.00  0.00    +0.000 NA
ENDBRANCH   5   7
BRANCH   1  18
ATOM     16  C   UNL     1       7.934   8.955  17.818  0.00  0.00    +0.000 C 
ATOM     17  O   UNL     1       7.014   9.424  17.154  0.00  0.00    +0.000 OA
ATOM     18  N   UNL     1       8.151   7.610  18.083  0.00  0.00    +0.000 N 
ATOM     19  H   UNL     1       8.815   7.371  18.810  0.00  0.00    +0.000 HD
BRANCH  16  24
ATOM     20  C   UNL     1      11.848  12.606  20.033  0.00  0.00    +0.000 C 
ATOM     21  C   UNL     1      10.801  11.683  19.480  0.00  0.00    +0.000 A 
ATOM     22  C   UNL     1      10.615  11.576  18.098  0.00  0.00    +0.000 A 
ATOM     23  C   UNL     1       9.656  10.703  17.588  0.00  0.00    +0.000 A 
ATOM     24  C   UNL     1       8.860   9.932  18.448  0.00  0.00    +0.000 A 
ATOM     25  C   UNL     1       9.035  10.035  19.829  0.00  0.00    +0.000 A 
ATOM     26  C   UNL     1      10.006  10.909  20.340  0.00  0.00    +0.000 A 
ENDBRANCH  16  24
ENDBRANCH   1  18
TORSDOF 3
ENDMDL
MODEL 9
REMARK VINA RESULT:      -7.7      4.538      7.282
REMARK  Name = 
REMARK  4 active torsions:
REMARK  status: ('A' for Active; 'I' for Inactive)
REMARK    1  A    between atoms: C_1  and  C_2
REMARK    2  A    between atoms: C_5  and  C_6
REMARK    3  A    between atoms: N_8  and  C_9
REMARK    4  A    between atoms: C_13  and  C_14
REMARK                            x       y       z     vdW  Elec       q    Type
REMARK                         _______ _______ _______ _____ _____    ______ ____
ROOT
ATOM      1  C   UNL     1       3.210   5.209  18.541  0.00  0.00    +0.000 A 
ATOM      2  C   UNL     1       3.049   4.169  19.462  0.00  0.00    +0.000 A 
ATOM      3  C   UNL     1       2.371   4.365  20.661  0.00  0.00    +0.000 A 
ATOM      4  C   UNL     1       1.850   5.616  20.965  0.00  0.00    +0.000 A 
ATOM      5  C   UNL     1       2.013   6.689  20.079  0.00  0.00    +0.000 A 
ATOM      6  C   UNL     1       2.705   6.479  18.868  0.00  0.00    +0.000 A 
ENDROOT
BRANCH   5   7
ATOM      7  C   UNL     1       1.445   7.991  20.394  0.00  0.00    +0.000 A 
ATOM      8  C   UNL     1       0.886   8.342  21.606  0.00  0.00    +0.000 A 
ATOM      9  N   UNL     1       0.450   9.632  21.454  0.00  0.00    +0.000 N 
ATOM     10  C   UNL     1      -0.179  10.467  22.375  0.00  0.00    +0.000 A 
ATOM     11  C   UNL     1      -0.531  11.708  21.998  0.00  0.00    +0.000 A 
ATOM     12  C   UNL     1      -0.257  12.130  20.631  0.00  0.00    +0.000 A 
ATOM     13  C   UNL     1       0.356  11.315  19.748  0.00  0.00    +0.000 A 
ATOM     14  C   UNL     1       0.752  10.006  20.150  0.00  0.00    +0.000 A 
ATOM     15  N   UNL     1       1.376   9.040  19.504  0.00  0.00    +0.000 NA
ENDBRANCH   5   7
BRANCH   1  18
ATOM     16  C   UNL     1       5.235   5.066  17.107  0.00  0.00    +0.000 C 
ATOM     17  O   UNL     1       6.080   5.222  17.984  0.00  0.00    +0.000 OA
ATOM     18  N   UNL     1       3.860   5.023  17.292  0.00  0.00    +0.000 N 
ATOM     19  H   UNL     1       3.290   4.682  16.528  0.00  0.00    +0.000 HD
BRANCH  16  24
ATOM     20  C   UNL     1       7.132   3.775  11.788  0.00  0.00    +0.000 C 
ATOM     21  C   UNL     1       6.644   4.154  13.157  0.00  0.00    +0.000 A 
ATOM     22  C   UNL     1       5.364   3.780  13.577  0.00  0.00    +0.000 A 
ATOM     23  C   UNL     1       4.921   4.116  14.855  0.00  0.00    +0.000 A 
ATOM     24  C   UNL     1       5.745   4.838  15.730  0.00  0.00    +0.000 A 
ATOM     25  C   UNL     1       7.025   5.219  15.319  0.00  0.00    +0.000 A 
ATOM     26  C   UNL     1       7.469   4.874  14.034  0.00  0.00    +0.000 A 
ENDBRANCH  16  24
ENDBRANCH   1  18
TORSDOF 3
ENDMDL
