MODEL 1
REMARK VINA RESULT:      -8.5      0.000      0.000
REMARK  Name = 
REMARK  7 active torsions:
REMARK  status: ('A' for Active; 'I' for Inactive)
REMARK    1  A    between atoms: C_1  and  C_2
REMARK    2  A    between atoms: C_2  and  O_3
REMARK    3  A    between atoms: C_2  and  C_4
REMARK    4  A    between atoms: C_2  and  C_21
REMARK    5  A    between atoms: N_6  and  C_7
REMARK    6  A    between atoms: C_11  and  C_12
REMARK    7  A    between atoms: C_12  and  C_14
REMARK                            x       y       z     vdW  Elec       q    Type
REMARK                         _______ _______ _______ _____ _____    ______ ____
ROOT
ATOM      1  C   UNL     1       3.680   5.261  17.892  0.00  0.00    +0.000 A 
ATOM      2  C   UNL     1       3.540   6.647  17.780  0.00  0.00    +0.000 A 
ATOM      3  C   UNL     1       4.467   7.411  17.073  0.00  0.00    +0.000 A 
ATOM      4  C   UNL     1       5.548   6.793  16.455  0.00  0.00    +0.000 A 
ATOM      5  C   UNL     1       5.701   5.402  16.550  0.00  0.00    +0.000 A 
ATOM      6  C   UNL     1       4.788   4.644  17.302  0.00  0.00    +0.000 A 
ENDROOT
BRANCH   1   9
ATOM      7  C   UNL     1       3.076   3.417  19.449  0.00  0.00    +0.000 C 
ATOM      8  O   UNL     1       4.214   3.108  19.778  0.00  0.00    +0.000 OA
ATOM      9  N   UNL     1       2.744   4.464  18.591  0.00  0.00    +0.000 N 
ATOM     10  H   UNL     1       1.765   4.746  18.574  0.00  0.00    +0.000 HD
BRANCH   7  12
ATOM     11  C   UNL     1       0.586   3.343  19.517  0.00  0.00    +0.000 C 
ATOM     12  C   UNL     1       1.871   2.661  20.016  0.00  0.00    +0.000 C 
BRANCH  12  13
ATOM     13  C   UNL     1       1.969   2.746  21.555  0.00  0.00    +0.000 C 
ATOM     14  F   UNL     1       2.952   1.952  22.047  0.00  0.00    +0.000 F 
ATOM     15  F   UNL     1       2.255   4.007  21.962  0.00  0.00    +0.000 F 
ATOM     16  F   UNL     1       0.826   2.392  22.187  0.00  0.00    +0.000 F 
ENDBRANCH  12  13
BRANCH  12  17
ATOM     17  O   UNL     1       1.891   1.304  19.510  0.00  0.00    +0.000 OA
ATOM     18  H   UNL     1       2.743   0.905  19.768  0.00  0.00    +0.000 HD
ENDBRANCH  12  17
ENDBRANCH   7  12
ENDBRANCH   1   9
BRANCH   5  19
ATOM     19  C   UNL     1       6.858   4.785  15.848  0.00  0.00    +0.000 C 
ATOM     20  O   UNL     1       7.856   4.472  16.491  0.00  0.00    +0.000 OA
BRANCH  19  21
ATOM     21  C   UNL     1       6.838   4.538  14.381  0.00  0.00    +0.000 A 
ATOM     22  C   UNL     1       7.714   5.271  13.572  0.00  0.00    +0.000 A 
ATOM     23  C   UNL     1       7.741   5.052  12.194  0.00  0.00    +0.000 A 
ATOM     24  C   UNL     1       6.890   4.109  11.619  0.00  0.00    +0.000 A 
ATOM     25  C   UNL     1       5.996   3.395  12.418  0.00  0.00    +0.000 A 
ATOM     26  C   UNL     1       5.958   3.619  13.796  0.00  0.00    +0.000 A 
ENDBRANCH  19  21
ENDBRANCH   5  19
TORSDOF 6
ENDMDL
MODEL 2
REMARK VINA RESULT:      -8.3      1.622      2.204
REMARK  Name = 
REMARK  7 active torsions:
REMARK  status: ('A' for Active; 'I' for Inactive)
REMARK    1  A    between atoms: C_1  and  C_2
REMARK    2  A    between atoms: C_2  and  O_3
REMARK    3  A    between atoms: C_2  and  C_4
REMARK    4  A    between atoms: C_2  and  C_21
REMARK    5  A    between atoms: N_6  and  C_7
REMARK    6  A    between atoms: C_11  and  C_12
REMARK    7  A    between atoms: C_12  and  C_14
REMARK                            x       y       z     vdW  Elec       q    Type
REMARK                         _______ _______ _______ _____ _____    ______ ____
ROOT
ATOM      1  C   UNL     1       5.079   4.311  17.338  0.00  0.00    +0.000 A 
ATOM      2  C   UNL     1       6.134   4.471  18.240  0.00  0.00    +0.000 A 
ATOM      3  C   UNL     1       7.435   4.699  17.795  0.00  0.00    +0.000 A 
ATOM      4  C   UNL     1       7.697   4.783  16.433  0.00  0.00    +0.000 A 
ATOM      5  C   UNL     1       6.650   4.632  15.512  0.00  0.00    +0.000 A 
ATOM      6  C   UNL     1       5.349   4.357  15.966  0.00  0.00    +0.000 A 
ENDROOT
BRANCH   1   9
ATOM      7  C   UNL     1       3.340   3.043  18.587  0.00  0.00    +0.000 C 
ATOM      8  O   UNL     1       4.087   2.228  19.113  0.00  0.00    +0.000 OA
ATOM      9  N   UNL     1       3.748   4.093  17.767  0.00  0.00    +0.000 N 
ATOM     10  H   UNL     1       3.058   4.818  17.576  0.00  0.00    +0.000 HD
BRANCH   7  12
ATOM     11  C   UNL     1       1.138   3.953  17.859  0.00  0.00    +0.000 C 
ATOM     12  C   UNL     1       1.831   2.989  18.836  0.00  0.00    +0.000 C 
BRANCH  12  13
ATOM     13  C   UNL     1       1.598   3.437  20.297  0.00  0.00    +0.000 C 
ATOM     14  F   UNL     1       2.577   4.266  20.737  0.00  0.00    +0.000 F 
ATOM     15  F   UNL     1       0.432   4.119  20.423  0.00  0.00    +0.000 F 
ATOM     16  F   UNL     1       1.534   2.407  21.171  0.00  0.00    +0.000 F 
ENDBRANCH  12  13
BRANCH  12  17
ATOM     17  O   UNL     1       1.360   1.647  18.562  0.00  0.00    +0.000 OA
ATOM     18  H   UNL     1       1.707   1.063  19.262  0.00  0.00    +0.000 HD
ENDBRANCH  12  17
ENDBRANCH   7  12
ENDBRANCH   1   9
BRANCH   5  19
ATOM     19  C   UNL     1       6.977   4.758  14.066  0.00  0.00    +0.000 C 
ATOM     20  O   UNL     1       7.813   5.583  13.708  0.00  0.00    +0.000 OA
BRANCH  19  21
ATOM     21  C   UNL     1       6.314   3.909  13.040  0.00  0.00    +0.000 A 
ATOM     22  C   UNL     1       7.088   2.962  12.362  0.00  0.00    +0.000 A 
ATOM     23  C   UNL     1       6.499   2.131  11.408  0.00  0.00    +0.000 A 
ATOM     24  C   UNL     1       5.139   2.249  11.123  0.00  0.00    +0.000 A 
ATOM     25  C   UNL     1       4.369   3.211  11.777  0.00  0.00    +0.000 A 
ATOM     26  C   UNL     1       4.957   4.052  12.724  0.00  0.00    +0.000 A 
ENDBRANCH  19  21
ENDBRANCH   5  19
TORSDOF 6
ENDMDL
MODEL 3
REMARK VINA RESULT:      -8.2      0.216      1.010
REMARK  Name = 
REMARK  7 active torsions:
REMARK  status: ('A' for Active; 'I' for Inactive)
REMARK    1  A    between atoms: C_1  and  C_2
REMARK    2  A    between atoms: C_2  and  O_3
REMARK    3  A    between atoms: C_2  and  C_4
REMARK    4  A    between atoms: C_2  and  C_21
REMARK    5  A    between atoms: N_6  and  C_7
REMARK    6  A    between atoms: C_11  and  C_12
REMARK    7  A    between atoms: C_12  and  C_14
REMARK                            x       y       z     vdW  Elec       q    Type
REMARK                         _______ _______ _______ _____ _____    ______ ____
ROOT
ATOM      1  C   UNL     1       3.670   5.355  18.032  0.00  0.00    +0.000 A 
ATOM      2  C   UNL     1       3.494   6.730  17.846  0.00  0.00    +0.000 A 
ATOM      3  C   UNL     1       4.402   7.478  17.100  0.00  0.00    +0.000 A 
ATOM      4  C   UNL     1       5.499   6.856  16.515  0.00  0.00    +0.000 A 
ATOM      5  C   UNL     1       5.688   5.477  16.683  0.00  0.00    +0.000 A 
ATOM      6  C   UNL     1       4.794   4.736  17.475  0.00  0.00    +0.000 A 
ENDROOT
BRANCH   1   9
ATOM      7  C   UNL     1       3.025   3.306  19.287  0.00  0.00    +0.000 C 
ATOM      8  O   UNL     1       4.112   2.745  19.242  0.00  0.00    +0.000 OA
ATOM      9  N   UNL     1       2.754   4.573  18.773  0.00  0.00    +0.000 N 
ATOM     10  H   UNL     1       1.879   5.007  19.067  0.00  0.00    +0.000 HD
BRANCH   7  12
ATOM     11  C   UNL     1       0.544   3.334  19.513  0.00  0.00    +0.000 C 
ATOM     12  C   UNL     1       1.834   2.640  19.980  0.00  0.00    +0.000 C 
BRANCH  12  13
ATOM     13  C   UNL     1       2.033   2.830  21.500  0.00  0.00    +0.000 C 
ATOM     14  F   UNL     1       3.122   2.163  21.958  0.00  0.00    +0.000 F 
ATOM     15  F   UNL     1       2.225   4.136  21.813  0.00  0.00    +0.000 F 
ATOM     16  F   UNL     1       0.979   2.412  22.237  0.00  0.00    +0.000 F 
ENDBRANCH  12  13
BRANCH  12  17
ATOM     17  O   UNL     1       1.776   1.250  19.575  0.00  0.00    +0.000 OA
ATOM     18  H   UNL     1       0.881   1.082  19.224  0.00  0.00    +0.000 HD
ENDBRANCH  12  17
ENDBRANCH   7  12
ENDBRANCH   1   9
BRANCH   5  19
ATOM     19  C   UNL     1       6.861   4.853  16.014  0.00  0.00    +0.000 C 
ATOM     20  O   UNL     1       7.829   4.513  16.688  0.00  0.00    +0.000 OA
BRANCH  19  21
ATOM     21  C   UNL     1       6.892   4.630  14.543  0.00  0.00    +0.000 A 
ATOM     22  C   UNL     1       6.052   3.651  14.002  0.00  0.00    +0.000 A 
ATOM     23  C   UNL     1       6.036   3.426  12.625  0.00  0.00    +0.000 A 
ATOM     24  C   UNL     1       6.863   4.173  11.786  0.00  0.00    +0.000 A 
ATOM     25  C   UNL     1       7.722   5.132  12.324  0.00  0.00    +0.000 A 
ATOM     26  C   UNL     1       7.749   5.351  13.702  0.00  0.00    +0.000 A 
ENDBRANCH  19  21
ENDBRANCH   5  19
TORSDOF 6
ENDMDL
MODEL 4
REMARK VINA RESULT:      -8.2      1.476      2.062
REMARK  Name = 
REMARK  7 active torsions:
REMARK  status: ('A' for Active; 'I' for Inactive)
REMARK    1  A    between atoms: C_1  and  C_2
REMARK    2  A    between atoms: C_2  and  O_3
REMARK    3  A    between atoms: C_2  and  C_4
REMARK    4  A    between atoms: C_2  and  C_21
REMARK    5  A    between atoms: N_6  and  C_7
REMARK    6  A    between atoms: C_11  and  C_12
REMARK    7  A    between atoms: C_12  and  C_14
REMARK                            x       y       z     vdW  Elec       q    Type
REMARK                         _______ _______ _______ _____ _____    ______ ____
ROOT
ATOM      1  C   UNL     1       4.367   4.637  17.157  0.00  0.00    +0.000 A 
ATOM      2  C   UNL     1       4.133   6.000  17.364  0.00  0.00    +0.000 A 
ATOM      3  C   UNL     1       4.733   6.965  16.558  0.00  0.00    +0.000 A 
ATOM      4  C   UNL     1       5.572   6.578  15.520  0.00  0.00    +0.000 A 
ATOM      5  C   UNL     1       5.814   5.215  15.292  0.00  0.00    +0.000 A 
ATOM      6  C   UNL     1       5.241   4.249  16.137  0.00  0.00    +0.000 A 
ENDROOT
BRANCH   1   9
ATOM      7  C   UNL     1       2.382   3.433  18.052  0.00  0.00    +0.000 C 
ATOM      8  O   UNL     1       1.532   4.025  17.401  0.00  0.00    +0.000 OA
ATOM      9  N   UNL     1       3.757   3.640  17.953  0.00  0.00    +0.000 N 
ATOM     10  H   UNL     1       4.356   2.938  18.386  0.00  0.00    +0.000 HD
BRANCH   7  12
ATOM     11  C   UNL     1       0.479   2.056  18.880  0.00  0.00    +0.000 C 
ATOM     12  C   UNL     1       1.980   2.340  19.046  0.00  0.00    +0.000 C 
BRANCH  12  13
ATOM     13  C   UNL     1       2.276   2.886  20.460  0.00  0.00    +0.000 C 
ATOM     14  F   UNL     1       2.178   4.237  20.516  0.00  0.00    +0.000 F 
ATOM     15  F   UNL     1       1.395   2.400  21.370  0.00  0.00    +0.000 F 
ATOM     16  F   UNL     1       3.509   2.563  20.914  0.00  0.00    +0.000 F 
ENDBRANCH  12  13
BRANCH  12  17
ATOM     17  O   UNL     1       2.711   1.130  18.729  0.00  0.00    +0.000 OA
ATOM     18  H   UNL     1       2.617   0.970  17.772  0.00  0.00    +0.000 HD
ENDBRANCH  12  17
ENDBRANCH   7  12
ENDBRANCH   1   9
BRANCH   5  19
ATOM     19  C   UNL     1       6.696   4.851  14.152  0.00  0.00    +0.000 C 
ATOM     20  O   UNL     1       7.827   5.326  14.090  0.00  0.00    +0.000 OA
BRANCH  19  21
ATOM     21  C   UNL     1       6.243   3.924  13.080  0.00  0.00    +0.000 A 
ATOM     22  C   UNL     1       4.886   3.913  12.742  0.00  0.00    +0.000 A 
ATOM     23  C   UNL     1       4.425   3.073  11.728  0.00  0.00    +0.000 A 
ATOM     24  C   UNL     1       5.315   2.238  11.054  0.00  0.00    +0.000 A 
ATOM     25  C   UNL     1       6.665   2.226  11.406  0.00  0.00    +0.000 A 
ATOM     26  C   UNL     1       7.128   3.056  12.428  0.00  0.00    +0.000 A 
ENDBRANCH  19  21
ENDBRANCH   5  19
TORSDOF 6
ENDMDL
MODEL 5
REMARK VINA RESULT:      -8.1      1.566      2.055
REMARK  Name = 
REMARK  7 active torsions:
REMARK  status: ('A' for Active; 'I' for Inactive)
REMARK    1  A    between atoms: C_1  and  C_2
REMARK    2  A    between atoms: C_2  and  O_3
REMARK    3  A    between atoms: C_2  and  C_4
REMARK    4  A    between atoms: C_2  and  C_21
REMARK    5  A    between atoms: N_6  and  C_7
REMARK    6  A    between atoms: C_11  and  C_12
REMARK    7  A    between atoms: C_12  and  C_14
REMARK                            x       y       z     vdW  Elec       q    Type
REMARK                         _______ _______ _______ _____ _____    ______ ____
ROOT
ATOM      1  C   UNL     1       4.570   4.684  17.125  0.00  0.00    +0.000 A 
ATOM      2  C   UNL     1       4.182   6.024  17.216  0.00  0.00    +0.000 A 
ATOM      3  C   UNL     1       4.624   6.967  16.290  0.00  0.00    +0.000 A 
ATOM      4  C   UNL     1       5.456   6.579  15.247  0.00  0.00    +0.000 A 
ATOM      5  C   UNL     1       5.851   5.237  15.135  0.00  0.00    +0.000 A 
ATOM      6  C   UNL     1       5.438   4.300  16.097  0.00  0.00    +0.000 A 
ENDROOT
BRANCH   1   9
ATOM      7  C   UNL     1       4.732   3.424  19.264  0.00  0.00    +0.000 C 
ATOM      8  O   UNL     1       5.678   4.041  19.739  0.00  0.00    +0.000 OA
ATOM      9  N   UNL     1       4.121   3.707  18.044  0.00  0.00    +0.000 N 
ATOM     10  H   UNL     1       3.220   3.264  17.872  0.00  0.00    +0.000 HD
BRANCH   7  12
ATOM     11  C   UNL     1       3.732   1.155  19.034  0.00  0.00    +0.000 C 
ATOM     12  C   UNL     1       4.095   2.265  20.033  0.00  0.00    +0.000 C 
BRANCH  12  13
ATOM     13  C   UNL     1       2.825   2.819  20.715  0.00  0.00    +0.000 C 
ATOM     14  F   UNL     1       2.660   2.323  21.966  0.00  0.00    +0.000 F 
ATOM     15  F   UNL     1       2.884   4.169  20.844  0.00  0.00    +0.000 F 
ATOM     16  F   UNL     1       1.688   2.551  20.034  0.00  0.00    +0.000 F 
ENDBRANCH  12  13
BRANCH  12  17
ATOM     17  O   UNL     1       5.067   1.735  20.968  0.00  0.00    +0.000 OA
ATOM     18  H   UNL     1       5.922   1.674  20.503  0.00  0.00    +0.000 HD
ENDBRANCH  12  17
ENDBRANCH   7  12
ENDBRANCH   1   9
BRANCH   5  19
ATOM     19  C   UNL     1       6.719   4.866  13.986  0.00  0.00    +0.000 C 
ATOM     20  O   UNL     1       7.838   5.362  13.891  0.00  0.00    +0.000 OA
BRANCH  19  21
ATOM     21  C   UNL     1       6.264   3.906  12.943  0.00  0.00    +0.000 A 
ATOM     22  C   UNL     1       7.225   3.111  12.310  0.00  0.00    +0.000 A 
ATOM     23  C   UNL     1       6.836   2.183  11.342  0.00  0.00    +0.000 A 
ATOM     24  C   UNL     1       5.490   2.053  11.000  0.00  0.00    +0.000 A 
ATOM     25  C   UNL     1       4.533   2.864  11.609  0.00  0.00    +0.000 A 
ATOM     26  C   UNL     1       4.919   3.801  12.569  0.00  0.00    +0.000 A 
ENDBRANCH  19  21
ENDBRANCH   5  19
TORSDOF 6
ENDMDL
MODEL 6
REMARK VINA RESULT:      -8.1      1.442      1.760
REMARK  Name = 
REMARK  7 active torsions:
REMARK  status: ('A' for Active; 'I' for Inactive)
REMARK    1  A    between atoms: C_1  and  C_2
REMARK    2  A    between atoms: C_2  and  O_3
REMARK    3  A    between atoms: C_2  and  C_4
REMARK    4  A    between atoms: C_2  and  C_21
REMARK    5  A    between atoms: N_6  and  C_7
REMARK    6  A    between atoms: C_11  and  C_12
REMARK    7  A    between atoms: C_12  and  C_14
REMARK                            x       y       z     vdW  Elec       q    Type
REMARK                         _______ _______ _______ _____ _____    ______ ____
ROOT
ATOM      1  C   UNL     1       4.232   4.735  17.299  0.00  0.00    +0.000 A 
ATOM      2  C   UNL     1       4.020   6.104  17.490  0.00  0.00    +0.000 A 
ATOM      3  C   UNL     1       4.653   7.051  16.688  0.00  0.00    +0.000 A 
ATOM      4  C   UNL     1       5.504   6.640  15.668  0.00  0.00    +0.000 A 
ATOM      5  C   UNL     1       5.723   5.271  15.455  0.00  0.00    +0.000 A 
ATOM      6  C   UNL     1       5.117   4.322  16.297  0.00  0.00    +0.000 A 
ENDROOT
BRANCH   1   9
ATOM      7  C   UNL     1       2.209   3.579  18.170  0.00  0.00    +0.000 C 
ATOM      8  O   UNL     1       1.381   4.185  17.502  0.00  0.00    +0.000 OA
ATOM      9  N   UNL     1       3.589   3.756  18.091  0.00  0.00    +0.000 N 
ATOM     10  H   UNL     1       4.166   3.044  18.537  0.00  0.00    +0.000 HD
BRANCH   7  12
ATOM     11  C   UNL     1       0.379   1.991  18.749  0.00  0.00    +0.000 C 
ATOM     12  C   UNL     1       1.768   2.502  19.164  0.00  0.00    +0.000 C 
BRANCH  12  13
ATOM     13  C   UNL     1       1.708   3.169  20.555  0.00  0.00    +0.000 C 
ATOM     14  F   UNL     1       2.839   3.862  20.838  0.00  0.00    +0.000 F 
ATOM     15  F   UNL     1       0.686   4.058  20.632  0.00  0.00    +0.000 F 
ATOM     16  F   UNL     1       1.524   2.290  21.566  0.00  0.00    +0.000 F 
ENDBRANCH  12  13
BRANCH  12  17
ATOM     17  O   UNL     1       2.700   1.394  19.095  0.00  0.00    +0.000 OA
ATOM     18  H   UNL     1       2.222   0.628  18.728  0.00  0.00    +0.000 HD
ENDBRANCH  12  17
ENDBRANCH   7  12
ENDBRANCH   1   9
BRANCH   5  19
ATOM     19  C   UNL     1       6.619   4.881  14.334  0.00  0.00    +0.000 C 
ATOM     20  O   UNL     1       7.778   5.284  14.321  0.00  0.00    +0.000 OA
BRANCH  19  21
ATOM     21  C   UNL     1       6.145   4.012  13.223  0.00  0.00    +0.000 A 
ATOM     22  C   UNL     1       7.081   3.211  12.561  0.00  0.00    +0.000 A 
ATOM     23  C   UNL     1       6.673   2.365  11.529  0.00  0.00    +0.000 A 
ATOM     24  C   UNL     1       5.331   2.324  11.150  0.00  0.00    +0.000 A 
ATOM     25  C   UNL     1       4.399   3.141  11.789  0.00  0.00    +0.000 A 
ATOM     26  C   UNL     1       4.806   3.996  12.814  0.00  0.00    +0.000 A 
ENDBRANCH  19  21
ENDBRANCH   5  19
TORSDOF 6
ENDMDL
MODEL 7
REMARK VINA RESULT:      -8.0      1.183      1.462
REMARK  Name = 
REMARK  7 active torsions:
REMARK  status: ('A' for Active; 'I' for Inactive)
REMARK    1  A    between atoms: C_1  and  C_2
REMARK    2  A    between atoms: C_2  and  O_3
REMARK    3  A    between atoms: C_2  and  C_4
REMARK    4  A    between atoms: C_2  and  C_21
REMARK    5  A    between atoms: N_6  and  C_7
REMARK    6  A    between atoms: C_11  and  C_12
REMARK    7  A    between atoms: C_12  and  C_14
REMARK                            x       y       z     vdW  Elec       q    Type
REMARK                         _______ _______ _______ _____ _____    ______ ____
ROOT
ATOM      1  C   UNL     1       3.814   5.517  18.055  0.00  0.00    +0.000 A 
ATOM      2  C   UNL     1       3.589   6.853  17.712  0.00  0.00    +0.000 A 
ATOM      3  C   UNL     1       4.418   7.514  16.808  0.00  0.00    +0.000 A 
ATOM      4  C   UNL     1       5.483   6.840  16.222  0.00  0.00    +0.000 A 
ATOM      5  C   UNL     1       5.719   5.497  16.547  0.00  0.00    +0.000 A 
ATOM      6  C   UNL     1       4.907   4.849  17.494  0.00  0.00    +0.000 A 
ENDROOT
BRANCH   1   9
ATOM      7  C   UNL     1       1.969   3.934  18.586  0.00  0.00    +0.000 C 
ATOM      8  O   UNL     1       1.735   3.575  17.439  0.00  0.00    +0.000 OA
ATOM      9  N   UNL     1       2.977   4.821  18.959  0.00  0.00    +0.000 N 
ATOM     10  H   UNL     1       3.201   4.865  19.952  0.00  0.00    +0.000 HD
BRANCH   7  12
ATOM     11  C   UNL     1       0.869   4.521  20.743  0.00  0.00    +0.000 C 
ATOM     12  C   UNL     1       1.155   3.377  19.756  0.00  0.00    +0.000 C 
BRANCH  12  13
ATOM     13  C   UNL     1       2.017   2.285  20.426  0.00  0.00    +0.000 C 
ATOM     14  F   UNL     1       1.570   1.973  21.668  0.00  0.00    +0.000 F 
ATOM     15  F   UNL     1       1.996   1.132  19.711  0.00  0.00    +0.000 F 
ATOM     16  F   UNL     1       3.319   2.630  20.553  0.00  0.00    +0.000 F 
ENDBRANCH  12  13
BRANCH  12  17
ATOM     17  O   UNL     1      -0.111   2.884  19.252  0.00  0.00    +0.000 OA
ATOM     18  H   UNL     1      -0.596   2.494  20.003  0.00  0.00    +0.000 HD
ENDBRANCH  12  17
ENDBRANCH   7  12
ENDBRANCH   1   9
BRANCH   5  19
ATOM     19  C   UNL     1       6.853   4.811  15.872  0.00  0.00    +0.000 C 
ATOM     20  O   UNL     1       7.822   4.453  16.535  0.00  0.00    +0.000 OA
BRANCH  19  21
ATOM     21  C   UNL     1       6.844   4.547  14.407  0.00  0.00    +0.000 A 
ATOM     22  C   UNL     1       7.727   5.269  13.597  0.00  0.00    +0.000 A 
ATOM     23  C   UNL     1       7.764   5.036  12.222  0.00  0.00    +0.000 A 
ATOM     24  C   UNL     1       6.916   4.086  11.652  0.00  0.00    +0.000 A 
ATOM     25  C   UNL     1       6.015   3.383  12.452  0.00  0.00    +0.000 A 
ATOM     26  C   UNL     1       5.967   3.623  13.826  0.00  0.00    +0.000 A 
ENDBRANCH  19  21
ENDBRANCH   5  19
TORSDOF 6
ENDMDL
MODEL 8
REMARK VINA RESULT:      -7.9      0.996      1.619
REMARK  Name = 
REMARK  7 active torsions:
REMARK  status: ('A' for Active; 'I' for Inactive)
REMARK    1  A    between atoms: C_1  and  C_2
REMARK    2  A    between atoms: C_2  and  O_3
REMARK    3  A    between atoms: C_2  and  C_4
REMARK    4  A    between atoms: C_2  and  C_21
REMARK    5  A    between atoms: N_6  and  C_7
REMARK    6  A    between atoms: C_11  and  C_12
REMARK    7  A    between atoms: C_12  and  C_14
REMARK                            x       y       z     vdW  Elec       q    Type
REMARK                         _______ _______ _______ _____ _____    ______ ____
ROOT
ATOM      1  C   UNL     1       3.809   5.563  18.073  0.00  0.00    +0.000 A 
ATOM      2  C   UNL     1       3.574   6.878  17.662  0.00  0.00    +0.000 A 
ATOM      3  C   UNL     1       4.392   7.496  16.718  0.00  0.00    +0.000 A 
ATOM      4  C   UNL     1       5.457   6.798  16.160  0.00  0.00    +0.000 A 
ATOM      5  C   UNL     1       5.704   5.475  16.555  0.00  0.00    +0.000 A 
ATOM      6  C   UNL     1       4.902   4.874  17.540  0.00  0.00    +0.000 A 
ENDROOT
BRANCH   1   9
ATOM      7  C   UNL     1       2.082   3.891  18.717  0.00  0.00    +0.000 C 
ATOM      8  O   UNL     1       1.953   3.367  17.618  0.00  0.00    +0.000 OA
ATOM      9  N   UNL     1       2.982   4.911  19.018  0.00  0.00    +0.000 N 
ATOM     10  H   UNL     1       3.140   5.103  20.007  0.00  0.00    +0.000 HD
BRANCH   7  12
ATOM     11  C   UNL     1       0.571   4.632  20.553  0.00  0.00    +0.000 C 
ATOM     12  C   UNL     1       1.250   3.413  19.909  0.00  0.00    +0.000 C 
BRANCH  12  13
ATOM     13  C   UNL     1       2.227   2.747  20.903  0.00  0.00    +0.000 C 
ATOM     14  F   UNL     1       2.674   3.620  21.840  0.00  0.00    +0.000 F 
ATOM     15  F   UNL     1       1.629   1.734  21.578  0.00  0.00    +0.000 F 
ATOM     16  F   UNL     1       3.320   2.216  20.309  0.00  0.00    +0.000 F 
ENDBRANCH  12  13
BRANCH  12  17
ATOM     17  O   UNL     1       0.217   2.518  19.428  0.00  0.00    +0.000 OA
ATOM     18  H   UNL     1      -0.530   3.065  19.123  0.00  0.00    +0.000 HD
ENDBRANCH  12  17
ENDBRANCH   7  12
ENDBRANCH   1   9
BRANCH   5  19
ATOM     19  C   UNL     1       6.838   4.761  15.908  0.00  0.00    +0.000 C 
ATOM     20  O   UNL     1       7.758   4.338  16.603  0.00  0.00    +0.000 OA
BRANCH  19  21
ATOM     21  C   UNL     1       6.886   4.546  14.437  0.00  0.00    +0.000 A 
ATOM     22  C   UNL     1       6.030   3.593  13.877  0.00  0.00    +0.000 A 
ATOM     23  C   UNL     1       6.030   3.377  12.498  0.00  0.00    +0.000 A 
ATOM     24  C   UNL     1       6.889   4.107  11.677  0.00  0.00    +0.000 A 
ATOM     25  C   UNL     1       7.765   5.039  12.234  0.00  0.00    +0.000 A 
ATOM     26  C   UNL     1       7.776   5.249  13.615  0.00  0.00    +0.000 A 
ENDBRANCH  19  21
ENDBRANCH   5  19
TORSDOF 6
ENDMDL
MODEL 9
REMARK VINA RESULT:      -7.9      1.503      1.739
REMARK  Name = 
REMARK  7 active torsions:
REMARK  status: ('A' for Active; 'I' for Inactive)
REMARK    1  A    between atoms: C_1  and  C_2
REMARK    2  A    between atoms: C_2  and  O_3
REMARK    3  A    between atoms: C_2  and  C_4
REMARK    4  A    between atoms: C_2  and  C_21
REMARK    5  A    between atoms: N_6  and  C_7
REMARK    6  A    between atoms: C_11  and  C_12
REMARK    7  A    between atoms: C_12  and  C_14
REMARK                            x       y       z     vdW  Elec       q    Type
REMARK                         _______ _______ _______ _____ _____    ______ ____
ROOT
ATOM      1  C   UNL     1       3.600   5.488  17.884  0.00  0.00    +0.000 A 
ATOM      2  C   UNL     1       3.550   6.881  17.788  0.00  0.00    +0.000 A 
ATOM      3  C   UNL     1       4.550   7.594  17.129  0.00  0.00    +0.000 A 
ATOM      4  C   UNL     1       5.613   6.918  16.543  0.00  0.00    +0.000 A 
ATOM      5  C   UNL     1       5.676   5.519  16.623  0.00  0.00    +0.000 A 
ATOM      6  C   UNL     1       4.689   4.810  17.328  0.00  0.00    +0.000 A 
ENDROOT
BRANCH   1   9
ATOM      7  C   UNL     1       2.786   3.957  19.669  0.00  0.00    +0.000 C 
ATOM      8  O   UNL     1       3.833   3.879  20.300  0.00  0.00    +0.000 OA
ATOM      9  N   UNL     1       2.589   4.742  18.535  0.00  0.00    +0.000 N 
ATOM     10  H   UNL     1       1.623   4.883  18.240  0.00  0.00    +0.000 HD
BRANCH   7  12
ATOM     11  C   UNL     1       1.826   2.580  21.510  0.00  0.00    +0.000 C 
ATOM     12  C   UNL     1       1.544   3.188  20.127  0.00  0.00    +0.000 C 
BRANCH  12  13
ATOM     13  C   UNL     1       1.295   2.074  19.085  0.00  0.00    +0.000 C 
ATOM     14  F   UNL     1       2.180   2.129  18.059  0.00  0.00    +0.000 F 
ATOM     15  F   UNL     1       1.426   0.843  19.639  0.00  0.00    +0.000 F 
ATOM     16  F   UNL     1       0.058   2.116  18.539  0.00  0.00    +0.000 F 
ENDBRANCH  12  13
BRANCH  12  17
ATOM     17  O   UNL     1       0.440   4.117  20.254  0.00  0.00    +0.000 OA
ATOM     18  H   UNL     1       0.017   3.958  21.118  0.00  0.00    +0.000 HD
ENDBRANCH  12  17
ENDBRANCH   7  12
ENDBRANCH   1   9
BRANCH   5  19
ATOM     19  C   UNL     1       6.819   4.839  15.956  0.00  0.00    +0.000 C 
ATOM     20  O   UNL     1       7.786   4.488  16.627  0.00  0.00    +0.000 OA
BRANCH  19  21
ATOM     21  C   UNL     1       6.822   4.574  14.492  0.00  0.00    +0.000 A 
ATOM     22  C   UNL     1       7.704   5.303  13.687  0.00  0.00    +0.000 A 
ATOM     23  C   UNL     1       7.753   5.068  12.313  0.00  0.00    +0.000 A 
ATOM     24  C   UNL     1       6.917   4.112  11.738  0.00  0.00    +0.000 A 
ATOM     25  C   UNL     1       6.016   3.402  12.532  0.00  0.00    +0.000 A 
ATOM     26  C   UNL     1       5.956   3.643  13.906  0.00  0.00    +0.000 A 
ENDBRANCH  19  21
ENDBRANCH   5  19
TORSDOF 6
ENDMDL
