MODEL 1
REMARK VINA RESULT:      -8.7      0.000      0.000
REMARK  Name = 
REMARK  8 active torsions:
REMARK  status: ('A' for Active; 'I' for Inactive)
REMARK    1  A    between atoms: C_1  and  C_2
REMARK    2  A    between atoms: C_5  and  C_6
REMARK    3  A    between atoms: C_6  and  C_7
REMARK    4  A    between atoms: C_10  and  C_11
REMARK    5  A    between atoms: C_11  and  O_12
REMARK    6  A    between atoms: O_12  and  C_13
REMARK    7  A    between atoms: C_16  and  C_17
REMARK    8  A    between atoms: C_17  and  C_18
REMARK                            x       y       z     vdW  Elec       q    Type
REMARK                         _______ _______ _______ _____ _____    ______ ____
ROOT
ATOM      1  C   UNL     1       6.660   6.419  17.544  0.00  0.00    +0.000 A 
ATOM      2  N   UNL     1       7.371   5.833  18.524  0.00  0.00    +0.000 NA
ATOM      3  O   UNL     1       8.292   6.812  18.890  0.00  0.00    +0.000 OA
ATOM      4  C   UNL     1       8.044   7.896  18.100  0.00  0.00    +0.000 A 
ATOM      5  N   UNL     1       7.066   7.701  17.245  0.00  0.00    +0.000 NA
ENDROOT
BRANCH   1   6
ATOM      6  C   UNL     1       5.401   5.818  16.961  0.00  0.00    +0.000 C 
ATOM      7  C   UNL     1       5.501   4.278  16.836  0.00  0.00    +0.000 C 
ATOM      8  C   UNL     1       6.357   4.035  15.597  0.00  0.00    +0.000 C 
ATOM      9  C   UNL     1       6.100   5.227  14.682  0.00  0.00    +0.000 C 
ATOM     10  C   UNL     1       5.201   6.182  15.470  0.00  0.00    +0.000 C 
BRANCH   6  15
ATOM     11  C   UNL     1       1.233   7.751  20.609  0.00  0.00    +0.000 C 
ATOM     12  C   UNL     1       2.270   7.223  19.663  0.00  0.00    +0.000 A 
ATOM     13  C   UNL     1       2.972   6.048  19.942  0.00  0.00    +0.000 A 
ATOM     14  C   UNL     1       3.955   5.580  19.061  0.00  0.00    +0.000 A 
ATOM     15  C   UNL     1       4.274   6.281  17.885  0.00  0.00    +0.000 A 
ATOM     16  C   UNL     1       3.530   7.440  17.600  0.00  0.00    +0.000 A 
ATOM     17  C   UNL     1       2.549   7.908  18.479  0.00  0.00    +0.000 A 
ENDBRANCH   6  15
ENDBRANCH   1   6
BRANCH   4  18
ATOM     18  C   UNL     1       8.748   9.150  18.457  0.00  0.00    +0.000 C 
BRANCH  18  19
ATOM     19  O   UNL     1       8.219  10.219  17.667  0.00  0.00    +0.000 OA
BRANCH  19  20
ATOM     20  C   UNL     1       8.896  11.403  17.803  0.00  0.00    +0.000 A 
ATOM     21  C   UNL     1      10.276  11.515  17.984  0.00  0.00    +0.000 A 
ATOM     22  C   UNL     1      10.868  12.770  18.142  0.00  0.00    +0.000 A 
ATOM     23  C   UNL     1      10.093  13.935  18.106  0.00  0.00    +0.000 A 
ATOM     24  C   UNL     1       8.715  13.822  17.872  0.00  0.00    +0.000 A 
ATOM     25  C   UNL     1       8.124  12.563  17.718  0.00  0.00    +0.000 A 
BRANCH  23  26
ATOM     26  C   UNL     1      10.738  15.281  18.346  0.00  0.00    +0.000 C 
BRANCH  26  27
ATOM     27  C   UNL     1      11.100  16.116  17.132  0.00  0.00    +0.000 C 
ATOM     28  N   UNL     1      10.922  15.593  15.890  0.00  0.00    +0.000 N 
ATOM     29  O   UNL     1      11.548  17.257  17.247  0.00  0.00    +0.000 OA
ATOM     30  H   UNL     1      10.446  14.718  15.721  0.00  0.00    +0.000 HD
ATOM     31  H   UNL     1      11.134  16.191  15.102  0.00  0.00    +0.000 HD
ENDBRANCH  26  27
ENDBRANCH  23  26
ENDBRANCH  19  20
ENDBRANCH  18  19
ENDBRANCH   4  18
TORSDOF 7
ENDMDL
MODEL 2
REMARK VINA RESULT:      -8.6      1.692      2.118
REMARK  Name = 
REMARK  8 active torsions:
REMARK  status: ('A' for Active; 'I' for Inactive)
REMARK    1  A    between atoms: C_1  and  C_2
REMARK    2  A    between atoms: C_5  and  C_6
REMARK    3  A    between atoms: C_6  and  C_7
REMARK    4  A    between atoms: C_10  and  C_11
REMARK    5  A    between atoms: C_11  and  O_12
REMARK    6  A    between atoms: O_12  and  C_13
REMARK    7  A    between atoms: C_16  and  C_17
REMARK    8  A    between atoms: C_17  and  C_18
REMARK                            x       y       z     vdW  Elec       q    Type
REMARK                         _______ _______ _______ _____ _____    ______ ____
ROOT
ATOM      1  C   UNL     1       6.724   6.173  17.258  0.00  0.00    +0.000 A 
ATOM      2  N   UNL     1       7.446   5.856  18.348  0.00  0.00    +0.000 NA
ATOM      3  O   UNL     1       8.141   7.030  18.632  0.00  0.00    +0.000 OA
ATOM      4  C   UNL     1       7.768   7.943  17.690  0.00  0.00    +0.000 A 
ATOM      5  N   UNL     1       6.915   7.463  16.813  0.00  0.00    +0.000 NA
ENDROOT
BRANCH   1   6
ATOM      6  C   UNL     1       5.647   5.278  16.689  0.00  0.00    +0.000 C 
ATOM      7  C   UNL     1       6.204   3.889  16.287  0.00  0.00    +0.000 C 
ATOM      8  C   UNL     1       6.913   4.117  14.955  0.00  0.00    +0.000 C 
ATOM      9  C   UNL     1       6.174   5.272  14.290  0.00  0.00    +0.000 C 
ATOM     10  C   UNL     1       5.140   5.758  15.308  0.00  0.00    +0.000 C 
BRANCH   6  15
ATOM     11  C   UNL     1       1.368   4.922  20.686  0.00  0.00    +0.000 C 
ATOM     12  C   UNL     1       2.486   5.039  19.694  0.00  0.00    +0.000 A 
ATOM     13  C   UNL     1       2.733   6.236  19.018  0.00  0.00    +0.000 A 
ATOM     14  C   UNL     1       3.765   6.322  18.076  0.00  0.00    +0.000 A 
ATOM     15  C   UNL     1       4.571   5.211  17.773  0.00  0.00    +0.000 A 
ATOM     16  C   UNL     1       4.335   4.025  18.491  0.00  0.00    +0.000 A 
ATOM     17  C   UNL     1       3.303   3.937  19.431  0.00  0.00    +0.000 A 
ENDBRANCH   6  15
ENDBRANCH   1   6
BRANCH   4  18
ATOM     18  C   UNL     1       8.201   9.342  17.915  0.00  0.00    +0.000 C 
BRANCH  18  19
ATOM     19  O   UNL     1       8.895   9.416  19.163  0.00  0.00    +0.000 OA
BRANCH  19  20
ATOM     20  C   UNL     1       9.610  10.572  19.337  0.00  0.00    +0.000 A 
ATOM     21  C   UNL     1       9.867  11.171  20.572  0.00  0.00    +0.000 A 
ATOM     22  C   UNL     1      10.584  12.367  20.642  0.00  0.00    +0.000 A 
ATOM     23  C   UNL     1      11.069  12.978  19.479  0.00  0.00    +0.000 A 
ATOM     24  C   UNL     1      10.854  12.347  18.245  0.00  0.00    +0.000 A 
ATOM     25  C   UNL     1      10.132  11.151  18.179  0.00  0.00    +0.000 A 
BRANCH  23  26
ATOM     26  C   UNL     1      11.784  14.307  19.564  0.00  0.00    +0.000 C 
BRANCH  26  27
ATOM     27  C   UNL     1      10.994  15.504  20.059  0.00  0.00    +0.000 C 
ATOM     28  N   UNL     1      10.073  16.076  19.240  0.00  0.00    +0.000 N 
ATOM     29  O   UNL     1      11.167  15.967  21.187  0.00  0.00    +0.000 OA
ATOM     30  H   UNL     1       9.793  15.674  18.356  0.00  0.00    +0.000 HD
ATOM     31  H   UNL     1       9.534  16.845  19.616  0.00  0.00    +0.000 HD
ENDBRANCH  26  27
ENDBRANCH  23  26
ENDBRANCH  19  20
ENDBRANCH  18  19
ENDBRANCH   4  18
TORSDOF 7
ENDMDL
MODEL 3
REMARK VINA RESULT:      -8.6      1.563      1.771
REMARK  Name = 
REMARK  8 active torsions:
REMARK  status: ('A' for Active; 'I' for Inactive)
REMARK    1  A    between atoms: C_1  and  C_2
REMARK    2  A    between atoms: C_5  and  C_6
REMARK    3  A    between atoms: C_6  and  C_7
REMARK    4  A    between atoms: C_10  and  C_11
REMARK    5  A    between atoms: C_11  and  O_12
REMARK    6  A    between atoms: O_12  and  C_13
REMARK    7  A    between atoms: C_16  and  C_17
REMARK    8  A    between atoms: C_17  and  C_18
REMARK                            x       y       z     vdW  Elec       q    Type
REMARK                         _______ _______ _______ _____ _____    ______ ____
ROOT
ATOM      1  C   UNL     1       6.689   6.526  17.423  0.00  0.00    +0.000 A 
ATOM      2  N   UNL     1       7.495   6.101  18.412  0.00  0.00    +0.000 NA
ATOM      3  O   UNL     1       8.326   7.194  18.648  0.00  0.00    +0.000 OA
ATOM      4  C   UNL     1       7.937   8.175  17.783  0.00  0.00    +0.000 A 
ATOM      5  N   UNL     1       6.949   7.811  16.998  0.00  0.00    +0.000 NA
ENDROOT
BRANCH   1   6
ATOM      6  C   UNL     1       5.474   5.756  16.956  0.00  0.00    +0.000 C 
ATOM      7  C   UNL     1       5.728   4.228  16.948  0.00  0.00    +0.000 C 
ATOM      8  C   UNL     1       6.548   3.970  15.687  0.00  0.00    +0.000 C 
ATOM      9  C   UNL     1       6.128   5.050  14.697  0.00  0.00    +0.000 C 
ATOM     10  C   UNL     1       5.171   5.973  15.454  0.00  0.00    +0.000 C 
BRANCH   6  15
ATOM     11  C   UNL     1       1.301   7.547  20.670  0.00  0.00    +0.000 C 
ATOM     12  C   UNL     1       2.340   7.054  19.709  0.00  0.00    +0.000 A 
ATOM     13  C   UNL     1       3.107   5.921  19.991  0.00  0.00    +0.000 A 
ATOM     14  C   UNL     1       4.091   5.486  19.095  0.00  0.00    +0.000 A 
ATOM     15  C   UNL     1       4.347   6.180  17.899  0.00  0.00    +0.000 A 
ATOM     16  C   UNL     1       3.539   7.295  17.612  0.00  0.00    +0.000 A 
ATOM     17  C   UNL     1       2.557   7.730  18.507  0.00  0.00    +0.000 A 
ENDBRANCH   6  15
ENDBRANCH   1   6
BRANCH   4  18
ATOM     18  C   UNL     1       8.523   9.518  17.998  0.00  0.00    +0.000 C 
BRANCH  18  19
ATOM     19  O   UNL     1       9.262   9.511  19.222  0.00  0.00    +0.000 OA
BRANCH  19  20
ATOM     20  C   UNL     1       9.645  10.755  19.653  0.00  0.00    +0.000 A 
ATOM     21  C   UNL     1       9.252  11.334  20.861  0.00  0.00    +0.000 A 
ATOM     22  C   UNL     1       9.673  12.622  21.198  0.00  0.00    +0.000 A 
ATOM     23  C   UNL     1      10.507  13.347  20.338  0.00  0.00    +0.000 A 
ATOM     24  C   UNL     1      10.943  12.742  19.150  0.00  0.00    +0.000 A 
ATOM     25  C   UNL     1      10.514  11.453  18.815  0.00  0.00    +0.000 A 
BRANCH  23  26
ATOM     26  C   UNL     1      10.901  14.766  20.683  0.00  0.00    +0.000 C 
BRANCH  26  27
ATOM     27  C   UNL     1      10.352  15.882  19.814  0.00  0.00    +0.000 C 
ATOM     28  N   UNL     1      11.206  16.810  19.309  0.00  0.00    +0.000 N 
ATOM     29  O   UNL     1       9.151  15.963  19.555  0.00  0.00    +0.000 OA
ATOM     30  H   UNL     1      12.211  16.732  19.377  0.00  0.00    +0.000 HD
ATOM     31  H   UNL     1      10.814  17.515  18.699  0.00  0.00    +0.000 HD
ENDBRANCH  26  27
ENDBRANCH  23  26
ENDBRANCH  19  20
ENDBRANCH  18  19
ENDBRANCH   4  18
TORSDOF 7
ENDMDL
MODEL 4
REMARK VINA RESULT:      -8.6      1.302      1.451
REMARK  Name = 
REMARK  8 active torsions:
REMARK  status: ('A' for Active; 'I' for Inactive)
REMARK    1  A    between atoms: C_1  and  C_2
REMARK    2  A    between atoms: C_5  and  C_6
REMARK    3  A    between atoms: C_6  and  C_7
REMARK    4  A    between atoms: C_10  and  C_11
REMARK    5  A    between atoms: C_11  and  O_12
REMARK    6  A    between atoms: O_12  and  C_13
REMARK    7  A    between atoms: C_16  and  C_17
REMARK    8  A    between atoms: C_17  and  C_18
REMARK                            x       y       z     vdW  Elec       q    Type
REMARK                         _______ _______ _______ _____ _____    ______ ____
ROOT
ATOM      1  C   UNL     1       6.724   6.534  17.388  0.00  0.00    +0.000 A 
ATOM      2  N   UNL     1       7.573   6.181  18.370  0.00  0.00    +0.000 NA
ATOM      3  O   UNL     1       8.281   7.354  18.627  0.00  0.00    +0.000 OA
ATOM      4  C   UNL     1       7.787   8.302  17.779  0.00  0.00    +0.000 A 
ATOM      5  N   UNL     1       6.843   7.847  16.987  0.00  0.00    +0.000 NA
ENDROOT
BRANCH   1   6
ATOM      6  C   UNL     1       5.599   5.646  16.906  0.00  0.00    +0.000 C 
ATOM      7  C   UNL     1       6.028   4.160  16.836  0.00  0.00    +0.000 C 
ATOM      8  C   UNL     1       6.852   4.045  15.557  0.00  0.00    +0.000 C 
ATOM      9  C   UNL     1       6.295   5.105  14.614  0.00  0.00    +0.000 C 
ATOM     10  C   UNL     1       5.249   5.881  15.417  0.00  0.00    +0.000 C 
BRANCH   6  15
ATOM     11  C   UNL     1       1.319   6.779  20.754  0.00  0.00    +0.000 C 
ATOM     12  C   UNL     1       2.387   6.455  19.754  0.00  0.00    +0.000 A 
ATOM     13  C   UNL     1       3.190   5.321  19.894  0.00  0.00    +0.000 A 
ATOM     14  C   UNL     1       4.201   5.044  18.965  0.00  0.00    +0.000 A 
ATOM     15  C   UNL     1       4.446   5.901  17.878  0.00  0.00    +0.000 A 
ATOM     16  C   UNL     1       3.603   7.016  17.729  0.00  0.00    +0.000 A 
ATOM     17  C   UNL     1       2.594   7.294  18.657  0.00  0.00    +0.000 A 
ENDBRANCH   6  15
ENDBRANCH   1   6
BRANCH   4  18
ATOM     18  C   UNL     1       8.225   9.697  18.019  0.00  0.00    +0.000 C 
BRANCH  18  19
ATOM     19  O   UNL     1       9.342   9.685  18.911  0.00  0.00    +0.000 OA
BRANCH  19  20
ATOM     20  C   UNL     1      10.020  10.874  18.975  0.00  0.00    +0.000 A 
ATOM     21  C   UNL     1      10.585  11.528  17.879  0.00  0.00    +0.000 A 
ATOM     22  C   UNL     1      11.283  12.725  18.052  0.00  0.00    +0.000 A 
ATOM     23  C   UNL     1      11.415  13.296  19.324  0.00  0.00    +0.000 A 
ATOM     24  C   UNL     1      10.802  12.665  20.415  0.00  0.00    +0.000 A 
ATOM     25  C   UNL     1      10.107  11.463  20.237  0.00  0.00    +0.000 A 
BRANCH  23  26
ATOM     26  C   UNL     1      12.231  14.556  19.507  0.00  0.00    +0.000 C 
BRANCH  26  27
ATOM     27  C   UNL     1      11.939  15.726  18.585  0.00  0.00    +0.000 C 
ATOM     28  N   UNL     1      11.228  16.782  19.059  0.00  0.00    +0.000 N 
ATOM     29  O   UNL     1      12.333  15.739  17.419  0.00  0.00    +0.000 OA
ATOM     30  H   UNL     1      10.983  16.892  20.033  0.00  0.00    +0.000 HD
ATOM     31  H   UNL     1      11.087  17.563  18.432  0.00  0.00    +0.000 HD
ENDBRANCH  26  27
ENDBRANCH  23  26
ENDBRANCH  19  20
ENDBRANCH  18  19
ENDBRANCH   4  18
TORSDOF 7
ENDMDL
MODEL 5
REMARK VINA RESULT:      -8.6      5.698      7.484
REMARK  Name = 
REMARK  8 active torsions:
REMARK  status: ('A' for Active; 'I' for Inactive)
REMARK    1  A    between atoms: C_1  and  C_2
REMARK    2  A    between atoms: C_5  and  C_6
REMARK    3  A    between atoms: C_6  and  C_7
REMARK    4  A    between atoms: C_10  and  C_11
REMARK    5  A    between atoms: C_11  and  O_12
REMARK    6  A    between atoms: O_12  and  C_13
REMARK    7  A    between atoms: C_16  and  C_17
REMARK    8  A    between atoms: C_17  and  C_18
REMARK                            x       y       z     vdW  Elec       q    Type
REMARK                         _______ _______ _______ _____ _____    ______ ____
ROOT
ATOM      1  C   UNL     1       3.680   4.591  19.294  0.00  0.00    +0.000 A 
ATOM      2  N   UNL     1       4.272   3.418  19.583  0.00  0.00    +0.000 NA
ATOM      3  O   UNL     1       5.632   3.712  19.508  0.00  0.00    +0.000 OA
ATOM      4  C   UNL     1       5.730   5.034  19.187  0.00  0.00    +0.000 A 
ATOM      5  N   UNL     1       4.562   5.615  19.026  0.00  0.00    +0.000 NA
ENDROOT
BRANCH   1   6
ATOM      6  C   UNL     1       2.195   4.831  19.448  0.00  0.00    +0.000 C 
ATOM      7  C   UNL     1       1.657   4.273  20.789  0.00  0.00    +0.000 C 
ATOM      8  C   UNL     1       1.533   2.768  20.572  0.00  0.00    +0.000 C 
ATOM      9  C   UNL     1       1.256   2.591  19.084  0.00  0.00    +0.000 C 
ATOM     10  C   UNL     1       1.350   3.986  18.464  0.00  0.00    +0.000 C 
BRANCH   6  15
ATOM     11  C   UNL     1       1.277  10.597  18.884  0.00  0.00    +0.000 C 
ATOM     12  C   UNL     1       1.557   9.131  19.022  0.00  0.00    +0.000 A 
ATOM     13  C   UNL     1       1.891   8.350  17.912  0.00  0.00    +0.000 A 
ATOM     14  C   UNL     1       2.125   6.977  18.052  0.00  0.00    +0.000 A 
ATOM     15  C   UNL     1       2.018   6.342  19.302  0.00  0.00    +0.000 A 
ATOM     16  C   UNL     1       1.721   7.150  20.415  0.00  0.00    +0.000 A 
ATOM     17  C   UNL     1       1.485   8.521  20.276  0.00  0.00    +0.000 A 
ENDBRANCH   6  15
ENDBRANCH   1   6
BRANCH   4  18
ATOM     18  C   UNL     1       7.079   5.638  19.273  0.00  0.00    +0.000 C 
BRANCH  18  19
ATOM     19  O   UNL     1       7.370   6.302  18.040  0.00  0.00    +0.000 OA
BRANCH  19  20
ATOM     20  C   UNL     1       6.874   5.666  16.932  0.00  0.00    +0.000 A 
ATOM     21  C   UNL     1       7.262   4.395  16.504  0.00  0.00    +0.000 A 
ATOM     22  C   UNL     1       6.719   3.843  15.342  0.00  0.00    +0.000 A 
ATOM     23  C   UNL     1       5.767   4.548  14.596  0.00  0.00    +0.000 A 
ATOM     24  C   UNL     1       5.340   5.802  15.056  0.00  0.00    +0.000 A 
ATOM     25  C   UNL     1       5.891   6.353  16.219  0.00  0.00    +0.000 A 
BRANCH  23  26
ATOM     26  C   UNL     1       5.236   3.968  13.304  0.00  0.00    +0.000 C 
BRANCH  26  27
ATOM     27  C   UNL     1       6.246   3.445  12.298  0.00  0.00    +0.000 C 
ATOM     28  N   UNL     1       6.148   2.160  11.868  0.00  0.00    +0.000 N 
ATOM     29  O   UNL     1       7.149   4.160  11.864  0.00  0.00    +0.000 OA
ATOM     30  H   UNL     1       5.364   1.561  12.086  0.00  0.00    +0.000 HD
ATOM     31  H   UNL     1       6.811   1.856  11.166  0.00  0.00    +0.000 HD
ENDBRANCH  26  27
ENDBRANCH  23  26
ENDBRANCH  19  20
ENDBRANCH  18  19
ENDBRANCH   4  18
TORSDOF 7
ENDMDL
MODEL 6
REMARK VINA RESULT:      -8.3      6.036      8.284
REMARK  Name = 
REMARK  8 active torsions:
REMARK  status: ('A' for Active; 'I' for Inactive)
REMARK    1  A    between atoms: C_1  and  C_2
REMARK    2  A    between atoms: C_5  and  C_6
REMARK    3  A    between atoms: C_6  and  C_7
REMARK    4  A    between atoms: C_10  and  C_11
REMARK    5  A    between atoms: C_11  and  O_12
REMARK    6  A    between atoms: O_12  and  C_13
REMARK    7  A    between atoms: C_16  and  C_17
REMARK    8  A    between atoms: C_17  and  C_18
REMARK                            x       y       z     vdW  Elec       q    Type
REMARK                         _______ _______ _______ _____ _____    ______ ____
ROOT
ATOM      1  C   UNL     1       4.383   4.750  18.879  0.00  0.00    +0.000 A 
ATOM      2  N   UNL     1       5.175   5.205  19.866  0.00  0.00    +0.000 NA
ATOM      3  O   UNL     1       6.442   5.222  19.285  0.00  0.00    +0.000 OA
ATOM      4  C   UNL     1       6.290   4.781  18.003  0.00  0.00    +0.000 A 
ATOM      5  N   UNL     1       5.050   4.462  17.709  0.00  0.00    +0.000 NA
ENDROOT
BRANCH   1   6
ATOM      6  C   UNL     1       2.873   4.748  18.965  0.00  0.00    +0.000 C 
ATOM      7  C   UNL     1       2.365   3.927  20.176  0.00  0.00    +0.000 C 
ATOM      8  C   UNL     1       2.481   2.469  19.743  0.00  0.00    +0.000 C 
ATOM      9  C   UNL     1       2.302   2.475  18.229  0.00  0.00    +0.000 C 
ATOM     10  C   UNL     1       2.212   3.946  17.818  0.00  0.00    +0.000 C 
BRANCH   6  15
ATOM     11  C   UNL     1       1.116  10.342  19.150  0.00  0.00    +0.000 C 
ATOM     12  C   UNL     1       1.609   8.927  19.101  0.00  0.00    +0.000 A 
ATOM     13  C   UNL     1       2.108   8.375  17.919  0.00  0.00    +0.000 A 
ATOM     14  C   UNL     1       2.541   7.044  17.881  0.00  0.00    +0.000 A 
ATOM     15  C   UNL     1       2.475   6.223  19.020  0.00  0.00    +0.000 A 
ATOM     16  C   UNL     1       2.008   6.806  20.212  0.00  0.00    +0.000 A 
ATOM     17  C   UNL     1       1.573   8.134  20.250  0.00  0.00    +0.000 A 
ENDBRANCH   6  15
ENDBRANCH   1   6
BRANCH   4  18
ATOM     18  C   UNL     1       7.463   4.926  17.109  0.00  0.00    +0.000 C 
BRANCH  18  19
ATOM     19  O   UNL     1       7.092   5.727  15.985  0.00  0.00    +0.000 OA
BRANCH  19  20
ATOM     20  C   UNL     1       6.632   5.008  14.913  0.00  0.00    +0.000 A 
ATOM     21  C   UNL     1       5.374   4.407  14.839  0.00  0.00    +0.000 A 
ATOM     22  C   UNL     1       5.008   3.669  13.711  0.00  0.00    +0.000 A 
ATOM     23  C   UNL     1       5.889   3.533  12.631  0.00  0.00    +0.000 A 
ATOM     24  C   UNL     1       7.130   4.182  12.686  0.00  0.00    +0.000 A 
ATOM     25  C   UNL     1       7.495   4.917  13.820  0.00  0.00    +0.000 A 
BRANCH  23  26
ATOM     26  C   UNL     1       5.507   2.676  11.446  0.00  0.00    +0.000 C 
BRANCH  26  27
ATOM     27  C   UNL     1       6.318   1.418  11.193  0.00  0.00    +0.000 C 
ATOM     28  N   UNL     1       7.666   1.516  11.054  0.00  0.00    +0.000 N 
ATOM     29  O   UNL     1       5.782   0.313  11.113  0.00  0.00    +0.000 OA
ATOM     30  H   UNL     1       8.181   2.367  11.231  0.00  0.00    +0.000 HD
ATOM     31  H   UNL     1       8.181   0.654  10.929  0.00  0.00    +0.000 HD
ENDBRANCH  26  27
ENDBRANCH  23  26
ENDBRANCH  19  20
ENDBRANCH  18  19
ENDBRANCH   4  18
TORSDOF 7
ENDMDL
MODEL 7
REMARK VINA RESULT:      -8.3      5.985      8.318
REMARK  Name = 
REMARK  8 active torsions:
REMARK  status: ('A' for Active; 'I' for Inactive)
REMARK    1  A    between atoms: C_1  and  C_2
REMARK    2  A    between atoms: C_5  and  C_6
REMARK    3  A    between atoms: C_6  and  C_7
REMARK    4  A    between atoms: C_10  and  C_11
REMARK    5  A    between atoms: C_11  and  O_12
REMARK    6  A    between atoms: O_12  and  C_13
REMARK    7  A    between atoms: C_16  and  C_17
REMARK    8  A    between atoms: C_17  and  C_18
REMARK                            x       y       z     vdW  Elec       q    Type
REMARK                         _______ _______ _______ _____ _____    ______ ____
ROOT
ATOM      1  C   UNL     1       4.144   4.756  18.954  0.00  0.00    +0.000 A 
ATOM      2  N   UNL     1       5.008   5.069  19.937  0.00  0.00    +0.000 NA
ATOM      3  O   UNL     1       6.239   5.118  19.285  0.00  0.00    +0.000 OA
ATOM      4  C   UNL     1       5.998   4.834  17.972  0.00  0.00    +0.000 A 
ATOM      5  N   UNL     1       4.733   4.587  17.720  0.00  0.00    +0.000 NA
ENDROOT
BRANCH   1   6
ATOM      6  C   UNL     1       2.643   4.787  19.131  0.00  0.00    +0.000 C 
ATOM      7  C   UNL     1       2.202   4.091  20.443  0.00  0.00    +0.000 C 
ATOM      8  C   UNL     1       2.275   2.597  20.142  0.00  0.00    +0.000 C 
ATOM      9  C   UNL     1       2.003   2.465  18.648  0.00  0.00    +0.000 C 
ATOM     10  C   UNL     1       1.903   3.893  18.107  0.00  0.00    +0.000 C 
BRANCH   6  15
ATOM     11  C   UNL     1       1.432  10.523  18.920  0.00  0.00    +0.000 C 
ATOM     12  C   UNL     1       1.696   9.048  18.979  0.00  0.00    +0.000 A 
ATOM     13  C   UNL     1       1.588   8.340  20.178  0.00  0.00    +0.000 A 
ATOM     14  C   UNL     1       1.862   6.968  20.222  0.00  0.00    +0.000 A 
ATOM     15  C   UNL     1       2.266   6.267  19.072  0.00  0.00    +0.000 A 
ATOM     16  C   UNL     1       2.330   6.987  17.865  0.00  0.00    +0.000 A 
ATOM     17  C   UNL     1       2.058   8.357  17.821  0.00  0.00    +0.000 A 
ENDBRANCH   6  15
ENDBRANCH   1   6
BRANCH   4  18
ATOM     18  C   UNL     1       7.122   5.048  17.031  0.00  0.00    +0.000 C 
BRANCH  18  19
ATOM     19  O   UNL     1       6.653   5.808  15.915  0.00  0.00    +0.000 OA
BRANCH  19  20
ATOM     20  C   UNL     1       6.356   5.054  14.809  0.00  0.00    +0.000 A 
ATOM     21  C   UNL     1       5.132   4.422  14.582  0.00  0.00    +0.000 A 
ATOM     22  C   UNL     1       4.937   3.649  13.435  0.00  0.00    +0.000 A 
ATOM     23  C   UNL     1       5.959   3.508  12.488  0.00  0.00    +0.000 A 
ATOM     24  C   UNL     1       7.168   4.187  12.693  0.00  0.00    +0.000 A 
ATOM     25  C   UNL     1       7.361   4.956  13.846  0.00  0.00    +0.000 A 
BRANCH  23  26
ATOM     26  C   UNL     1       5.758   2.615  11.285  0.00  0.00    +0.000 C 
BRANCH  26  27
ATOM     27  C   UNL     1       6.675   1.415  11.136  0.00  0.00    +0.000 C 
ATOM     28  N   UNL     1       6.170   0.167  11.320  0.00  0.00    +0.000 N 
ATOM     29  O   UNL     1       7.865   1.548  10.850  0.00  0.00    +0.000 OA
ATOM     30  H   UNL     1       5.184  -0.020  11.432  0.00  0.00    +0.000 HD
ATOM     31  H   UNL     1       6.798  -0.612  11.171  0.00  0.00    +0.000 HD
ENDBRANCH  26  27
ENDBRANCH  23  26
ENDBRANCH  19  20
ENDBRANCH  18  19
ENDBRANCH   4  18
TORSDOF 7
ENDMDL
MODEL 8
REMARK VINA RESULT:      -8.2      6.494      9.499
REMARK  Name = 
REMARK  8 active torsions:
REMARK  status: ('A' for Active; 'I' for Inactive)
REMARK    1  A    between atoms: C_1  and  C_2
REMARK    2  A    between atoms: C_5  and  C_6
REMARK    3  A    between atoms: C_6  and  C_7
REMARK    4  A    between atoms: C_10  and  C_11
REMARK    5  A    between atoms: C_11  and  O_12
REMARK    6  A    between atoms: O_12  and  C_13
REMARK    7  A    between atoms: C_16  and  C_17
REMARK    8  A    between atoms: C_17  and  C_18
REMARK                            x       y       z     vdW  Elec       q    Type
REMARK                         _______ _______ _______ _____ _____    ______ ____
ROOT
ATOM      1  C   UNL     1       2.400   5.964  19.546  0.00  0.00    +0.000 A 
ATOM      2  N   UNL     1       1.857   6.415  20.691  0.00  0.00    +0.000 NA
ATOM      3  O   UNL     1       1.571   7.750  20.413  0.00  0.00    +0.000 OA
ATOM      4  C   UNL     1       1.964   7.974  19.126  0.00  0.00    +0.000 A 
ATOM      5  N   UNL     1       2.495   6.917  18.555  0.00  0.00    +0.000 NA
ENDROOT
BRANCH   1   6
ATOM      6  C   UNL     1       2.692   4.503  19.286  0.00  0.00    +0.000 C 
ATOM      7  C   UNL     1       1.461   3.765  18.702  0.00  0.00    +0.000 C 
ATOM      8  C   UNL     1       0.546   3.513  19.896  0.00  0.00    +0.000 C 
ATOM      9  C   UNL     1       1.471   3.387  21.102  0.00  0.00    +0.000 C 
ATOM     10  C   UNL     1       2.880   3.691  20.590  0.00  0.00    +0.000 C 
BRANCH   6  15
ATOM     11  C   UNL     1       7.310   4.724  15.676  0.00  0.00    +0.000 C 
ATOM     12  C   UNL     1       6.132   4.621  16.598  0.00  0.00    +0.000 A 
ATOM     13  C   UNL     1       4.880   4.216  16.130  0.00  0.00    +0.000 A 
ATOM     14  C   UNL     1       3.783   4.149  16.997  0.00  0.00    +0.000 A 
ATOM     15  C   UNL     1       3.903   4.498  18.353  0.00  0.00    +0.000 A 
ATOM     16  C   UNL     1       5.179   4.865  18.817  0.00  0.00    +0.000 A 
ATOM     17  C   UNL     1       6.275   4.934  17.951  0.00  0.00    +0.000 A 
ENDBRANCH   6  15
ENDBRANCH   1   6
BRANCH   4  18
ATOM     18  C   UNL     1       1.554   9.264  18.523  0.00  0.00    +0.000 C 
BRANCH  18  19
ATOM     19  O   UNL     1       0.658   9.928  19.417  0.00  0.00    +0.000 OA
BRANCH  19  20
ATOM     20  C   UNL     1      -0.516  10.333  18.835  0.00  0.00    +0.000 A 
ATOM     21  C   UNL     1      -1.412  11.242  19.400  0.00  0.00    +0.000 A 
ATOM     22  C   UNL     1      -2.598  11.570  18.739  0.00  0.00    +0.000 A 
ATOM     23  C   UNL     1      -2.900  11.005  17.494  0.00  0.00    +0.000 A 
ATOM     24  C   UNL     1      -1.973  10.133  16.905  0.00  0.00    +0.000 A 
ATOM     25  C   UNL     1      -0.788   9.804  17.572  0.00  0.00    +0.000 A 
BRANCH  23  26
ATOM     26  C   UNL     1      -4.218  11.316  16.822  0.00  0.00    +0.000 C 
BRANCH  26  27
ATOM     27  C   UNL     1      -5.392  11.691  17.708  0.00  0.00    +0.000 C 
ATOM     28  N   UNL     1      -5.697  13.003  17.884  0.00  0.00    +0.000 N 
ATOM     29  O   UNL     1      -6.073  10.833  18.269  0.00  0.00    +0.000 OA
ATOM     30  H   UNL     1      -5.262  13.748  17.358  0.00  0.00    +0.000 HD
ATOM     31  H   UNL     1      -6.511  13.217  18.446  0.00  0.00    +0.000 HD
ENDBRANCH  26  27
ENDBRANCH  23  26
ENDBRANCH  19  20
ENDBRANCH  18  19
ENDBRANCH   4  18
TORSDOF 7
ENDMDL
MODEL 9
REMARK VINA RESULT:      -8.2      1.825      4.132
REMARK  Name = 
REMARK  8 active torsions:
REMARK  status: ('A' for Active; 'I' for Inactive)
REMARK    1  A    between atoms: C_1  and  C_2
REMARK    2  A    between atoms: C_5  and  C_6
REMARK    3  A    between atoms: C_6  and  C_7
REMARK    4  A    between atoms: C_10  and  C_11
REMARK    5  A    between atoms: C_11  and  O_12
REMARK    6  A    between atoms: O_12  and  C_13
REMARK    7  A    between atoms: C_16  and  C_17
REMARK    8  A    between atoms: C_17  and  C_18
REMARK                            x       y       z     vdW  Elec       q    Type
REMARK                         _______ _______ _______ _____ _____    ______ ____
ROOT
ATOM      1  C   UNL     1       6.701   6.394  17.535  0.00  0.00    +0.000 A 
ATOM      2  N   UNL     1       7.607   6.038  18.463  0.00  0.00    +0.000 NA
ATOM      3  O   UNL     1       8.341   7.205  18.668  0.00  0.00    +0.000 OA
ATOM      4  C   UNL     1       7.803   8.153  17.847  0.00  0.00    +0.000 A 
ATOM      5  N   UNL     1       6.807   7.703  17.119  0.00  0.00    +0.000 NA
ENDROOT
BRANCH   1   6
ATOM      6  C   UNL     1       5.540   5.513  17.130  0.00  0.00    +0.000 C 
ATOM      7  C   UNL     1       4.199   6.288  17.140  0.00  0.00    +0.000 C 
ATOM      8  C   UNL     1       3.801   6.374  18.610  0.00  0.00    +0.000 C 
ATOM      9  C   UNL     1       4.392   5.133  19.268  0.00  0.00    +0.000 C 
ATOM     10  C   UNL     1       5.216   4.430  18.187  0.00  0.00    +0.000 C 
BRANCH   6  15
ATOM     11  C   UNL     1       6.931   3.630  11.752  0.00  0.00    +0.000 C 
ATOM     12  C   UNL     1       6.579   4.067  13.142  0.00  0.00    +0.000 A 
ATOM     13  C   UNL     1       5.324   3.792  13.691  0.00  0.00    +0.000 A 
ATOM     14  C   UNL     1       5.001   4.230  14.982  0.00  0.00    +0.000 A 
ATOM     15  C   UNL     1       5.916   4.966  15.754  0.00  0.00    +0.000 A 
ATOM     16  C   UNL     1       7.188   5.199  15.201  0.00  0.00    +0.000 A 
ATOM     17  C   UNL     1       7.512   4.764  13.913  0.00  0.00    +0.000 A 
ENDBRANCH   6  15
ENDBRANCH   1   6
BRANCH   4  18
ATOM     18  C   UNL     1       8.267   9.545  18.051  0.00  0.00    +0.000 C 
BRANCH  18  19
ATOM     19  O   UNL     1       9.172   9.574  19.157  0.00  0.00    +0.000 OA
BRANCH  19  20
ATOM     20  C   UNL     1       9.882  10.742  19.270  0.00  0.00    +0.000 A 
ATOM     21  C   UNL     1      10.054  11.457  20.456  0.00  0.00    +0.000 A 
ATOM     22  C   UNL     1      10.773  12.654  20.461  0.00  0.00    +0.000 A 
ATOM     23  C   UNL     1      11.343  13.149  19.283  0.00  0.00    +0.000 A 
ATOM     24  C   UNL     1      11.213  12.402  18.104  0.00  0.00    +0.000 A 
ATOM     25  C   UNL     1      10.489  11.205  18.102  0.00  0.00    +0.000 A 
BRANCH  23  26
ATOM     26  C   UNL     1      12.061  14.481  19.289  0.00  0.00    +0.000 C 
BRANCH  26  27
ATOM     27  C   UNL     1      11.323  15.676  19.863  0.00  0.00    +0.000 C 
ATOM     28  N   UNL     1      10.401  16.317  19.098  0.00  0.00    +0.000 N 
ATOM     29  O   UNL     1      11.542  16.078  21.006  0.00  0.00    +0.000 OA
ATOM     30  H   UNL     1      10.085  15.967  18.204  0.00  0.00    +0.000 HD
ATOM     31  H   UNL     1       9.898  17.083  19.525  0.00  0.00    +0.000 HD
ENDBRANCH  26  27
ENDBRANCH  23  26
ENDBRANCH  19  20
ENDBRANCH  18  19
ENDBRANCH   4  18
TORSDOF 7
ENDMDL
