MODEL 1
REMARK VINA RESULT:      -8.0      0.000      0.000
REMARK  Name = 
REMARK  12 active torsions:
REMARK  status: ('A' for Active; 'I' for Inactive)
REMARK    1  A    between atoms: C_1  and  N_2
REMARK    2  A    between atoms: C_4  and  N_5
REMARK    3  A    between atoms: C_6  and  C_8
REMARK    4  A    between atoms: C_10  and  N_11
REMARK    5  A    between atoms: C_12  and  C_14
REMARK    6  A    between atoms: C_16  and  N_17
REMARK    7  A    between atoms: N_19  and  C_20
REMARK    8  A    between atoms: N_22  and  C_23
REMARK    9  A    between atoms: C_25  and  C_26
REMARK   10  A    between atoms: N_28  and  C_29
REMARK   11  A    between atoms: C_29  and  C_30
REMARK   12  A    between atoms: C_30  and  C_31
REMARK                            x       y       z     vdW  Elec       q    Type
REMARK                         _______ _______ _______ _____ _____    ______ ____
ROOT
ATOM      1  N   UNL     1       2.037   8.165  19.404  0.00  0.00    +0.000 N 
ATOM      2  C   UNL     1       1.551   9.110  18.506  0.00  0.00    +0.000 C 
ATOM      3  O   UNL     1       1.590   8.988  17.283  0.00  0.00    +0.000 OA
ATOM      4  H   UNL     1       1.954   8.355  20.390  0.00  0.00    +0.000 HD
ENDROOT
BRANCH   1   8
ATOM      5  C   UNL     1       2.898   3.346  19.212  0.00  0.00    +0.000 C 
ATOM      6  N   UNL     1       3.049   4.765  18.971  0.00  0.00    +0.000 N 
ATOM      7  C   UNL     1       2.195   5.702  19.491  0.00  0.00    +0.000 A 
ATOM      8  C   UNL     1       2.600   6.943  19.076  0.00  0.00    +0.000 A 
ATOM      9  C   UNL     1       3.738   6.738  18.247  0.00  0.00    +0.000 A 
ATOM     10  C   UNL     1       4.014   5.373  18.183  0.00  0.00    +0.000 A 
BRANCH  10  11
ATOM     11  C   UNL     1       5.086   4.659  17.500  0.00  0.00    +0.000 C 
ATOM     12  O   UNL     1       6.183   4.441  18.010  0.00  0.00    +0.000 OA
ATOM     13  N   UNL     1       4.784   4.206  16.227  0.00  0.00    +0.000 N 
ATOM     14  H   UNL     1       3.830   4.283  15.909  0.00  0.00    +0.000 HD
BRANCH  13  15
ATOM     15  C   UNL     1       5.760   3.473  15.426  0.00  0.00    +0.000 C 
BRANCH  15  16
ATOM     16  C   UNL     1       6.144   4.222  14.153  0.00  0.00    +0.000 C 
BRANCH  16  17
ATOM     17  C   UNL     1       7.294   5.182  14.378  0.00  0.00    +0.000 C 
ATOM     18  N   UNL     1       7.569   5.655  15.549  0.00  0.00    +0.000 NA
ATOM     19  N   UNL     1       8.061   5.583  13.333  0.00  0.00    +0.000 N 
ATOM     20  H   UNL     1       6.911   5.310  16.255  0.00  0.00    +0.000 HD
ATOM     21  H   UNL     1       8.135   5.011  12.503  0.00  0.00    +0.000 HD
ATOM     22  H   UNL     1       8.913   6.065  13.606  0.00  0.00    +0.000 HD
ENDBRANCH  16  17
ENDBRANCH  15  16
ENDBRANCH  13  15
ENDBRANCH  10  11
ENDBRANCH   1   8
BRANCH   2  23
ATOM     23  C   UNL     1       0.964  10.293  19.136  0.00  0.00    +0.000 A 
ATOM     24  C   UNL     1      -0.103  10.384  20.019  0.00  0.00    +0.000 A 
ATOM     25  C   UNL     1      -0.323  11.738  20.353  0.00  0.00    +0.000 A 
ATOM     26  C   UNL     1       0.634  12.467  19.687  0.00  0.00    +0.000 A 
ATOM     27  N   UNL     1       1.398  11.597  18.945  0.00  0.00    +0.000 N 
ATOM     28  C   UNL     1       2.477  12.015  18.070  0.00  0.00    +0.000 C 
BRANCH  25  29
ATOM     29  N   UNL     1      -1.282  12.296  21.180  0.00  0.00    +0.000 N 
ATOM     30  C   UNL     1      -1.338  12.117  22.555  0.00  0.00    +0.000 C 
ATOM     31  O   UNL     1      -0.538  11.429  23.188  0.00  0.00    +0.000 OA
ATOM     32  H   UNL     1      -1.982  12.867  20.730  0.00  0.00    +0.000 HD
BRANCH  30  33
ATOM     33  C   UNL     1      -2.433  12.820  23.218  0.00  0.00    +0.000 A 
ATOM     34  C   UNL     1      -3.761  12.442  23.403  0.00  0.00    +0.000 A 
ATOM     35  C   UNL     1      -4.419  13.476  24.090  0.00  0.00    +0.000 A 
ATOM     36  C   UNL     1      -3.514  14.466  24.345  0.00  0.00    +0.000 A 
ATOM     37  N   UNL     1      -2.312  14.070  23.813  0.00  0.00    +0.000 N 
ATOM     38  C   UNL     1      -1.113  14.884  23.858  0.00  0.00    +0.000 C 
BRANCH  35  39
ATOM     39  N   UNL     1      -5.707  13.501  24.442  0.00  0.00    +0.000 N 
ATOM     40  H   UNL     1      -6.063  14.134  25.150  0.00  0.00    +0.000 HD
ATOM     41  H   UNL     1      -6.335  12.734  24.222  0.00  0.00    +0.000 HD
ENDBRANCH  35  39
ENDBRANCH  30  33
ENDBRANCH  25  29
ENDBRANCH   2  23
TORSDOF 9
ENDMDL
MODEL 2
REMARK VINA RESULT:      -7.4      2.124      2.595
REMARK  Name = 
REMARK  12 active torsions:
REMARK  status: ('A' for Active; 'I' for Inactive)
REMARK    1  A    between atoms: C_1  and  N_2
REMARK    2  A    between atoms: C_4  and  N_5
REMARK    3  A    between atoms: C_6  and  C_8
REMARK    4  A    between atoms: C_10  and  N_11
REMARK    5  A    between atoms: C_12  and  C_14
REMARK    6  A    between atoms: C_16  and  N_17
REMARK    7  A    between atoms: N_19  and  C_20
REMARK    8  A    between atoms: N_22  and  C_23
REMARK    9  A    between atoms: C_25  and  C_26
REMARK   10  A    between atoms: N_28  and  C_29
REMARK   11  A    between atoms: C_29  and  C_30
REMARK   12  A    between atoms: C_30  and  C_31
REMARK                            x       y       z     vdW  Elec       q    Type
REMARK                         _______ _______ _______ _____ _____    ______ ____
ROOT
ATOM      1  N   UNL     1       0.817   8.529  20.782  0.00  0.00    +0.000 N 
ATOM      2  C   UNL     1       1.035   9.365  21.871  0.00  0.00    +0.000 C 
ATOM      3  O   UNL     1       1.887   9.169  22.735  0.00  0.00    +0.000 OA
ATOM      4  H   UNL     1       0.096   8.779  20.122  0.00  0.00    +0.000 HD
ENDROOT
BRANCH   1   8
ATOM      5  C   UNL     1       2.481   3.923  20.904  0.00  0.00    +0.000 C 
ATOM      6  N   UNL     1       2.337   5.307  20.505  0.00  0.00    +0.000 N 
ATOM      7  C   UNL     1       1.423   6.153  21.076  0.00  0.00    +0.000 A 
ATOM      8  C   UNL     1       1.530   7.381  20.479  0.00  0.00    +0.000 A 
ATOM      9  C   UNL     1       2.541   7.258  19.485  0.00  0.00    +0.000 A 
ATOM     10  C   UNL     1       3.042   5.957  19.504  0.00  0.00    +0.000 A 
BRANCH  10  11
ATOM     11  C   UNL     1       4.103   5.344  18.715  0.00  0.00    +0.000 C 
ATOM     12  O   UNL     1       5.212   5.073  19.170  0.00  0.00    +0.000 OA
ATOM     13  N   UNL     1       3.775   5.050  17.402  0.00  0.00    +0.000 N 
ATOM     14  H   UNL     1       2.814   5.158  17.116  0.00  0.00    +0.000 HD
BRANCH  13  15
ATOM     15  C   UNL     1       4.736   4.432  16.494  0.00  0.00    +0.000 C 
BRANCH  15  16
ATOM     16  C   UNL     1       5.602   5.463  15.777  0.00  0.00    +0.000 C 
BRANCH  16  17
ATOM     17  C   UNL     1       6.972   5.601  16.409  0.00  0.00    +0.000 C 
ATOM     18  N   UNL     1       7.580   6.740  16.480  0.00  0.00    +0.000 NA
ATOM     19  N   UNL     1       7.606   4.510  16.908  0.00  0.00    +0.000 N 
ATOM     20  H   UNL     1       7.025   7.486  16.048  0.00  0.00    +0.000 HD
ATOM     21  H   UNL     1       7.076   3.701  17.202  0.00  0.00    +0.000 HD
ATOM     22  H   UNL     1       8.419   4.728  17.476  0.00  0.00    +0.000 HD
ENDBRANCH  16  17
ENDBRANCH  15  16
ENDBRANCH  13  15
ENDBRANCH  10  11
ENDBRANCH   1   8
BRANCH   2  23
ATOM     23  C   UNL     1       0.160  10.537  21.914  0.00  0.00    +0.000 A 
ATOM     24  C   UNL     1      -1.008  10.739  22.637  0.00  0.00    +0.000 A 
ATOM     25  C   UNL     1      -1.522  12.024  22.351  0.00  0.00    +0.000 A 
ATOM     26  C   UNL     1      -0.645  12.609  21.470  0.00  0.00    +0.000 A 
ATOM     27  N   UNL     1       0.358  11.708  21.198  0.00  0.00    +0.000 N 
ATOM     28  C   UNL     1       1.439  11.962  20.264  0.00  0.00    +0.000 C 
BRANCH  25  29
ATOM     29  N   UNL     1      -2.666  12.640  22.827  0.00  0.00    +0.000 N 
ATOM     30  C   UNL     1      -3.796  12.900  22.066  0.00  0.00    +0.000 C 
ATOM     31  O   UNL     1      -3.897  12.615  20.873  0.00  0.00    +0.000 OA
ATOM     32  H   UNL     1      -2.653  12.914  23.799  0.00  0.00    +0.000 HD
BRANCH  30  33
ATOM     33  C   UNL     1      -4.886  13.546  22.792  0.00  0.00    +0.000 A 
ATOM     34  C   UNL     1      -5.946  12.988  23.504  0.00  0.00    +0.000 A 
ATOM     35  C   UNL     1      -6.735  14.035  24.007  0.00  0.00    +0.000 A 
ATOM     36  C   UNL     1      -6.167  15.219  23.633  0.00  0.00    +0.000 A 
ATOM     37  N   UNL     1      -5.049  14.923  22.894  0.00  0.00    +0.000 N 
ATOM     38  C   UNL     1      -4.200  15.932  22.293  0.00  0.00    +0.000 C 
BRANCH  35  39
ATOM     39  N   UNL     1      -7.851  13.911  24.730  0.00  0.00    +0.000 N 
ATOM     40  H   UNL     1      -8.189  14.651  25.336  0.00  0.00    +0.000 HD
ATOM     41  H   UNL     1      -8.269  13.004  24.914  0.00  0.00    +0.000 HD
ENDBRANCH  35  39
ENDBRANCH  30  33
ENDBRANCH  25  29
ENDBRANCH   2  23
TORSDOF 9
ENDMDL
MODEL 3
REMARK VINA RESULT:      -7.3      3.036      4.307
REMARK  Name = 
REMARK  12 active torsions:
REMARK  status: ('A' for Active; 'I' for Inactive)
REMARK    1  A    between atoms: C_1  and  N_2
REMARK    2  A    between atoms: C_4  and  N_5
REMARK    3  A    between atoms: C_6  and  C_8
REMARK    4  A    between atoms: C_10  and  N_11
REMARK    5  A    between atoms: C_12  and  C_14
REMARK    6  A    between atoms: C_16  and  N_17
REMARK    7  A    between atoms: N_19  and  C_20
REMARK    8  A    between atoms: N_22  and  C_23
REMARK    9  A    between atoms: C_25  and  C_26
REMARK   10  A    between atoms: N_28  and  C_29
REMARK   11  A    between atoms: C_29  and  C_30
REMARK   12  A    between atoms: C_30  and  C_31
REMARK                            x       y       z     vdW  Elec       q    Type
REMARK                         _______ _______ _______ _____ _____    ______ ____
ROOT
ATOM      1  N   UNL     1       1.058   8.717  20.187  0.00  0.00    +0.000 N 
ATOM      2  C   UNL     1       1.092   9.557  21.295  0.00  0.00    +0.000 C 
ATOM      3  O   UNL     1       1.677   9.297  22.344  0.00  0.00    +0.000 OA
ATOM      4  H   UNL     1       0.554   9.022  19.369  0.00  0.00    +0.000 HD
ENDROOT
BRANCH   1   8
ATOM      5  C   UNL     1       2.351   4.060  20.987  0.00  0.00    +0.000 C 
ATOM      6  N   UNL     1       2.335   5.386  20.409  0.00  0.00    +0.000 N 
ATOM      7  C   UNL     1       1.463   6.363  20.814  0.00  0.00    +0.000 A 
ATOM      8  C   UNL     1       1.694   7.491  20.074  0.00  0.00    +0.000 A 
ATOM      9  C   UNL     1       2.737   7.168  19.163  0.00  0.00    +0.000 A 
ATOM     10  C   UNL     1       3.134   5.848  19.375  0.00  0.00    +0.000 A 
BRANCH  10  11
ATOM     11  C   UNL     1       4.180   5.063  18.731  0.00  0.00    +0.000 C 
ATOM     12  O   UNL     1       5.302   4.915  19.209  0.00  0.00    +0.000 OA
ATOM     13  N   UNL     1       3.822   4.457  17.539  0.00  0.00    +0.000 N 
ATOM     14  H   UNL     1       2.852   4.490  17.261  0.00  0.00    +0.000 HD
BRANCH  13  15
ATOM     15  C   UNL     1       4.765   3.638  16.784  0.00  0.00    +0.000 C 
BRANCH  15  16
ATOM     16  C   UNL     1       5.354   4.383  15.590  0.00  0.00    +0.000 C 
BRANCH  16  17
ATOM     17  C   UNL     1       6.828   4.683  15.772  0.00  0.00    +0.000 C 
ATOM     18  N   UNL     1       7.557   5.135  14.804  0.00  0.00    +0.000 NA
ATOM     19  N   UNL     1       7.425   4.465  16.970  0.00  0.00    +0.000 N 
ATOM     20  H   UNL     1       7.012   5.233  13.942  0.00  0.00    +0.000 HD
ATOM     21  H   UNL     1       6.880   4.461  17.821  0.00  0.00    +0.000 HD
ATOM     22  H   UNL     1       8.353   4.871  17.050  0.00  0.00    +0.000 HD
ENDBRANCH  16  17
ENDBRANCH  15  16
ENDBRANCH  13  15
ENDBRANCH  10  11
ENDBRANCH   1   8
BRANCH   2  23
ATOM     23  C   UNL     1       0.367  10.815  21.117  0.00  0.00    +0.000 A 
ATOM     24  C   UNL     1       0.532  11.800  20.153  0.00  0.00    +0.000 A 
ATOM     25  C   UNL     1      -0.388  12.847  20.386  0.00  0.00    +0.000 A 
ATOM     26  C   UNL     1      -1.129  12.479  21.483  0.00  0.00    +0.000 A 
ATOM     27  N   UNL     1      -0.665  11.264  21.929  0.00  0.00    +0.000 N 
ATOM     28  C   UNL     1      -1.178  10.586  23.105  0.00  0.00    +0.000 C 
BRANCH  25  29
ATOM     29  N   UNL     1      -0.569  14.029  19.692  0.00  0.00    +0.000 N 
ATOM     30  C   UNL     1       0.202  15.170  19.863  0.00  0.00    +0.000 C 
ATOM     31  O   UNL     1       1.133  15.252  20.663  0.00  0.00    +0.000 OA
ATOM     32  H   UNL     1      -1.325  14.043  19.023  0.00  0.00    +0.000 HD
BRANCH  30  33
ATOM     33  C   UNL     1      -0.169  16.292  19.005  0.00  0.00    +0.000 A 
ATOM     34  C   UNL     1       0.422  16.761  17.834  0.00  0.00    +0.000 A 
ATOM     35  C   UNL     1      -0.304  17.881  17.395  0.00  0.00    +0.000 A 
ATOM     36  C   UNL     1      -1.335  18.092  18.264  0.00  0.00    +0.000 A 
ATOM     37  N   UNL     1      -1.251  17.132  19.241  0.00  0.00    +0.000 N 
ATOM     38  C   UNL     1      -2.164  17.055  20.365  0.00  0.00    +0.000 C 
BRANCH  35  39
ATOM     39  N   UNL     1      -0.043  18.623  16.315  0.00  0.00    +0.000 N 
ATOM     40  H   UNL     1      -0.617  18.583  15.479  0.00  0.00    +0.000 HD
ATOM     41  H   UNL     1       0.864  19.056  16.172  0.00  0.00    +0.000 HD
ENDBRANCH  35  39
ENDBRANCH  30  33
ENDBRANCH  25  29
ENDBRANCH   2  23
TORSDOF 9
ENDMDL
MODEL 4
REMARK VINA RESULT:      -7.2      1.090      1.298
REMARK  Name = 
REMARK  12 active torsions:
REMARK  status: ('A' for Active; 'I' for Inactive)
REMARK    1  A    between atoms: C_1  and  N_2
REMARK    2  A    between atoms: C_4  and  N_5
REMARK    3  A    between atoms: C_6  and  C_8
REMARK    4  A    between atoms: C_10  and  N_11
REMARK    5  A    between atoms: C_12  and  C_14
REMARK    6  A    between atoms: C_16  and  N_17
REMARK    7  A    between atoms: N_19  and  C_20
REMARK    8  A    between atoms: N_22  and  C_23
REMARK    9  A    between atoms: C_25  and  C_26
REMARK   10  A    between atoms: N_28  and  C_29
REMARK   11  A    between atoms: C_29  and  C_30
REMARK   12  A    between atoms: C_30  and  C_31
REMARK                            x       y       z     vdW  Elec       q    Type
REMARK                         _______ _______ _______ _____ _____    ______ ____
ROOT
ATOM      1  N   UNL     1       2.170   8.426  18.900  0.00  0.00    +0.000 N 
ATOM      2  C   UNL     1       1.260   9.218  18.208  0.00  0.00    +0.000 C 
ATOM      3  O   UNL     1       0.893   9.003  17.054  0.00  0.00    +0.000 OA
ATOM      4  H   UNL     1       2.405   8.682  19.847  0.00  0.00    +0.000 HD
ENDROOT
BRANCH   1   8
ATOM      5  C   UNL     1       3.085   3.701  17.983  0.00  0.00    +0.000 C 
ATOM      6  N   UNL     1       3.247   5.139  18.000  0.00  0.00    +0.000 N 
ATOM      7  C   UNL     1       2.340   5.982  18.586  0.00  0.00    +0.000 A 
ATOM      8  C   UNL     1       2.772   7.272  18.427  0.00  0.00    +0.000 A 
ATOM      9  C   UNL     1       3.986   7.200  17.688  0.00  0.00    +0.000 A 
ATOM     10  C   UNL     1       4.278   5.863  17.421  0.00  0.00    +0.000 A 
BRANCH  10  11
ATOM     11  C   UNL     1       5.416   5.266  16.734  0.00  0.00    +0.000 C 
ATOM     12  O   UNL     1       6.279   4.605  17.307  0.00  0.00    +0.000 OA
ATOM     13  N   UNL     1       5.458   5.466  15.365  0.00  0.00    +0.000 N 
ATOM     14  H   UNL     1       4.657   5.890  14.921  0.00  0.00    +0.000 HD
BRANCH  13  15
ATOM     15  C   UNL     1       6.537   4.923  14.545  0.00  0.00    +0.000 C 
BRANCH  15  16
ATOM     16  C   UNL     1       6.198   3.548  13.977  0.00  0.00    +0.000 C 
BRANCH  16  17
ATOM     17  C   UNL     1       6.115   3.558  12.464  0.00  0.00    +0.000 C 
ATOM     18  N   UNL     1       5.053   3.172  11.836  0.00  0.00    +0.000 NA
ATOM     19  N   UNL     1       7.179   3.965  11.726  0.00  0.00    +0.000 N 
ATOM     20  H   UNL     1       4.327   2.860  12.489  0.00  0.00    +0.000 HD
ATOM     21  H   UNL     1       7.869   4.587  12.123  0.00  0.00    +0.000 HD
ATOM     22  H   UNL     1       6.966   4.119  10.745  0.00  0.00    +0.000 HD
ENDBRANCH  16  17
ENDBRANCH  15  16
ENDBRANCH  13  15
ENDBRANCH  10  11
ENDBRANCH   1   8
BRANCH   2  23
ATOM     23  C   UNL     1       0.748  10.354  18.973  0.00  0.00    +0.000 A 
ATOM     24  C   UNL     1      -0.344  10.422  19.828  0.00  0.00    +0.000 A 
ATOM     25  C   UNL     1      -0.465  11.735  20.334  0.00  0.00    +0.000 A 
ATOM     26  C   UNL     1       0.576  12.458  19.801  0.00  0.00    +0.000 A 
ATOM     27  N   UNL     1       1.295  11.629  18.972  0.00  0.00    +0.000 N 
ATOM     28  C   UNL     1       2.441  12.062  18.194  0.00  0.00    +0.000 C 
BRANCH  25  29
ATOM     29  N   UNL     1      -1.407  12.262  21.199  0.00  0.00    +0.000 N 
ATOM     30  C   UNL     1      -1.394  12.094  22.577  0.00  0.00    +0.000 C 
ATOM     31  O   UNL     1      -0.539  11.445  23.178  0.00  0.00    +0.000 OA
ATOM     32  H   UNL     1      -2.150  12.799  20.777  0.00  0.00    +0.000 HD
BRANCH  30  33
ATOM     33  C   UNL     1      -2.486  12.758  23.283  0.00  0.00    +0.000 A 
ATOM     34  C   UNL     1      -3.813  12.370  23.452  0.00  0.00    +0.000 A 
ATOM     35  C   UNL     1      -4.468  13.363  24.199  0.00  0.00    +0.000 A 
ATOM     36  C   UNL     1      -3.562  14.337  24.506  0.00  0.00    +0.000 A 
ATOM     37  N   UNL     1      -2.362  13.973  23.947  0.00  0.00    +0.000 N 
ATOM     38  C   UNL     1      -1.163  14.783  24.033  0.00  0.00    +0.000 C 
BRANCH  35  39
ATOM     39  N   UNL     1      -5.754  13.368  24.558  0.00  0.00    +0.000 N 
ATOM     40  H   UNL     1      -6.479  13.765  23.970  0.00  0.00    +0.000 HD
ATOM     41  H   UNL     1      -6.040  13.222  25.521  0.00  0.00    +0.000 HD
ENDBRANCH  35  39
ENDBRANCH  30  33
ENDBRANCH  25  29
ENDBRANCH   2  23
TORSDOF 9
ENDMDL
MODEL 5
REMARK VINA RESULT:      -7.2      3.014     12.081
REMARK  Name = 
REMARK  12 active torsions:
REMARK  status: ('A' for Active; 'I' for Inactive)
REMARK    1  A    between atoms: C_1  and  N_2
REMARK    2  A    between atoms: C_4  and  N_5
REMARK    3  A    between atoms: C_6  and  C_8
REMARK    4  A    between atoms: C_10  and  N_11
REMARK    5  A    between atoms: C_12  and  C_14
REMARK    6  A    between atoms: C_16  and  N_17
REMARK    7  A    between atoms: N_19  and  C_20
REMARK    8  A    between atoms: N_22  and  C_23
REMARK    9  A    between atoms: C_25  and  C_26
REMARK   10  A    between atoms: N_28  and  C_29
REMARK   11  A    between atoms: C_29  and  C_30
REMARK   12  A    between atoms: C_30  and  C_31
REMARK                            x       y       z     vdW  Elec       q    Type
REMARK                         _______ _______ _______ _____ _____    ______ ____
ROOT
ATOM      1  N   UNL     1      -1.731  10.337  18.762  0.00  0.00    +0.000 N 
ATOM      2  C   UNL     1      -0.435  10.840  18.736  0.00  0.00    +0.000 C 
ATOM      3  O   UNL     1      -0.157  12.034  18.645  0.00  0.00    +0.000 OA
ATOM      4  H   UNL     1      -1.857   9.340  18.844  0.00  0.00    +0.000 HD
ENDROOT
BRANCH   1   8
ATOM      5  C   UNL     1      -5.843  12.457  17.151  0.00  0.00    +0.000 C 
ATOM      6  N   UNL     1      -4.761  12.089  18.038  0.00  0.00    +0.000 N 
ATOM      7  C   UNL     1      -3.755  11.235  17.668  0.00  0.00    +0.000 A 
ATOM      8  C   UNL     1      -2.897  11.084  18.724  0.00  0.00    +0.000 A 
ATOM      9  C   UNL     1      -3.428  11.865  19.788  0.00  0.00    +0.000 A 
ATOM     10  C   UNL     1      -4.596  12.490  19.354  0.00  0.00    +0.000 A 
BRANCH  10  11
ATOM     11  C   UNL     1      -5.484  13.414  20.049  0.00  0.00    +0.000 C 
ATOM     12  O   UNL     1      -5.422  14.635  19.919  0.00  0.00    +0.000 OA
ATOM     13  N   UNL     1      -6.441  12.827  20.859  0.00  0.00    +0.000 N 
ATOM     14  H   UNL     1      -6.545  11.824  20.821  0.00  0.00    +0.000 HD
BRANCH  13  15
ATOM     15  C   UNL     1      -7.400  13.628  21.612  0.00  0.00    +0.000 C 
BRANCH  15  16
ATOM     16  C   UNL     1      -6.955  13.860  23.053  0.00  0.00    +0.000 C 
BRANCH  16  17
ATOM     17  C   UNL     1      -6.729  12.561  23.800  0.00  0.00    +0.000 C 
ATOM     18  N   UNL     1      -7.577  11.587  23.747  0.00  0.00    +0.000 NA
ATOM     19  N   UNL     1      -5.619  12.398  24.564  0.00  0.00    +0.000 N 
ATOM     20  H   UNL     1      -8.387  11.829  23.168  0.00  0.00    +0.000 HD
ATOM     21  H   UNL     1      -4.785  12.937  24.376  0.00  0.00    +0.000 HD
ATOM     22  H   UNL     1      -5.460  11.441  24.864  0.00  0.00    +0.000 HD
ENDBRANCH  16  17
ENDBRANCH  15  16
ENDBRANCH  13  15
ENDBRANCH  10  11
ENDBRANCH   1   8
BRANCH   2  23
ATOM     23  C   UNL     1       0.608   9.819  18.837  0.00  0.00    +0.000 A 
ATOM     24  C   UNL     1       1.476   9.345  17.863  0.00  0.00    +0.000 A 
ATOM     25  C   UNL     1       2.305   8.345  18.417  0.00  0.00    +0.000 A 
ATOM     26  C   UNL     1       1.952   8.232  19.740  0.00  0.00    +0.000 A 
ATOM     27  N   UNL     1       0.922   9.109  19.987  0.00  0.00    +0.000 N 
ATOM     28  C   UNL     1       0.255   9.231  21.270  0.00  0.00    +0.000 C 
BRANCH  25  29
ATOM     29  N   UNL     1       3.298   7.592  17.816  0.00  0.00    +0.000 N 
ATOM     30  C   UNL     1       3.240   6.218  17.627  0.00  0.00    +0.000 C 
ATOM     31  O   UNL     1       2.294   5.518  17.987  0.00  0.00    +0.000 OA
ATOM     32  H   UNL     1       4.114   8.097  17.504  0.00  0.00    +0.000 HD
BRANCH  30  33
ATOM     33  C   UNL     1       4.402   5.645  16.953  0.00  0.00    +0.000 A 
ATOM     34  C   UNL     1       5.336   6.242  16.110  0.00  0.00    +0.000 A 
ATOM     35  C   UNL     1       6.255   5.259  15.708  0.00  0.00    +0.000 A 
ATOM     36  C   UNL     1       5.911   4.080  16.304  0.00  0.00    +0.000 A 
ATOM     37  N   UNL     1       4.787   4.313  17.056  0.00  0.00    +0.000 N 
ATOM     38  C   UNL     1       4.105   3.281  17.813  0.00  0.00    +0.000 C 
BRANCH  35  39
ATOM     39  N   UNL     1       7.292   5.431  14.884  0.00  0.00    +0.000 N 
ATOM     40  H   UNL     1       7.676   6.347  14.681  0.00  0.00    +0.000 HD
ATOM     41  H   UNL     1       7.579   4.709  14.230  0.00  0.00    +0.000 HD
ENDBRANCH  35  39
ENDBRANCH  30  33
ENDBRANCH  25  29
ENDBRANCH   2  23
TORSDOF 9
ENDMDL
MODEL 6
REMARK VINA RESULT:      -7.1      1.641      2.030
REMARK  Name = 
REMARK  12 active torsions:
REMARK  status: ('A' for Active; 'I' for Inactive)
REMARK    1  A    between atoms: C_1  and  N_2
REMARK    2  A    between atoms: C_4  and  N_5
REMARK    3  A    between atoms: C_6  and  C_8
REMARK    4  A    between atoms: C_10  and  N_11
REMARK    5  A    between atoms: C_12  and  C_14
REMARK    6  A    between atoms: C_16  and  N_17
REMARK    7  A    between atoms: N_19  and  C_20
REMARK    8  A    between atoms: N_22  and  C_23
REMARK    9  A    between atoms: C_25  and  C_26
REMARK   10  A    between atoms: N_28  and  C_29
REMARK   11  A    between atoms: C_29  and  C_30
REMARK   12  A    between atoms: C_30  and  C_31
REMARK                            x       y       z     vdW  Elec       q    Type
REMARK                         _______ _______ _______ _____ _____    ______ ____
ROOT
ATOM      1  N   UNL     1       1.563   8.293  20.320  0.00  0.00    +0.000 N 
ATOM      2  C   UNL     1       1.195   9.192  19.325  0.00  0.00    +0.000 C 
ATOM      3  O   UNL     1       1.302   8.974  18.120  0.00  0.00    +0.000 OA
ATOM      4  H   UNL     1       1.432   8.562  21.283  0.00  0.00    +0.000 HD
ENDROOT
BRANCH   1   8
ATOM      5  C   UNL     1       2.272   3.462  20.716  0.00  0.00    +0.000 C 
ATOM      6  N   UNL     1       2.445   4.830  20.277  0.00  0.00    +0.000 N 
ATOM      7  C   UNL     1       1.658   5.858  20.725  0.00  0.00    +0.000 A 
ATOM      8  C   UNL     1       2.066   7.018  20.121  0.00  0.00    +0.000 A 
ATOM      9  C   UNL     1       3.134   6.663  19.250  0.00  0.00    +0.000 A 
ATOM     10  C   UNL     1       3.366   5.292  19.350  0.00  0.00    +0.000 A 
BRANCH  10  11
ATOM     11  C   UNL     1       4.365   4.455  18.696  0.00  0.00    +0.000 C 
ATOM     12  O   UNL     1       5.256   3.868  19.306  0.00  0.00    +0.000 OA
ATOM     13  N   UNL     1       4.234   4.332  17.324  0.00  0.00    +0.000 N 
ATOM     14  H   UNL     1       3.407   4.713  16.889  0.00  0.00    +0.000 HD
BRANCH  13  15
ATOM     15  C   UNL     1       5.160   3.524  16.537  0.00  0.00    +0.000 C 
BRANCH  15  16
ATOM     16  C   UNL     1       6.136   4.378  15.733  0.00  0.00    +0.000 C 
BRANCH  16  17
ATOM     17  C   UNL     1       7.192   5.020  16.609  0.00  0.00    +0.000 C 
ATOM     18  N   UNL     1       7.771   4.373  17.566  0.00  0.00    +0.000 NA
ATOM     19  N   UNL     1       7.545   6.316  16.412  0.00  0.00    +0.000 N 
ATOM     20  H   UNL     1       7.408   3.418  17.643  0.00  0.00    +0.000 HD
ATOM     21  H   UNL     1       7.412   6.751  15.510  0.00  0.00    +0.000 HD
ATOM     22  H   UNL     1       8.384   6.596  16.912  0.00  0.00    +0.000 HD
ENDBRANCH  16  17
ENDBRANCH  15  16
ENDBRANCH  13  15
ENDBRANCH  10  11
ENDBRANCH   1   8
BRANCH   2  23
ATOM     23  C   UNL     1       0.647  10.453  19.827  0.00  0.00    +0.000 A 
ATOM     24  C   UNL     1      -0.387  10.668  20.728  0.00  0.00    +0.000 A 
ATOM     25  C   UNL     1      -0.576  12.057  20.903  0.00  0.00    +0.000 A 
ATOM     26  C   UNL     1       0.365  12.683  20.121  0.00  0.00    +0.000 A 
ATOM     27  N   UNL     1       1.090  11.716  19.465  0.00  0.00    +0.000 N 
ATOM     28  C   UNL     1       2.143  12.007  18.509  0.00  0.00    +0.000 C 
BRANCH  25  29
ATOM     29  N   UNL     1      -1.497  12.728  21.688  0.00  0.00    +0.000 N 
ATOM     30  C   UNL     1      -2.723  13.197  21.238  0.00  0.00    +0.000 C 
ATOM     31  O   UNL     1      -3.120  13.073  20.081  0.00  0.00    +0.000 OA
ATOM     32  H   UNL     1      -1.236  12.879  22.651  0.00  0.00    +0.000 HD
BRANCH  30  33
ATOM     33  C   UNL     1      -3.534  13.861  22.256  0.00  0.00    +0.000 A 
ATOM     34  C   UNL     1      -3.183  14.834  23.189  0.00  0.00    +0.000 A 
ATOM     35  C   UNL     1      -4.320  15.135  23.956  0.00  0.00    +0.000 A 
ATOM     36  C   UNL     1      -5.360  14.380  23.497  0.00  0.00    +0.000 A 
ATOM     37  N   UNL     1      -4.883  13.605  22.470  0.00  0.00    +0.000 N 
ATOM     38  C   UNL     1      -5.695  12.642  21.753  0.00  0.00    +0.000 C 
BRANCH  35  39
ATOM     39  N   UNL     1      -4.390  16.009  24.965  0.00  0.00    +0.000 N 
ATOM     40  H   UNL     1      -3.580  16.257  25.523  0.00  0.00    +0.000 HD
ATOM     41  H   UNL     1      -5.276  16.265  25.388  0.00  0.00    +0.000 HD
ENDBRANCH  35  39
ENDBRANCH  30  33
ENDBRANCH  25  29
ENDBRANCH   2  23
TORSDOF 9
ENDMDL
MODEL 7
REMARK VINA RESULT:      -7.1      1.472      1.779
REMARK  Name = 
REMARK  12 active torsions:
REMARK  status: ('A' for Active; 'I' for Inactive)
REMARK    1  A    between atoms: C_1  and  N_2
REMARK    2  A    between atoms: C_4  and  N_5
REMARK    3  A    between atoms: C_6  and  C_8
REMARK    4  A    between atoms: C_10  and  N_11
REMARK    5  A    between atoms: C_12  and  C_14
REMARK    6  A    between atoms: C_16  and  N_17
REMARK    7  A    between atoms: N_19  and  C_20
REMARK    8  A    between atoms: N_22  and  C_23
REMARK    9  A    between atoms: C_25  and  C_26
REMARK   10  A    between atoms: N_28  and  C_29
REMARK   11  A    between atoms: C_29  and  C_30
REMARK   12  A    between atoms: C_30  and  C_31
REMARK                            x       y       z     vdW  Elec       q    Type
REMARK                         _______ _______ _______ _____ _____    ______ ____
ROOT
ATOM      1  N   UNL     1       1.398   8.694  20.159  0.00  0.00    +0.000 N 
ATOM      2  C   UNL     1       0.999   9.510  19.106  0.00  0.00    +0.000 C 
ATOM      3  O   UNL     1       1.110   9.212  17.918  0.00  0.00    +0.000 OA
ATOM      4  H   UNL     1       1.261   9.026  21.101  0.00  0.00    +0.000 HD
ENDROOT
BRANCH   1   8
ATOM      5  C   UNL     1       2.302   3.940  20.924  0.00  0.00    +0.000 C 
ATOM      6  N   UNL     1       2.408   5.272  20.368  0.00  0.00    +0.000 N 
ATOM      7  C   UNL     1       1.599   6.307  20.759  0.00  0.00    +0.000 A 
ATOM      8  C   UNL     1       1.942   7.425  20.047  0.00  0.00    +0.000 A 
ATOM      9  C   UNL     1       2.990   7.036  19.167  0.00  0.00    +0.000 A 
ATOM     10  C   UNL     1       3.277   5.686  19.371  0.00  0.00    +0.000 A 
BRANCH  10  11
ATOM     11  C   UNL     1       4.283   4.833  18.751  0.00  0.00    +0.000 C 
ATOM     12  O   UNL     1       5.339   4.526  19.301  0.00  0.00    +0.000 OA
ATOM     13  N   UNL     1       3.964   4.353  17.492  0.00  0.00    +0.000 N 
ATOM     14  H   UNL     1       3.031   4.515  17.144  0.00  0.00    +0.000 HD
BRANCH  13  15
ATOM     15  C   UNL     1       4.874   3.485  16.752  0.00  0.00    +0.000 C 
BRANCH  15  16
ATOM     16  C   UNL     1       5.552   4.210  15.593  0.00  0.00    +0.000 C 
BRANCH  16  17
ATOM     17  C   UNL     1       6.934   4.712  15.961  0.00  0.00    +0.000 C 
ATOM     18  N   UNL     1       7.504   4.386  17.075  0.00  0.00    +0.000 NA
ATOM     19  N   UNL     1       7.604   5.541  15.121  0.00  0.00    +0.000 N 
ATOM     20  H   UNL     1       6.898   3.785  17.642  0.00  0.00    +0.000 HD
ATOM     21  H   UNL     1       7.394   5.547  14.133  0.00  0.00    +0.000 HD
ATOM     22  H   UNL     1       8.584   5.666  15.359  0.00  0.00    +0.000 HD
ENDBRANCH  16  17
ENDBRANCH  15  16
ENDBRANCH  13  15
ENDBRANCH  10  11
ENDBRANCH   1   8
BRANCH   2  23
ATOM     23  C   UNL     1       0.412  10.784  19.522  0.00  0.00    +0.000 A 
ATOM     24  C   UNL     1      -0.743  11.026  20.253  0.00  0.00    +0.000 A 
ATOM     25  C   UNL     1      -0.922  12.420  20.401  0.00  0.00    +0.000 A 
ATOM     26  C   UNL     1       0.144  13.021  19.777  0.00  0.00    +0.000 A 
ATOM     27  N   UNL     1       0.938  12.036  19.237  0.00  0.00    +0.000 N 
ATOM     28  C   UNL     1       2.132  12.299  18.456  0.00  0.00    +0.000 C 
BRANCH  25  29
ATOM     29  N   UNL     1      -1.936  13.114  21.037  0.00  0.00    +0.000 N 
ATOM     30  C   UNL     1      -1.850  13.636  22.320  0.00  0.00    +0.000 C 
ATOM     31  O   UNL     1      -0.855  13.529  23.036  0.00  0.00    +0.000 OA
ATOM     32  H   UNL     1      -2.791  13.232  20.514  0.00  0.00    +0.000 HD
BRANCH  30  33
ATOM     33  C   UNL     1      -3.044  14.344  22.772  0.00  0.00    +0.000 A 
ATOM     34  C   UNL     1      -3.486  15.634  22.487  0.00  0.00    +0.000 A 
ATOM     35  C   UNL     1      -4.687  15.849  23.182  0.00  0.00    +0.000 A 
ATOM     36  C   UNL     1      -4.997  14.711  23.868  0.00  0.00    +0.000 A 
ATOM     37  N   UNL     1      -4.000  13.800  23.623  0.00  0.00    +0.000 N 
ATOM     38  C   UNL     1      -3.965  12.476  24.212  0.00  0.00    +0.000 C 
BRANCH  35  39
ATOM     39  N   UNL     1      -5.415  16.969  23.181  0.00  0.00    +0.000 N 
ATOM     40  H   UNL     1      -5.842  17.339  24.024  0.00  0.00    +0.000 HD
ATOM     41  H   UNL     1      -5.794  17.359  22.323  0.00  0.00    +0.000 HD
ENDBRANCH  35  39
ENDBRANCH  30  33
ENDBRANCH  25  29
ENDBRANCH   2  23
TORSDOF 9
ENDMDL
MODEL 8
REMARK VINA RESULT:      -7.1      1.483      2.168
REMARK  Name = 
REMARK  12 active torsions:
REMARK  status: ('A' for Active; 'I' for Inactive)
REMARK    1  A    between atoms: C_1  and  N_2
REMARK    2  A    between atoms: C_4  and  N_5
REMARK    3  A    between atoms: C_6  and  C_8
REMARK    4  A    between atoms: C_10  and  N_11
REMARK    5  A    between atoms: C_12  and  C_14
REMARK    6  A    between atoms: C_16  and  N_17
REMARK    7  A    between atoms: N_19  and  C_20
REMARK    8  A    between atoms: N_22  and  C_23
REMARK    9  A    between atoms: C_25  and  C_26
REMARK   10  A    between atoms: N_28  and  C_29
REMARK   11  A    between atoms: C_29  and  C_30
REMARK   12  A    between atoms: C_30  and  C_31
REMARK                            x       y       z     vdW  Elec       q    Type
REMARK                         _______ _______ _______ _____ _____    ______ ____
ROOT
ATOM      1  N   UNL     1       1.737   8.315  19.158  0.00  0.00    +0.000 N 
ATOM      2  C   UNL     1       1.498   9.487  18.449  0.00  0.00    +0.000 C 
ATOM      3  O   UNL     1       2.099   9.814  17.428  0.00  0.00    +0.000 OA
ATOM      4  H   UNL     1       1.187   8.133  19.983  0.00  0.00    +0.000 HD
ENDROOT
BRANCH   1   8
ATOM      5  C   UNL     1       4.462   4.248  19.330  0.00  0.00    +0.000 C 
ATOM      6  N   UNL     1       3.925   5.505  18.857  0.00  0.00    +0.000 N 
ATOM      7  C   UNL     1       2.940   6.189  19.520  0.00  0.00    +0.000 A 
ATOM      8  C   UNL     1       2.647   7.327  18.818  0.00  0.00    +0.000 A 
ATOM      9  C   UNL     1       3.478   7.313  17.664  0.00  0.00    +0.000 A 
ATOM     10  C   UNL     1       4.275   6.169  17.692  0.00  0.00    +0.000 A 
BRANCH  10  11
ATOM     11  C   UNL     1       5.308   5.717  16.767  0.00  0.00    +0.000 C 
ATOM     12  O   UNL     1       6.420   6.234  16.694  0.00  0.00    +0.000 OA
ATOM     13  N   UNL     1       4.968   4.631  15.979  0.00  0.00    +0.000 N 
ATOM     14  H   UNL     1       4.100   4.154  16.175  0.00  0.00    +0.000 HD
BRANCH  13  15
ATOM     15  C   UNL     1       5.902   4.068  15.010  0.00  0.00    +0.000 C 
BRANCH  15  16
ATOM     16  C   UNL     1       5.389   4.182  13.577  0.00  0.00    +0.000 C 
BRANCH  16  17
ATOM     17  C   UNL     1       6.353   3.581  12.574  0.00  0.00    +0.000 C 
ATOM     18  N   UNL     1       7.349   4.254  12.096  0.00  0.00    +0.000 NA
ATOM     19  N   UNL     1       6.178   2.308  12.138  0.00  0.00    +0.000 N 
ATOM     20  H   UNL     1       7.367   5.208  12.470  0.00  0.00    +0.000 HD
ATOM     21  H   UNL     1       5.672   1.639  12.702  0.00  0.00    +0.000 HD
ATOM     22  H   UNL     1       6.970   1.934  11.624  0.00  0.00    +0.000 HD
ENDBRANCH  16  17
ENDBRANCH  15  16
ENDBRANCH  13  15
ENDBRANCH  10  11
ENDBRANCH   1   8
BRANCH   2  23
ATOM     23  C   UNL     1       0.443  10.328  19.016  0.00  0.00    +0.000 A 
ATOM     24  C   UNL     1       0.482  11.168  20.121  0.00  0.00    +0.000 A 
ATOM     25  C   UNL     1      -0.784  11.769  20.299  0.00  0.00    +0.000 A 
ATOM     26  C   UNL     1      -1.584  11.309  19.281  0.00  0.00    +0.000 A 
ATOM     27  N   UNL     1      -0.848  10.432  18.519  0.00  0.00    +0.000 N 
ATOM     28  C   UNL     1      -1.383   9.706  17.381  0.00  0.00    +0.000 C 
BRANCH  25  29
ATOM     29  N   UNL     1      -1.207  12.656  21.273  0.00  0.00    +0.000 N 
ATOM     30  C   UNL     1      -1.055  12.459  22.639  0.00  0.00    +0.000 C 
ATOM     31  O   UNL     1      -0.531  11.461  23.131  0.00  0.00    +0.000 OA
ATOM     32  H   UNL     1      -1.659  13.497  20.945  0.00  0.00    +0.000 HD
BRANCH  30  33
ATOM     33  C   UNL     1      -1.566  13.544  23.472  0.00  0.00    +0.000 A 
ATOM     34  C   UNL     1      -0.966  14.740  23.857  0.00  0.00    +0.000 A 
ATOM     35  C   UNL     1      -1.867  15.439  24.677  0.00  0.00    +0.000 A 
ATOM     36  C   UNL     1      -3.011  14.702  24.783  0.00  0.00    +0.000 A 
ATOM     37  N   UNL     1      -2.828  13.552  24.057  0.00  0.00    +0.000 N 
ATOM     38  C   UNL     1      -3.822  12.501  23.961  0.00  0.00    +0.000 C 
BRANCH  35  39
ATOM     39  N   UNL     1      -1.658  16.622  25.260  0.00  0.00    +0.000 N 
ATOM     40  H   UNL     1      -2.342  17.370  25.229  0.00  0.00    +0.000 HD
ATOM     41  H   UNL     1      -0.727  16.926  25.531  0.00  0.00    +0.000 HD
ENDBRANCH  35  39
ENDBRANCH  30  33
ENDBRANCH  25  29
ENDBRANCH   2  23
TORSDOF 9
ENDMDL
MODEL 9
REMARK VINA RESULT:      -7.0      1.662      2.071
REMARK  Name = 
REMARK  12 active torsions:
REMARK  status: ('A' for Active; 'I' for Inactive)
REMARK    1  A    between atoms: C_1  and  N_2
REMARK    2  A    between atoms: C_4  and  N_5
REMARK    3  A    between atoms: C_6  and  C_8
REMARK    4  A    between atoms: C_10  and  N_11
REMARK    5  A    between atoms: C_12  and  C_14
REMARK    6  A    between atoms: C_16  and  N_17
REMARK    7  A    between atoms: N_19  and  C_20
REMARK    8  A    between atoms: N_22  and  C_23
REMARK    9  A    between atoms: C_25  and  C_26
REMARK   10  A    between atoms: N_28  and  C_29
REMARK   11  A    between atoms: C_29  and  C_30
REMARK   12  A    between atoms: C_30  and  C_31
REMARK                            x       y       z     vdW  Elec       q    Type
REMARK                         _______ _______ _______ _____ _____    ______ ____
ROOT
ATOM      1  N   UNL     1       1.865   8.311  19.480  0.00  0.00    +0.000 N 
ATOM      2  C   UNL     1       1.393   9.222  18.542  0.00  0.00    +0.000 C 
ATOM      3  O   UNL     1       1.566   9.121  17.329  0.00  0.00    +0.000 OA
ATOM      4  H   UNL     1       1.667   8.478  20.454  0.00  0.00    +0.000 HD
ENDROOT
BRANCH   1   8
ATOM      5  C   UNL     1       3.397   3.660  19.648  0.00  0.00    +0.000 C 
ATOM      6  N   UNL     1       3.313   5.051  19.256  0.00  0.00    +0.000 N 
ATOM      7  C   UNL     1       2.391   5.917  19.783  0.00  0.00    +0.000 A 
ATOM      8  C   UNL     1       2.564   7.146  19.205  0.00  0.00    +0.000 A 
ATOM      9  C   UNL     1       3.624   7.004  18.268  0.00  0.00    +0.000 A 
ATOM     10  C   UNL     1       4.088   5.690  18.302  0.00  0.00    +0.000 A 
BRANCH  10  11
ATOM     11  C   UNL     1       5.175   5.055  17.565  0.00  0.00    +0.000 C 
ATOM     12  O   UNL     1       6.354   5.137  17.900  0.00  0.00    +0.000 OA
ATOM     13  N   UNL     1       4.793   4.314  16.460  0.00  0.00    +0.000 N 
ATOM     14  H   UNL     1       3.807   4.158  16.310  0.00  0.00    +0.000 HD
BRANCH  13  15
ATOM     15  C   UNL     1       5.772   3.619  15.630  0.00  0.00    +0.000 C 
BRANCH  15  16
ATOM     16  C   UNL     1       5.838   4.188  14.215  0.00  0.00    +0.000 C 
BRANCH  16  17
ATOM     17  C   UNL     1       7.102   4.990  13.978  0.00  0.00    +0.000 C 
ATOM     18  N   UNL     1       7.753   5.541  14.950  0.00  0.00    +0.000 NA
ATOM     19  N   UNL     1       7.574   5.162  12.718  0.00  0.00    +0.000 N 
ATOM     20  H   UNL     1       7.292   5.372  15.850  0.00  0.00    +0.000 HD
ATOM     21  H   UNL     1       7.342   4.500  11.990  0.00  0.00    +0.000 HD
ATOM     22  H   UNL     1       8.515   5.542  12.677  0.00  0.00    +0.000 HD
ENDBRANCH  16  17
ENDBRANCH  15  16
ENDBRANCH  13  15
ENDBRANCH  10  11
ENDBRANCH   1   8
BRANCH   2  23
ATOM     23  C   UNL     1       0.644  10.341  19.115  0.00  0.00    +0.000 A 
ATOM     24  C   UNL     1      -0.556  10.334  19.814  0.00  0.00    +0.000 A 
ATOM     25  C   UNL     1      -0.905  11.657  20.162  0.00  0.00    +0.000 A 
ATOM     26  C   UNL     1       0.103  12.465  19.693  0.00  0.00    +0.000 A 
ATOM     27  N   UNL     1       1.026  11.673  19.052  0.00  0.00    +0.000 N 
ATOM     28  C   UNL     1       2.207  12.188  18.384  0.00  0.00    +0.000 C 
BRANCH  25  29
ATOM     29  N   UNL     1      -2.015  12.124  20.843  0.00  0.00    +0.000 N 
ATOM     30  C   UNL     1      -3.232  12.430  20.249  0.00  0.00    +0.000 C 
ATOM     31  O   UNL     1      -3.450  12.325  19.043  0.00  0.00    +0.000 OA
ATOM     32  H   UNL     1      -1.909  12.248  21.839  0.00  0.00    +0.000 HD
BRANCH  30  33
ATOM     33  C   UNL     1      -4.264  12.891  21.175  0.00  0.00    +0.000 A 
ATOM     34  C   UNL     1      -4.162  13.711  22.296  0.00  0.00    +0.000 A 
ATOM     35  C   UNL     1      -5.442  13.845  22.858  0.00  0.00    +0.000 A 
ATOM     36  C   UNL     1      -6.324  13.140  22.091  0.00  0.00    +0.000 A 
ATOM     37  N   UNL     1      -5.610  12.559  21.074  0.00  0.00    +0.000 N 
ATOM     38  C   UNL     1      -6.205  11.699  20.070  0.00  0.00    +0.000 C 
BRANCH  35  39
ATOM     39  N   UNL     1      -5.760  14.539  23.954  0.00  0.00    +0.000 N 
ATOM     40  H   UNL     1      -5.951  15.535  23.928  0.00  0.00    +0.000 HD
ATOM     41  H   UNL     1      -5.575  14.180  24.886  0.00  0.00    +0.000 HD
ENDBRANCH  35  39
ENDBRANCH  30  33
ENDBRANCH  25  29
ENDBRANCH   2  23
TORSDOF 9
ENDMDL
