MODEL 1
REMARK VINA RESULT:      -6.3      0.000      0.000
REMARK  Name = 
REMARK  6 active torsions:
REMARK  status: ('A' for Active; 'I' for Inactive)
REMARK    1  A    between atoms: C_1  and  C_2
REMARK    2  A    between atoms: C_2  and  N_3
REMARK    3  A    between atoms: N_3  and  C_4
REMARK    4  A    between atoms: N_3  and  C_11
REMARK    5  A    between atoms: C_4  and  C_5
REMARK    6  A    between atoms: C_11  and  C_12
REMARK                            x       y       z     vdW  Elec       q    Type
REMARK                         _______ _______ _______ _____ _____    ______ ____
ROOT
ATOM      1  N   UNL     1       5.268   4.836  18.276  0.00  0.00    +0.000 NA
ENDROOT
BRANCH   1   3
ATOM      2  C   UNL     1       7.583   5.705  18.870  0.00  0.00    +0.000 C 
ATOM      3  C   UNL     1       6.173   5.343  19.330  0.00  0.00    +0.000 C 
ENDBRANCH   1   3
BRANCH   1   4
ATOM      4  C   UNL     1       4.090   4.149  18.850  0.00  0.00    +0.000 C 
BRANCH   4   5
ATOM      5  C   UNL     1       2.720   4.863  18.684  0.00  0.00    +0.000 C 
ATOM      6  C   UNL     1       2.172   5.313  20.053  0.00  0.00    +0.000 C 
ATOM      7  C   UNL     1       1.612   4.155  20.879  0.00  0.00    +0.000 C 
ATOM      8  N   UNL     1       0.590   3.410  20.146  0.00  0.00    +0.000 NA
ATOM      9  C   UNL     1       1.122   2.881  18.883  0.00  0.00    +0.000 C 
ATOM     10  C   UNL     1       1.659   3.997  17.984  0.00  0.00    +0.000 C 
ATOM     11  H   UNL     1      -0.189   4.034  19.934  0.00  0.00    +0.000 HD
ENDBRANCH   4   5
ENDBRANCH   1   4
BRANCH   1  12
ATOM     12  C   UNL     1       4.862   5.944  17.368  0.00  0.00    +0.000 C 
BRANCH  12  13
ATOM     13  C   UNL     1       5.207   5.801  15.858  0.00  0.00    +0.000 C 
ATOM     14  C   UNL     1       4.936   4.384  15.354  0.00  0.00    +0.000 C 
ATOM     15  C   UNL     1       6.195   3.983  14.626  0.00  0.00    +0.000 C 
ATOM     16  C   UNL     1       7.254   4.879  15.222  0.00  0.00    +0.000 C 
ATOM     17  O   UNL     1       6.596   6.081  15.617  0.00  0.00    +0.000 OA
ENDBRANCH  12  13
ENDBRANCH   1  12
TORSDOF 5
ENDMDL
MODEL 2
REMARK VINA RESULT:      -6.2      1.405      2.581
REMARK  Name = 
REMARK  6 active torsions:
REMARK  status: ('A' for Active; 'I' for Inactive)
REMARK    1  A    between atoms: C_1  and  C_2
REMARK    2  A    between atoms: C_2  and  N_3
REMARK    3  A    between atoms: N_3  and  C_4
REMARK    4  A    between atoms: N_3  and  C_11
REMARK    5  A    between atoms: C_4  and  C_5
REMARK    6  A    between atoms: C_11  and  C_12
REMARK                            x       y       z     vdW  Elec       q    Type
REMARK                         _______ _______ _______ _____ _____    ______ ____
ROOT
ATOM      1  N   UNL     1       4.793   5.169  18.185  0.00  0.00    +0.000 NA
ENDROOT
BRANCH   1   3
ATOM      2  C   UNL     1       3.800   7.435  17.592  0.00  0.00    +0.000 C 
ATOM      3  C   UNL     1       4.040   5.978  17.202  0.00  0.00    +0.000 C 
ENDBRANCH   1   3
BRANCH   1   4
ATOM      4  C   UNL     1       3.909   4.239  18.920  0.00  0.00    +0.000 C 
BRANCH   4   5
ATOM      5  C   UNL     1       2.432   4.682  19.103  0.00  0.00    +0.000 C 
ATOM      6  C   UNL     1       2.139   5.004  20.582  0.00  0.00    +0.000 C 
ATOM      7  C   UNL     1       2.003   3.751  21.447  0.00  0.00    +0.000 C 
ATOM      8  N   UNL     1       0.993   2.835  20.921  0.00  0.00    +0.000 NA
ATOM      9  C   UNL     1       1.308   2.432  19.544  0.00  0.00    +0.000 C 
ATOM     10  C   UNL     1       1.413   3.640  18.611  0.00  0.00    +0.000 C 
ATOM     11  H   UNL     1       0.087   3.304  20.923  0.00  0.00    +0.000 HD
ENDBRANCH   4   5
ENDBRANCH   1   4
BRANCH   1  12
ATOM     12  C   UNL     1       5.906   4.446  17.512  0.00  0.00    +0.000 C 
BRANCH  12  13
ATOM     13  C   UNL     1       7.315   5.103  17.540  0.00  0.00    +0.000 C 
ATOM     14  C   UNL     1       7.618   5.719  18.906  0.00  0.00    +0.000 C 
ATOM     15  C   UNL     1       8.100   7.116  18.603  0.00  0.00    +0.000 C 
ATOM     16  C   UNL     1       7.522   7.408  17.240  0.00  0.00    +0.000 C 
ATOM     17  O   UNL     1       7.413   6.156  16.566  0.00  0.00    +0.000 OA
ENDBRANCH  12  13
ENDBRANCH   1  12
TORSDOF 5
ENDMDL
MODEL 3
REMARK VINA RESULT:      -6.1      1.856      2.712
REMARK  Name = 
REMARK  6 active torsions:
REMARK  status: ('A' for Active; 'I' for Inactive)
REMARK    1  A    between atoms: C_1  and  C_2
REMARK    2  A    between atoms: C_2  and  N_3
REMARK    3  A    between atoms: N_3  and  C_4
REMARK    4  A    between atoms: N_3  and  C_11
REMARK    5  A    between atoms: C_4  and  C_5
REMARK    6  A    between atoms: C_11  and  C_12
REMARK                            x       y       z     vdW  Elec       q    Type
REMARK                         _______ _______ _______ _____ _____    ______ ____
ROOT
ATOM      1  N   UNL     1       3.732   6.432  18.601  0.00  0.00    +0.000 NA
ENDROOT
BRANCH   1   3
ATOM      2  C   UNL     1       2.323   8.415  17.858  0.00  0.00    +0.000 C 
ATOM      3  C   UNL     1       2.578   7.312  18.884  0.00  0.00    +0.000 C 
ENDBRANCH   1   3
BRANCH   1   4
ATOM      4  C   UNL     1       3.424   5.015  18.892  0.00  0.00    +0.000 C 
BRANCH   4   5
ATOM      5  C   UNL     1       2.944   4.148  17.695  0.00  0.00    +0.000 C 
ATOM      6  C   UNL     1       1.434   3.859  17.803  0.00  0.00    +0.000 C 
ATOM      7  C   UNL     1       1.104   2.807  18.862  0.00  0.00    +0.000 C 
ATOM      8  N   UNL     1       1.841   1.564  18.640  0.00  0.00    +0.000 NA
ATOM      9  C   UNL     1       3.290   1.800  18.637  0.00  0.00    +0.000 C 
ATOM     10  C   UNL     1       3.697   2.813  17.565  0.00  0.00    +0.000 C 
ATOM     11  H   UNL     1       1.573   1.177  17.734  0.00  0.00    +0.000 HD
ENDBRANCH   4   5
ENDBRANCH   1   4
BRANCH   1  12
ATOM     12  C   UNL     1       4.186   6.612  17.195  0.00  0.00    +0.000 C 
BRANCH  12  13
ATOM     13  C   UNL     1       5.711   6.510  16.910  0.00  0.00    +0.000 C 
ATOM     14  C   UNL     1       6.018   5.412  15.890  0.00  0.00    +0.000 C 
ATOM     15  C   UNL     1       7.122   4.597  16.517  0.00  0.00    +0.000 C 
ATOM     16  C   UNL     1       6.983   4.881  17.994  0.00  0.00    +0.000 C 
ATOM     17  O   UNL     1       6.440   6.194  18.108  0.00  0.00    +0.000 OA
ENDBRANCH  12  13
ENDBRANCH   1  12
TORSDOF 5
ENDMDL
MODEL 4
REMARK VINA RESULT:      -6.0      1.511      3.053
REMARK  Name = 
REMARK  6 active torsions:
REMARK  status: ('A' for Active; 'I' for Inactive)
REMARK    1  A    between atoms: C_1  and  C_2
REMARK    2  A    between atoms: C_2  and  N_3
REMARK    3  A    between atoms: N_3  and  C_4
REMARK    4  A    between atoms: N_3  and  C_11
REMARK    5  A    between atoms: C_4  and  C_5
REMARK    6  A    between atoms: C_11  and  C_12
REMARK                            x       y       z     vdW  Elec       q    Type
REMARK                         _______ _______ _______ _____ _____    ______ ____
ROOT
ATOM      1  N   UNL     1       4.382   5.731  17.592  0.00  0.00    +0.000 NA
ENDROOT
BRANCH   1   3
ATOM      2  C   UNL     1       2.587   7.446  18.146  0.00  0.00    +0.000 C 
ATOM      3  C   UNL     1       3.904   7.122  17.443  0.00  0.00    +0.000 C 
ENDBRANCH   1   3
BRANCH   1   4
ATOM      4  C   UNL     1       3.262   4.765  17.599  0.00  0.00    +0.000 C 
BRANCH   4   5
ATOM      5  C   UNL     1       3.608   3.303  17.991  0.00  0.00    +0.000 C 
ATOM      6  C   UNL     1       2.415   2.367  17.711  0.00  0.00    +0.000 C 
ATOM      7  C   UNL     1       1.292   2.512  18.738  0.00  0.00    +0.000 C 
ATOM      8  N   UNL     1       1.777   2.317  20.103  0.00  0.00    +0.000 NA
ATOM      9  C   UNL     1       2.846   3.270  20.428  0.00  0.00    +0.000 C 
ATOM     10  C   UNL     1       4.027   3.146  19.463  0.00  0.00    +0.000 C 
ATOM     11  H   UNL     1       2.148   1.370  20.192  0.00  0.00    +0.000 HD
ENDBRANCH   4   5
ENDBRANCH   1   4
BRANCH   1  12
ATOM     12  C   UNL     1       5.371   5.410  16.527  0.00  0.00    +0.000 C 
BRANCH  12  13
ATOM     13  C   UNL     1       6.880   5.497  16.893  0.00  0.00    +0.000 C 
ATOM     14  C   UNL     1       7.100   5.348  18.399  0.00  0.00    +0.000 C 
ATOM     15  C   UNL     1       7.994   6.503  18.777  0.00  0.00    +0.000 C 
ATOM     16  C   UNL     1       7.765   7.510  17.676  0.00  0.00    +0.000 C 
ATOM     17  O   UNL     1       7.433   6.767  16.506  0.00  0.00    +0.000 OA
ENDBRANCH  12  13
ENDBRANCH   1  12
TORSDOF 5
ENDMDL
MODEL 5
REMARK VINA RESULT:      -6.0      1.492      3.010
REMARK  Name = 
REMARK  6 active torsions:
REMARK  status: ('A' for Active; 'I' for Inactive)
REMARK    1  A    between atoms: C_1  and  C_2
REMARK    2  A    between atoms: C_2  and  N_3
REMARK    3  A    between atoms: N_3  and  C_4
REMARK    4  A    between atoms: N_3  and  C_11
REMARK    5  A    between atoms: C_4  and  C_5
REMARK    6  A    between atoms: C_11  and  C_12
REMARK                            x       y       z     vdW  Elec       q    Type
REMARK                         _______ _______ _______ _____ _____    ______ ____
ROOT
ATOM      1  N   UNL     1       4.847   4.702  16.281  0.00  0.00    +0.000 NA
ENDROOT
BRANCH   1   3
ATOM      2  C   UNL     1       5.945   4.032  14.087  0.00  0.00    +0.000 C 
ATOM      3  C   UNL     1       5.880   3.888  15.606  0.00  0.00    +0.000 C 
ENDBRANCH   1   3
BRANCH   1   4
ATOM      4  C   UNL     1       4.213   3.967  17.398  0.00  0.00    +0.000 C 
BRANCH   4   5
ATOM      5  C   UNL     1       2.760   3.471  17.167  0.00  0.00    +0.000 C 
ATOM      6  C   UNL     1       1.744   4.467  17.761  0.00  0.00    +0.000 C 
ATOM      7  C   UNL     1       1.662   4.394  19.285  0.00  0.00    +0.000 C 
ATOM      8  N   UNL     1       1.370   3.039  19.749  0.00  0.00    +0.000 NA
ATOM      9  C   UNL     1       2.386   2.087  19.280  0.00  0.00    +0.000 C 
ATOM     10  C   UNL     1       2.488   2.075  17.753  0.00  0.00    +0.000 C 
ATOM     11  H   UNL     1       0.462   2.751  19.383  0.00  0.00    +0.000 HD
ENDBRANCH   4   5
ENDBRANCH   1   4
BRANCH   1  12
ATOM     12  C   UNL     1       5.428   5.994  16.740  0.00  0.00    +0.000 C 
BRANCH  12  13
ATOM     13  C   UNL     1       6.961   6.044  16.998  0.00  0.00    +0.000 C 
ATOM     14  C   UNL     1       7.290   5.781  18.468  0.00  0.00    +0.000 C 
ATOM     15  C   UNL     1       8.224   6.898  18.863  0.00  0.00    +0.000 C 
ATOM     16  C   UNL     1       7.925   7.986  17.860  0.00  0.00    +0.000 C 
ATOM     17  O   UNL     1       7.499   7.335  16.666  0.00  0.00    +0.000 OA
ENDBRANCH  12  13
ENDBRANCH   1  12
TORSDOF 5
ENDMDL
MODEL 6
REMARK VINA RESULT:      -6.0      1.052      1.700
REMARK  Name = 
REMARK  6 active torsions:
REMARK  status: ('A' for Active; 'I' for Inactive)
REMARK    1  A    between atoms: C_1  and  C_2
REMARK    2  A    between atoms: C_2  and  N_3
REMARK    3  A    between atoms: N_3  and  C_4
REMARK    4  A    between atoms: N_3  and  C_11
REMARK    5  A    between atoms: C_4  and  C_5
REMARK    6  A    between atoms: C_11  and  C_12
REMARK                            x       y       z     vdW  Elec       q    Type
REMARK                         _______ _______ _______ _____ _____    ______ ____
ROOT
ATOM      1  N   UNL     1       5.092   4.952  18.506  0.00  0.00    +0.000 NA
ENDROOT
BRANCH   1   3
ATOM      2  C   UNL     1       7.432   5.919  18.753  0.00  0.00    +0.000 C 
ATOM      3  C   UNL     1       6.246   5.203  19.396  0.00  0.00    +0.000 C 
ENDBRANCH   1   3
BRANCH   1   4
ATOM      4  C   UNL     1       3.838   4.781  19.271  0.00  0.00    +0.000 C 
BRANCH   4   5
ATOM      5  C   UNL     1       3.598   3.384  19.907  0.00  0.00    +0.000 C 
ATOM      6  C   UNL     1       3.792   2.269  18.861  0.00  0.00    +0.000 C 
ATOM      7  C   UNL     1       2.624   2.163  17.881  0.00  0.00    +0.000 C 
ATOM      8  N   UNL     1       1.348   1.990  18.573  0.00  0.00    +0.000 NA
ATOM      9  C   UNL     1       1.093   3.099  19.502  0.00  0.00    +0.000 C 
ATOM     10  C   UNL     1       2.206   3.231  20.544  0.00  0.00    +0.000 C 
ATOM     11  H   UNL     1       1.375   1.119  19.106  0.00  0.00    +0.000 HD
ENDBRANCH   4   5
ENDBRANCH   1   4
BRANCH   1  12
ATOM     12  C   UNL     1       4.971   6.042  17.499  0.00  0.00    +0.000 C 
BRANCH  12  13
ATOM     13  C   UNL     1       5.052   5.649  15.996  0.00  0.00    +0.000 C 
ATOM     14  C   UNL     1       5.003   4.132  15.811  0.00  0.00    +0.000 C 
ATOM     15  C   UNL     1       6.162   3.815  14.899  0.00  0.00    +0.000 C 
ATOM     16  C   UNL     1       7.095   4.987  15.083  0.00  0.00    +0.000 C 
ATOM     17  O   UNL     1       6.280   6.111  15.407  0.00  0.00    +0.000 OA
ENDBRANCH  12  13
ENDBRANCH   1  12
TORSDOF 5
ENDMDL
MODEL 7
REMARK VINA RESULT:      -6.0      2.361      5.883
REMARK  Name = 
REMARK  6 active torsions:
REMARK  status: ('A' for Active; 'I' for Inactive)
REMARK    1  A    between atoms: C_1  and  C_2
REMARK    2  A    between atoms: C_2  and  N_3
REMARK    3  A    between atoms: N_3  and  C_4
REMARK    4  A    between atoms: N_3  and  C_11
REMARK    5  A    between atoms: C_4  and  C_5
REMARK    6  A    between atoms: C_11  and  C_12
REMARK                            x       y       z     vdW  Elec       q    Type
REMARK                         _______ _______ _______ _____ _____    ______ ____
ROOT
ATOM      1  N   UNL     1       2.978   5.919  17.883  0.00  0.00    +0.000 NA
ENDROOT
BRANCH   1   3
ATOM      2  C   UNL     1       2.179   8.179  18.734  0.00  0.00    +0.000 C 
ATOM      3  C   UNL     1       3.141   7.389  17.850  0.00  0.00    +0.000 C 
ENDBRANCH   1   3
BRANCH   1   4
ATOM      4  C   UNL     1       4.165   5.225  17.338  0.00  0.00    +0.000 C 
BRANCH   4   5
ATOM      5  C   UNL     1       5.247   6.118  16.671  0.00  0.00    +0.000 C 
ATOM      6  C   UNL     1       5.591   5.595  15.262  0.00  0.00    +0.000 C 
ATOM      7  C   UNL     1       6.462   4.340  15.290  0.00  0.00    +0.000 C 
ATOM      8  N   UNL     1       7.685   4.545  16.064  0.00  0.00    +0.000 NA
ATOM      9  C   UNL     1       7.379   4.943  17.444  0.00  0.00    +0.000 C 
ATOM     10  C   UNL     1       6.544   6.225  17.491  0.00  0.00    +0.000 C 
ATOM     11  H   UNL     1       8.235   5.285  15.627  0.00  0.00    +0.000 HD
ENDBRANCH   4   5
ENDBRANCH   1   4
BRANCH   1  12
ATOM     12  C   UNL     1       2.670   5.466  19.267  0.00  0.00    +0.000 C 
BRANCH  12  13
ATOM     13  C   UNL     1       2.108   4.027  19.446  0.00  0.00    +0.000 C 
ATOM     14  C   UNL     1       0.941   4.001  20.434  0.00  0.00    +0.000 C 
ATOM     15  C   UNL     1       1.271   2.888  21.396  0.00  0.00    +0.000 C 
ATOM     16  C   UNL     1       2.770   2.748  21.281  0.00  0.00    +0.000 C 
ATOM     17  O   UNL     1       3.116   3.138  19.955  0.00  0.00    +0.000 OA
ENDBRANCH  12  13
ENDBRANCH   1  12
TORSDOF 5
ENDMDL
MODEL 8
REMARK VINA RESULT:      -6.0      1.672      2.865
REMARK  Name = 
REMARK  6 active torsions:
REMARK  status: ('A' for Active; 'I' for Inactive)
REMARK    1  A    between atoms: C_1  and  C_2
REMARK    2  A    between atoms: C_2  and  N_3
REMARK    3  A    between atoms: N_3  and  C_4
REMARK    4  A    between atoms: N_3  and  C_11
REMARK    5  A    between atoms: C_4  and  C_5
REMARK    6  A    between atoms: C_11  and  C_12
REMARK                            x       y       z     vdW  Elec       q    Type
REMARK                         _______ _______ _______ _____ _____    ______ ____
ROOT
ATOM      1  N   UNL     1       4.779   5.658  18.180  0.00  0.00    +0.000 NA
ENDROOT
BRANCH   1   3
ATOM      2  C   UNL     1       3.326   7.719  17.845  0.00  0.00    +0.000 C 
ATOM      3  C   UNL     1       4.039   6.517  17.230  0.00  0.00    +0.000 C 
ENDBRANCH   1   3
BRANCH   1   4
ATOM      4  C   UNL     1       3.870   4.766  18.934  0.00  0.00    +0.000 C 
BRANCH   4   5
ATOM      5  C   UNL     1       2.524   4.406  18.248  0.00  0.00    +0.000 C 
ATOM      6  C   UNL     1       1.450   4.066  19.300  0.00  0.00    +0.000 C 
ATOM      7  C   UNL     1       1.647   2.685  19.926  0.00  0.00    +0.000 C 
ATOM      8  N   UNL     1       1.710   1.634  18.912  0.00  0.00    +0.000 NA
ATOM      9  C   UNL     1       2.797   1.884  17.956  0.00  0.00    +0.000 C 
ATOM     10  C   UNL     1       2.635   3.235  17.256  0.00  0.00    +0.000 C 
ATOM     11  H   UNL     1       0.827   1.612  18.402  0.00  0.00    +0.000 HD
ENDBRANCH   4   5
ENDBRANCH   1   4
BRANCH   1  12
ATOM     12  C   UNL     1       5.829   4.884  17.464  0.00  0.00    +0.000 C 
BRANCH  12  13
ATOM     13  C   UNL     1       7.282   5.441  17.494  0.00  0.00    +0.000 C 
ATOM     14  C   UNL     1       7.656   5.954  18.885  0.00  0.00    +0.000 C 
ATOM     15  C   UNL     1       8.228   7.329  18.650  0.00  0.00    +0.000 C 
ATOM     16  C   UNL     1       7.642   7.739  17.320  0.00  0.00    +0.000 C 
ATOM     17  O   UNL     1       7.432   6.540  16.579  0.00  0.00    +0.000 OA
ENDBRANCH  12  13
ENDBRANCH   1  12
TORSDOF 5
ENDMDL
MODEL 9
REMARK VINA RESULT:      -6.0      2.412      5.735
REMARK  Name = 
REMARK  6 active torsions:
REMARK  status: ('A' for Active; 'I' for Inactive)
REMARK    1  A    between atoms: C_1  and  C_2
REMARK    2  A    between atoms: C_2  and  N_3
REMARK    3  A    between atoms: N_3  and  C_4
REMARK    4  A    between atoms: N_3  and  C_11
REMARK    5  A    between atoms: C_4  and  C_5
REMARK    6  A    between atoms: C_11  and  C_12
REMARK                            x       y       z     vdW  Elec       q    Type
REMARK                         _______ _______ _______ _____ _____    ______ ____
ROOT
ATOM      1  N   UNL     1       3.543   6.072  17.717  0.00  0.00    +0.000 NA
ENDROOT
BRANCH   1   3
ATOM      2  C   UNL     1       2.368   8.327  17.680  0.00  0.00    +0.000 C 
ATOM      3  C   UNL     1       2.637   7.013  18.410  0.00  0.00    +0.000 C 
ENDBRANCH   1   3
BRANCH   1   4
ATOM      4  C   UNL     1       4.881   6.037  18.347  0.00  0.00    +0.000 C 
BRANCH   4   5
ATOM      5  C   UNL     1       6.075   6.496  17.466  0.00  0.00    +0.000 C 
ATOM      6  C   UNL     1       6.056   5.774  16.104  0.00  0.00    +0.000 C 
ATOM      7  C   UNL     1       6.519   4.320  16.196  0.00  0.00    +0.000 C 
ATOM      8  N   UNL     1       7.842   4.209  16.808  0.00  0.00    +0.000 NA
ATOM      9  C   UNL     1       7.856   4.799  18.153  0.00  0.00    +0.000 C 
ATOM     10  C   UNL     1       7.446   6.273  18.127  0.00  0.00    +0.000 C 
ATOM     11  H   UNL     1       8.519   4.705  16.228  0.00  0.00    +0.000 HD
ENDBRANCH   4   5
ENDBRANCH   1   4
BRANCH   1  12
ATOM     12  C   UNL     1       2.932   4.715  17.662  0.00  0.00    +0.000 C 
BRANCH  12  13
ATOM     13  C   UNL     1       1.647   4.468  18.502  0.00  0.00    +0.000 C 
ATOM     14  C   UNL     1       1.985   4.108  19.949  0.00  0.00    +0.000 C 
ATOM     15  C   UNL     1       1.177   2.868  20.240  0.00  0.00    +0.000 C 
ATOM     16  C   UNL     1       0.911   2.285  18.873  0.00  0.00    +0.000 C 
ATOM     17  O   UNL     1       0.878   3.381  17.961  0.00  0.00    +0.000 OA
ENDBRANCH  12  13
ENDBRANCH   1  12
TORSDOF 5
ENDMDL
