MODEL 1
REMARK VINA RESULT:      -8.6      0.000      0.000
REMARK  Name = 
REMARK  3 active torsions:
REMARK  status: ('A' for Active; 'I' for Inactive)
REMARK    1  A    between atoms: C_2  and  C_3
REMARK    2  A    between atoms: C_2  and  C_18
REMARK    3  A    between atoms: C_3  and  N_4
REMARK                            x       y       z     vdW  Elec       q    Type
REMARK                         _______ _______ _______ _____ _____    ______ ____
ROOT
ATOM      1  N   UNL     1       5.165   5.191  17.979  0.00  0.00    +0.000 N 
ATOM      2  C   UNL     1       4.417   4.211  17.331  0.00  0.00    +0.000 A 
ATOM      3  N   UNL     1       4.561   3.780  16.112  0.00  0.00    +0.000 NA
ATOM      4  C   UNL     1       5.627   4.393  15.443  0.00  0.00    +0.000 A 
ATOM      5  C   UNL     1       6.419   5.342  16.022  0.00  0.00    +0.000 A 
ATOM      6  O   UNL     1       7.373   5.772  15.155  0.00  0.00    +0.000 OA
ATOM      7  C   UNL     1       7.171   5.065  13.999  0.00  0.00    +0.000 A 
ATOM      8  C   UNL     1       7.932   5.188  12.839  0.00  0.00    +0.000 A 
ATOM      9  C   UNL     1       7.566   4.378  11.760  0.00  0.00    +0.000 A 
ATOM     10  C   UNL     1       6.489   3.492  11.851  0.00  0.00    +0.000 A 
ATOM     11  C   UNL     1       5.737   3.385  13.031  0.00  0.00    +0.000 A 
ATOM     12  C   UNL     1       6.089   4.190  14.129  0.00  0.00    +0.000 A 
ATOM     13  C   UNL     1       6.245   5.821  17.354  0.00  0.00    +0.000 A 
ATOM     14  O   UNL     1       6.924   6.692  17.893  0.00  0.00    +0.000 OA
ENDROOT
BRANCH   1  15
ATOM     15  C   UNL     1       4.860   5.549  19.358  0.00  0.00    +0.000 C 
BRANCH  15  17
ATOM     16  O   UNL     1       2.878   6.934  19.305  0.00  0.00    +0.000 OA
ATOM     17  C   UNL     1       3.369   5.828  19.524  0.00  0.00    +0.000 C 
BRANCH  17  18
ATOM     18  C   UNL     1       2.490   4.728  20.033  0.00  0.00    +0.000 A 
ATOM     19  C   UNL     1       2.719   4.239  21.327  0.00  0.00    +0.000 A 
ATOM     20  C   UNL     1       1.983   3.157  21.818  0.00  0.00    +0.000 A 
ATOM     21  C   UNL     1       1.006   2.562  21.023  0.00  0.00    +0.000 A 
ATOM     22  C   UNL     1       0.750   3.060  19.746  0.00  0.00    +0.000 A 
ATOM     23  C   UNL     1       1.486   4.141  19.249  0.00  0.00    +0.000 A 
ENDBRANCH  17  18
ENDBRANCH  15  17
ENDBRANCH   1  15
TORSDOF 3
ENDMDL
MODEL 2
REMARK VINA RESULT:      -8.5      1.694      2.688
REMARK  Name = 
REMARK  3 active torsions:
REMARK  status: ('A' for Active; 'I' for Inactive)
REMARK    1  A    between atoms: C_2  and  C_3
REMARK    2  A    between atoms: C_2  and  C_18
REMARK    3  A    between atoms: C_3  and  N_4
REMARK                            x       y       z     vdW  Elec       q    Type
REMARK                         _______ _______ _______ _____ _____    ______ ____
ROOT
ATOM      1  N   UNL     1       4.910   5.031  18.171  0.00  0.00    +0.000 N 
ATOM      2  C   UNL     1       4.178   4.075  17.471  0.00  0.00    +0.000 A 
ATOM      3  N   UNL     1       4.353   3.685  16.242  0.00  0.00    +0.000 NA
ATOM      4  C   UNL     1       5.436   4.318  15.622  0.00  0.00    +0.000 A 
ATOM      5  C   UNL     1       6.215   5.246  16.253  0.00  0.00    +0.000 A 
ATOM      6  O   UNL     1       7.191   5.704  15.427  0.00  0.00    +0.000 OA
ATOM      7  C   UNL     1       7.019   5.036  14.243  0.00  0.00    +0.000 A 
ATOM      8  C   UNL     1       7.810   5.198  13.108  0.00  0.00    +0.000 A 
ATOM      9  C   UNL     1       7.471   4.426  11.992  0.00  0.00    +0.000 A 
ATOM     10  C   UNL     1       6.391   3.539  12.025  0.00  0.00    +0.000 A 
ATOM     11  C   UNL     1       5.608   3.393  13.181  0.00  0.00    +0.000 A 
ATOM     12  C   UNL     1       5.932   4.160  14.315  0.00  0.00    +0.000 A 
ATOM     13  C   UNL     1       6.007   5.679  17.597  0.00  0.00    +0.000 A 
ATOM     14  O   UNL     1       6.671   6.531  18.183  0.00  0.00    +0.000 OA
ENDROOT
BRANCH   1  15
ATOM     15  C   UNL     1       4.570   5.342  19.553  0.00  0.00    +0.000 C 
BRANCH  15  17
ATOM     16  O   UNL     1       2.288   4.685  20.014  0.00  0.00    +0.000 OA
ATOM     17  C   UNL     1       3.069   5.581  19.697  0.00  0.00    +0.000 C 
BRANCH  17  18
ATOM     18  C   UNL     1       2.530   6.940  19.376  0.00  0.00    +0.000 A 
ATOM     19  C   UNL     1       1.805   7.618  20.367  0.00  0.00    +0.000 A 
ATOM     20  C   UNL     1       1.209   8.851  20.092  0.00  0.00    +0.000 A 
ATOM     21  C   UNL     1       1.341   9.421  18.828  0.00  0.00    +0.000 A 
ATOM     22  C   UNL     1       2.084   8.769  17.845  0.00  0.00    +0.000 A 
ATOM     23  C   UNL     1       2.680   7.532  18.115  0.00  0.00    +0.000 A 
ENDBRANCH  17  18
ENDBRANCH  15  17
ENDBRANCH   1  15
TORSDOF 3
ENDMDL
MODEL 3
REMARK VINA RESULT:      -8.5      0.082      1.009
REMARK  Name = 
REMARK  3 active torsions:
REMARK  status: ('A' for Active; 'I' for Inactive)
REMARK    1  A    between atoms: C_2  and  C_3
REMARK    2  A    between atoms: C_2  and  C_18
REMARK    3  A    between atoms: C_3  and  N_4
REMARK                            x       y       z     vdW  Elec       q    Type
REMARK                         _______ _______ _______ _____ _____    ______ ____
ROOT
ATOM      1  N   UNL     1       5.222   5.184  17.956  0.00  0.00    +0.000 N 
ATOM      2  C   UNL     1       4.460   4.211  17.314  0.00  0.00    +0.000 A 
ATOM      3  N   UNL     1       4.588   3.781  16.093  0.00  0.00    +0.000 NA
ATOM      4  C   UNL     1       5.652   4.386  15.415  0.00  0.00    +0.000 A 
ATOM      5  C   UNL     1       6.459   5.328  15.987  0.00  0.00    +0.000 A 
ATOM      6  O   UNL     1       7.407   5.751  15.112  0.00  0.00    +0.000 OA
ATOM      7  C   UNL     1       7.188   5.047  13.957  0.00  0.00    +0.000 A 
ATOM      8  C   UNL     1       7.939   5.166  12.789  0.00  0.00    +0.000 A 
ATOM      9  C   UNL     1       7.555   4.361  11.712  0.00  0.00    +0.000 A 
ATOM     10  C   UNL     1       6.472   3.484  11.813  0.00  0.00    +0.000 A 
ATOM     11  C   UNL     1       5.730   3.381  13.000  0.00  0.00    +0.000 A 
ATOM     12  C   UNL     1       6.100   4.181  14.096  0.00  0.00    +0.000 A 
ATOM     13  C   UNL     1       6.302   5.806  17.322  0.00  0.00    +0.000 A 
ATOM     14  O   UNL     1       6.992   6.671  17.855  0.00  0.00    +0.000 OA
ENDROOT
BRANCH   1  15
ATOM     15  C   UNL     1       4.934   5.542  19.339  0.00  0.00    +0.000 C 
BRANCH  15  17
ATOM     16  O   UNL     1       2.904   6.857  19.325  0.00  0.00    +0.000 OA
ATOM     17  C   UNL     1       3.437   5.769  19.535  0.00  0.00    +0.000 C 
BRANCH  17  18
ATOM     18  C   UNL     1       2.608   4.639  20.062  0.00  0.00    +0.000 A 
ATOM     19  C   UNL     1       1.562   4.154  19.264  0.00  0.00    +0.000 A 
ATOM     20  C   UNL     1       0.706   3.160  19.744  0.00  0.00    +0.000 A 
ATOM     21  C   UNL     1       0.895   2.635  21.020  0.00  0.00    +0.000 A 
ATOM     22  C   UNL     1       1.951   3.088  21.809  0.00  0.00    +0.000 A 
ATOM     23  C   UNL     1       2.809   4.087  21.334  0.00  0.00    +0.000 A 
ENDBRANCH  17  18
ENDBRANCH  15  17
ENDBRANCH   1  15
TORSDOF 3
ENDMDL
MODEL 4
REMARK VINA RESULT:      -8.5      1.693      2.800
REMARK  Name = 
REMARK  3 active torsions:
REMARK  status: ('A' for Active; 'I' for Inactive)
REMARK    1  A    between atoms: C_2  and  C_3
REMARK    2  A    between atoms: C_2  and  C_18
REMARK    3  A    between atoms: C_3  and  N_4
REMARK                            x       y       z     vdW  Elec       q    Type
REMARK                         _______ _______ _______ _____ _____    ______ ____
ROOT
ATOM      1  N   UNL     1       4.981   5.206  18.106  0.00  0.00    +0.000 N 
ATOM      2  C   UNL     1       4.204   4.262  17.439  0.00  0.00    +0.000 A 
ATOM      3  N   UNL     1       4.350   3.834  16.219  0.00  0.00    +0.000 NA
ATOM      4  C   UNL     1       5.450   4.407  15.572  0.00  0.00    +0.000 A 
ATOM      5  C   UNL     1       6.272   5.319  16.170  0.00  0.00    +0.000 A 
ATOM      6  O   UNL     1       7.255   5.715  15.321  0.00  0.00    +0.000 OA
ATOM      7  C   UNL     1       7.044   5.025  14.157  0.00  0.00    +0.000 A 
ATOM      8  C   UNL     1       7.827   5.125  13.010  0.00  0.00    +0.000 A 
ATOM      9  C   UNL     1       7.445   4.338  11.919  0.00  0.00    +0.000 A 
ATOM     10  C   UNL     1       6.331   3.496  11.987  0.00  0.00    +0.000 A 
ATOM     11  C   UNL     1       5.557   3.412  13.154  0.00  0.00    +0.000 A 
ATOM     12  C   UNL     1       5.924   4.194  14.264  0.00  0.00    +0.000 A 
ATOM     13  C   UNL     1       6.096   5.795  17.503  0.00  0.00    +0.000 A 
ATOM     14  O   UNL     1       6.801   6.635  18.059  0.00  0.00    +0.000 OA
ENDROOT
BRANCH   1  15
ATOM     15  C   UNL     1       4.670   5.567  19.483  0.00  0.00    +0.000 C 
BRANCH  15  17
ATOM     16  O   UNL     1       2.492   4.669  20.031  0.00  0.00    +0.000 OA
ATOM     17  C   UNL     1       3.160   5.644  19.690  0.00  0.00    +0.000 C 
BRANCH  17  18
ATOM     18  C   UNL     1       2.466   6.940  19.403  0.00  0.00    +0.000 A 
ATOM     19  C   UNL     1       2.557   7.470  18.108  0.00  0.00    +0.000 A 
ATOM     20  C   UNL     1       2.000   8.716  17.810  0.00  0.00    +0.000 A 
ATOM     21  C   UNL     1       1.339   9.437  18.801  0.00  0.00    +0.000 A 
ATOM     22  C   UNL     1       1.216   8.906  20.084  0.00  0.00    +0.000 A 
ATOM     23  C   UNL     1       1.775   7.659  20.388  0.00  0.00    +0.000 A 
ENDBRANCH  17  18
ENDBRANCH  15  17
ENDBRANCH   1  15
TORSDOF 3
ENDMDL
MODEL 5
REMARK VINA RESULT:      -8.0      1.461      1.722
REMARK  Name = 
REMARK  3 active torsions:
REMARK  status: ('A' for Active; 'I' for Inactive)
REMARK    1  A    between atoms: C_2  and  C_3
REMARK    2  A    between atoms: C_2  and  C_18
REMARK    3  A    between atoms: C_3  and  N_4
REMARK                            x       y       z     vdW  Elec       q    Type
REMARK                         _______ _______ _______ _____ _____    ______ ____
ROOT
ATOM      1  N   UNL     1       5.548   4.406  18.019  0.00  0.00    +0.000 N 
ATOM      2  C   UNL     1       4.771   3.553  17.240  0.00  0.00    +0.000 A 
ATOM      3  N   UNL     1       4.854   3.353  15.957  0.00  0.00    +0.000 NA
ATOM      4  C   UNL     1       5.884   4.089  15.360  0.00  0.00    +0.000 A 
ATOM      5  C   UNL     1       6.703   4.925  16.063  0.00  0.00    +0.000 A 
ATOM      6  O   UNL     1       7.611   5.517  15.245  0.00  0.00    +0.000 OA
ATOM      7  C   UNL     1       7.353   5.030  13.990  0.00  0.00    +0.000 A 
ATOM      8  C   UNL     1       8.055   5.372  12.836  0.00  0.00    +0.000 A 
ATOM      9  C   UNL     1       7.636   4.769  11.646  0.00  0.00    +0.000 A 
ATOM     10  C   UNL     1       6.566   3.870  11.626  0.00  0.00    +0.000 A 
ATOM     11  C   UNL     1       5.874   3.541  12.802  0.00  0.00    +0.000 A 
ATOM     12  C   UNL     1       6.279   4.135  14.011  0.00  0.00    +0.000 A 
ATOM     13  C   UNL     1       6.595   5.151  17.468  0.00  0.00    +0.000 A 
ATOM     14  O   UNL     1       7.298   5.917  18.124  0.00  0.00    +0.000 OA
ENDROOT
BRANCH   1  15
ATOM     15  C   UNL     1       5.313   4.502  19.454  0.00  0.00    +0.000 C 
BRANCH  15  17
ATOM     16  O   UNL     1       5.177   2.243  20.307  0.00  0.00    +0.000 OA
ATOM     17  C   UNL     1       4.581   3.263  19.963  0.00  0.00    +0.000 C 
BRANCH  17  18
ATOM     18  C   UNL     1       3.085   3.275  19.980  0.00  0.00    +0.000 A 
ATOM     19  C   UNL     1       2.404   2.240  19.323  0.00  0.00    +0.000 A 
ATOM     20  C   UNL     1       1.010   2.250  19.237  0.00  0.00    +0.000 A 
ATOM     21  C   UNL     1       0.284   3.288  19.815  0.00  0.00    +0.000 A 
ATOM     22  C   UNL     1       0.949   4.306  20.497  0.00  0.00    +0.000 A 
ATOM     23  C   UNL     1       2.346   4.303  20.583  0.00  0.00    +0.000 A 
ENDBRANCH  17  18
ENDBRANCH  15  17
ENDBRANCH   1  15
TORSDOF 3
ENDMDL
MODEL 6
REMARK VINA RESULT:      -8.0      4.252      7.976
REMARK  Name = 
REMARK  3 active torsions:
REMARK  status: ('A' for Active; 'I' for Inactive)
REMARK    1  A    between atoms: C_2  and  C_3
REMARK    2  A    between atoms: C_2  and  C_18
REMARK    3  A    between atoms: C_3  and  N_4
REMARK                            x       y       z     vdW  Elec       q    Type
REMARK                         _______ _______ _______ _____ _____    ______ ____
ROOT
ATOM      1  N   UNL     1       2.539   7.467  18.624  0.00  0.00    +0.000 N 
ATOM      2  C   UNL     1       2.300   6.846  19.847  0.00  0.00    +0.000 A 
ATOM      3  N   UNL     1       1.631   7.316  20.858  0.00  0.00    +0.000 NA
ATOM      4  C   UNL     1       1.091   8.583  20.608  0.00  0.00    +0.000 A 
ATOM      5  C   UNL     1       1.261   9.242  19.424  0.00  0.00    +0.000 A 
ATOM      6  O   UNL     1       0.639  10.449  19.448  0.00  0.00    +0.000 OA
ATOM      7  C   UNL     1       0.059  10.545  20.685  0.00  0.00    +0.000 A 
ATOM      8  C   UNL     1      -0.690  11.629  21.139  0.00  0.00    +0.000 A 
ATOM      9  C   UNL     1      -1.198  11.539  22.439  0.00  0.00    +0.000 A 
ATOM     10  C   UNL     1      -0.962  10.414  23.233  0.00  0.00    +0.000 A 
ATOM     11  C   UNL     1      -0.205   9.334  22.753  0.00  0.00    +0.000 A 
ATOM     12  C   UNL     1       0.315   9.403  21.449  0.00  0.00    +0.000 A 
ATOM     13  C   UNL     1       2.010   8.726  18.325  0.00  0.00    +0.000 A 
ATOM     14  O   UNL     1       2.203   9.305  17.259  0.00  0.00    +0.000 OA
ENDROOT
BRANCH   1  15
ATOM     15  C   UNL     1       3.315   6.783  17.597  0.00  0.00    +0.000 C 
BRANCH  15  17
ATOM     16  O   UNL     1       5.399   6.053  18.584  0.00  0.00    +0.000 OA
ATOM     17  C   UNL     1       4.259   5.762  18.228  0.00  0.00    +0.000 C 
BRANCH  17  18
ATOM     18  C   UNL     1       3.793   4.345  18.355  0.00  0.00    +0.000 A 
ATOM     19  C   UNL     1       4.389   3.535  19.333  0.00  0.00    +0.000 A 
ATOM     20  C   UNL     1       4.051   2.184  19.437  0.00  0.00    +0.000 A 
ATOM     21  C   UNL     1       3.108   1.633  18.572  0.00  0.00    +0.000 A 
ATOM     22  C   UNL     1       2.488   2.437  17.617  0.00  0.00    +0.000 A 
ATOM     23  C   UNL     1       2.825   3.790  17.506  0.00  0.00    +0.000 A 
ENDBRANCH  17  18
ENDBRANCH  15  17
ENDBRANCH   1  15
TORSDOF 3
ENDMDL
MODEL 7
REMARK VINA RESULT:      -8.0      4.203      8.003
REMARK  Name = 
REMARK  3 active torsions:
REMARK  status: ('A' for Active; 'I' for Inactive)
REMARK    1  A    between atoms: C_2  and  C_3
REMARK    2  A    between atoms: C_2  and  C_18
REMARK    3  A    between atoms: C_3  and  N_4
REMARK                            x       y       z     vdW  Elec       q    Type
REMARK                         _______ _______ _______ _____ _____    ______ ____
ROOT
ATOM      1  N   UNL     1       2.569   7.420  18.602  0.00  0.00    +0.000 N 
ATOM      2  C   UNL     1       2.319   6.791  19.818  0.00  0.00    +0.000 A 
ATOM      3  N   UNL     1       1.652   7.260  20.832  0.00  0.00    +0.000 NA
ATOM      4  C   UNL     1       1.129   8.535  20.593  0.00  0.00    +0.000 A 
ATOM      5  C   UNL     1       1.311   9.204  19.416  0.00  0.00    +0.000 A 
ATOM      6  O   UNL     1       0.704  10.418  19.448  0.00  0.00    +0.000 OA
ATOM      7  C   UNL     1       0.120  10.509  20.685  0.00  0.00    +0.000 A 
ATOM      8  C   UNL     1      -0.616  11.598  21.147  0.00  0.00    +0.000 A 
ATOM      9  C   UNL     1      -1.130  11.501  22.444  0.00  0.00    +0.000 A 
ATOM     10  C   UNL     1      -0.910  10.366  23.228  0.00  0.00    +0.000 A 
ATOM     11  C   UNL     1      -0.165   9.282  22.741  0.00  0.00    +0.000 A 
ATOM     12  C   UNL     1       0.360   9.357  21.438  0.00  0.00    +0.000 A 
ATOM     13  C   UNL     1       2.057   8.688  18.314  0.00  0.00    +0.000 A 
ATOM     14  O   UNL     1       2.261   9.276  17.254  0.00  0.00    +0.000 OA
ENDROOT
BRANCH   1  15
ATOM     15  C   UNL     1       3.341   6.737  17.572  0.00  0.00    +0.000 C 
BRANCH  15  17
ATOM     16  O   UNL     1       5.462   6.120  18.558  0.00  0.00    +0.000 OA
ATOM     17  C   UNL     1       4.338   5.768  18.201  0.00  0.00    +0.000 C 
BRANCH  17  18
ATOM     18  C   UNL     1       3.951   4.328  18.326  0.00  0.00    +0.000 A 
ATOM     19  C   UNL     1       2.989   3.819  17.441  0.00  0.00    +0.000 A 
ATOM     20  C   UNL     1       2.531   2.506  17.569  0.00  0.00    +0.000 A 
ATOM     21  C   UNL     1       3.037   1.687  18.575  0.00  0.00    +0.000 A 
ATOM     22  C   UNL     1       4.016   2.173  19.441  0.00  0.00    +0.000 A 
ATOM     23  C   UNL     1       4.476   3.489  19.319  0.00  0.00    +0.000 A 
ENDBRANCH  17  18
ENDBRANCH  15  17
ENDBRANCH   1  15
TORSDOF 3
ENDMDL
MODEL 8
REMARK VINA RESULT:      -7.9      1.326      1.885
REMARK  Name = 
REMARK  3 active torsions:
REMARK  status: ('A' for Active; 'I' for Inactive)
REMARK    1  A    between atoms: C_2  and  C_3
REMARK    2  A    between atoms: C_2  and  C_18
REMARK    3  A    between atoms: C_3  and  N_4
REMARK                            x       y       z     vdW  Elec       q    Type
REMARK                         _______ _______ _______ _____ _____    ______ ____
ROOT
ATOM      1  N   UNL     1       5.699   5.080  17.985  0.00  0.00    +0.000 N 
ATOM      2  C   UNL     1       6.629   6.017  17.542  0.00  0.00    +0.000 A 
ATOM      3  N   UNL     1       7.154   6.114  16.355  0.00  0.00    +0.000 NA
ATOM      4  C   UNL     1       6.661   5.153  15.465  0.00  0.00    +0.000 A 
ATOM      5  C   UNL     1       5.730   4.219  15.820  0.00  0.00    +0.000 A 
ATOM      6  O   UNL     1       5.430   3.410  14.772  0.00  0.00    +0.000 OA
ATOM      7  C   UNL     1       6.195   3.856  13.727  0.00  0.00    +0.000 A 
ATOM      8  C   UNL     1       6.200   3.310  12.445  0.00  0.00    +0.000 A 
ATOM      9  C   UNL     1       7.056   3.906  11.513  0.00  0.00    +0.000 A 
ATOM     10  C   UNL     1       7.861   4.995  11.861  0.00  0.00    +0.000 A 
ATOM     11  C   UNL     1       7.838   5.527  13.159  0.00  0.00    +0.000 A 
ATOM     12  C   UNL     1       6.984   4.944  14.111  0.00  0.00    +0.000 A 
ATOM     13  C   UNL     1       5.170   4.110  17.128  0.00  0.00    +0.000 A 
ATOM     14  O   UNL     1       4.353   3.265  17.486  0.00  0.00    +0.000 OA
ENDROOT
BRANCH   1  15
ATOM     15  C   UNL     1       5.217   5.123  19.360  0.00  0.00    +0.000 C 
BRANCH  15  17
ATOM     16  O   UNL     1       3.425   6.721  19.066  0.00  0.00    +0.000 OA
ATOM     17  C   UNL     1       3.764   5.588  19.405  0.00  0.00    +0.000 C 
BRANCH  17  18
ATOM     18  C   UNL     1       2.731   4.646  19.940  0.00  0.00    +0.000 A 
ATOM     19  C   UNL     1       2.895   4.150  21.242  0.00  0.00    +0.000 A 
ATOM     20  C   UNL     1       2.006   3.204  21.758  0.00  0.00    +0.000 A 
ATOM     21  C   UNL     1       0.940   2.755  20.983  0.00  0.00    +0.000 A 
ATOM     22  C   UNL     1       0.750   3.264  19.699  0.00  0.00    +0.000 A 
ATOM     23  C   UNL     1       1.640   4.209  19.176  0.00  0.00    +0.000 A 
ENDBRANCH  17  18
ENDBRANCH  15  17
ENDBRANCH   1  15
TORSDOF 3
ENDMDL
MODEL 9
REMARK VINA RESULT:      -7.9      4.694      8.336
REMARK  Name = 
REMARK  3 active torsions:
REMARK  status: ('A' for Active; 'I' for Inactive)
REMARK    1  A    between atoms: C_2  and  C_3
REMARK    2  A    between atoms: C_2  and  C_18
REMARK    3  A    between atoms: C_3  and  N_4
REMARK                            x       y       z     vdW  Elec       q    Type
REMARK                         _______ _______ _______ _____ _____    ______ ____
ROOT
ATOM      1  N   UNL     1       2.173   7.872  19.085  0.00  0.00    +0.000 N 
ATOM      2  C   UNL     1       1.912   7.479  20.395  0.00  0.00    +0.000 A 
ATOM      3  N   UNL     1       1.218   8.117  21.292  0.00  0.00    +0.000 NA
ATOM      4  C   UNL     1       0.675   9.312  20.807  0.00  0.00    +0.000 A 
ATOM      5  C   UNL     1       0.866   9.749  19.527  0.00  0.00    +0.000 A 
ATOM      6  O   UNL     1       0.235  10.934  19.320  0.00  0.00    +0.000 OA
ATOM      7  C   UNL     1      -0.373  11.245  20.508  0.00  0.00    +0.000 A 
ATOM      8  C   UNL     1      -1.138  12.384  20.745  0.00  0.00    +0.000 A 
ATOM      9  C   UNL     1      -1.674  12.524  22.028  0.00  0.00    +0.000 A 
ATOM     10  C   UNL     1      -1.447  11.563  23.017  0.00  0.00    +0.000 A 
ATOM     11  C   UNL     1      -0.672  10.423  22.755  0.00  0.00    +0.000 A 
ATOM     12  C   UNL     1      -0.125  10.261  21.470  0.00  0.00    +0.000 A 
ATOM     13  C   UNL     1       1.642   9.051  18.554  0.00  0.00    +0.000 A 
ATOM     14  O   UNL     1       1.854   9.431  17.405  0.00  0.00    +0.000 OA
ENDROOT
BRANCH   1  15
ATOM     15  C   UNL     1       2.977   7.024  18.214  0.00  0.00    +0.000 C 
BRANCH  15  17
ATOM     16  O   UNL     1       4.475   5.744  19.617  0.00  0.00    +0.000 OA
ATOM     17  C   UNL     1       3.436   5.773  18.958  0.00  0.00    +0.000 C 
BRANCH  17  18
ATOM     18  C   UNL     1       2.622   4.524  18.824  0.00  0.00    +0.000 A 
ATOM     19  C   UNL     1       1.637   4.266  19.788  0.00  0.00    +0.000 A 
ATOM     20  C   UNL     1       0.908   3.075  19.756  0.00  0.00    +0.000 A 
ATOM     21  C   UNL     1       1.150   2.136  18.756  0.00  0.00    +0.000 A 
ATOM     22  C   UNL     1       2.107   2.397  17.776  0.00  0.00    +0.000 A 
ATOM     23  C   UNL     1       2.842   3.587  17.804  0.00  0.00    +0.000 A 
ENDBRANCH  17  18
ENDBRANCH  15  17
ENDBRANCH   1  15
TORSDOF 3
ENDMDL
