MODEL 1
REMARK VINA RESULT:      -8.1      0.000      0.000
REMARK  Name = 
REMARK  7 active torsions:
REMARK  status: ('A' for Active; 'I' for Inactive)
REMARK    1  A    between atoms: C_1  and  C_2
REMARK    2  A    between atoms: C_2  and  O_3
REMARK    3  A    between atoms: O_3  and  C_4
REMARK    4  A    between atoms: C_6  and  N_7
REMARK    5  A    between atoms: C_9  and  C_10
REMARK    6  A    between atoms: C_9  and  C_11
REMARK    7  A    between atoms: C_12  and  C_13
REMARK                            x       y       z     vdW  Elec       q    Type
REMARK                         _______ _______ _______ _____ _____    ______ ____
ROOT
ATOM      1  N   UNL     1       4.260   4.531  18.671  0.00  0.00    +0.000 N 
ATOM      2  C   UNL     1       3.787   3.462  19.496  0.00  0.00    +0.000 C 
ATOM      3  C   UNL     1       2.423   3.560  18.792  0.00  0.00    +0.000 C 
ATOM      4  C   UNL     1       1.232   3.663  19.735  0.00  0.00    +0.000 C 
ATOM      5  C   UNL     1       2.221   2.427  17.775  0.00  0.00    +0.000 C 
ATOM      6  C   UNL     1       2.959   4.870  18.143  0.00  0.00    +0.000 C 
ENDROOT
BRANCH   1   9
ATOM      7  C   UNL     1       6.638   4.717  15.913  0.00  0.00    +0.000 A 
ATOM      8  C   UNL     1       5.425   4.675  16.555  0.00  0.00    +0.000 A 
ATOM      9  C   UNL     1       5.458   4.578  17.932  0.00  0.00    +0.000 A 
ATOM     10  N   UNL     1       6.627   4.514  18.598  0.00  0.00    +0.000 NA
ATOM     11  C   UNL     1       7.749   4.561  17.871  0.00  0.00    +0.000 A 
ATOM     12  N   UNL     1       7.821   4.665  16.543  0.00  0.00    +0.000 NA
BRANCH   7  13
ATOM     13  O   UNL     1       6.602   4.871  14.540  0.00  0.00    +0.000 OA
BRANCH  13  15
ATOM     14  C   UNL     1       6.316   3.561  12.562  0.00  0.00    +0.000 C 
ATOM     15  C   UNL     1       5.726   3.935  13.908  0.00  0.00    +0.000 C 
ENDBRANCH  13  15
ENDBRANCH   7  13
ENDBRANCH   1   9
BRANCH   6  16
ATOM     16  C   UNL     1       2.467   6.300  18.653  0.00  0.00    +0.000 A 
ATOM     17  C   UNL     1       2.144   6.591  19.993  0.00  0.00    +0.000 A 
ATOM     18  C   UNL     1       1.738   7.865  20.360  0.00  0.00    +0.000 A 
ATOM     19  N   UNL     1       1.620   8.893  19.499  0.00  0.00    +0.000 NA
ATOM     20  C   UNL     1       1.933   8.628  18.215  0.00  0.00    +0.000 A 
ATOM     21  C   UNL     1       2.347   7.382  17.763  0.00  0.00    +0.000 A 
ENDBRANCH   6  16
TORSDOF 4
ENDMDL
MODEL 2
REMARK VINA RESULT:      -7.9      0.157      1.028
REMARK  Name = 
REMARK  7 active torsions:
REMARK  status: ('A' for Active; 'I' for Inactive)
REMARK    1  A    between atoms: C_1  and  C_2
REMARK    2  A    between atoms: C_2  and  O_3
REMARK    3  A    between atoms: O_3  and  C_4
REMARK    4  A    between atoms: C_6  and  N_7
REMARK    5  A    between atoms: C_9  and  C_10
REMARK    6  A    between atoms: C_9  and  C_11
REMARK    7  A    between atoms: C_12  and  C_13
REMARK                            x       y       z     vdW  Elec       q    Type
REMARK                         _______ _______ _______ _____ _____    ______ ____
ROOT
ATOM      1  N   UNL     1       4.256   4.527  18.688  0.00  0.00    +0.000 N 
ATOM      2  C   UNL     1       3.726   3.464  19.486  0.00  0.00    +0.000 C 
ATOM      3  C   UNL     1       2.397   3.591  18.722  0.00  0.00    +0.000 C 
ATOM      4  C   UNL     1       1.167   3.714  19.612  0.00  0.00    +0.000 C 
ATOM      5  C   UNL     1       2.219   2.467  17.692  0.00  0.00    +0.000 C 
ATOM      6  C   UNL     1       2.987   4.893  18.105  0.00  0.00    +0.000 C 
ENDROOT
BRANCH   1   9
ATOM      7  C   UNL     1       6.758   4.571  16.037  0.00  0.00    +0.000 A 
ATOM      8  C   UNL     1       5.518   4.541  16.624  0.00  0.00    +0.000 A 
ATOM      9  C   UNL     1       5.487   4.553  18.004  0.00  0.00    +0.000 A 
ATOM     10  N   UNL     1       6.624   4.578  18.726  0.00  0.00    +0.000 NA
ATOM     11  C   UNL     1       7.777   4.603  18.050  0.00  0.00    +0.000 A 
ATOM     12  N   UNL     1       7.911   4.605  16.722  0.00  0.00    +0.000 NA
BRANCH   7  13
ATOM     13  O   UNL     1       6.785   4.615  14.655  0.00  0.00    +0.000 OA
BRANCH  13  15
ATOM     14  C   UNL     1       6.009   3.511  12.684  0.00  0.00    +0.000 C 
ATOM     15  C   UNL     1       5.633   4.006  14.067  0.00  0.00    +0.000 C 
ENDBRANCH  13  15
ENDBRANCH   7  13
ENDBRANCH   1   9
BRANCH   6  16
ATOM     16  C   UNL     1       2.501   6.330  18.599  0.00  0.00    +0.000 A 
ATOM     17  C   UNL     1       2.334   7.441  17.750  0.00  0.00    +0.000 A 
ATOM     18  C   UNL     1       1.892   8.655  18.255  0.00  0.00    +0.000 A 
ATOM     19  N   UNL     1       1.599   8.868  19.551  0.00  0.00    +0.000 NA
ATOM     20  C   UNL     1       1.750   7.810  20.372  0.00  0.00    +0.000 A 
ATOM     21  C   UNL     1       2.187   6.561  19.950  0.00  0.00    +0.000 A 
ENDBRANCH   6  16
TORSDOF 4
ENDMDL
MODEL 3
REMARK VINA RESULT:      -7.8      2.651      4.383
REMARK  Name = 
REMARK  7 active torsions:
REMARK  status: ('A' for Active; 'I' for Inactive)
REMARK    1  A    between atoms: C_1  and  C_2
REMARK    2  A    between atoms: C_2  and  O_3
REMARK    3  A    between atoms: O_3  and  C_4
REMARK    4  A    between atoms: C_6  and  N_7
REMARK    5  A    between atoms: C_9  and  C_10
REMARK    6  A    between atoms: C_9  and  C_11
REMARK    7  A    between atoms: C_12  and  C_13
REMARK                            x       y       z     vdW  Elec       q    Type
REMARK                         _______ _______ _______ _____ _____    ______ ____
ROOT
ATOM      1  N   UNL     1       5.903   5.092  15.972  0.00  0.00    +0.000 N 
ATOM      2  C   UNL     1       6.417   6.126  16.818  0.00  0.00    +0.000 C 
ATOM      3  C   UNL     1       6.558   5.092  17.948  0.00  0.00    +0.000 C 
ATOM      4  C   UNL     1       5.930   5.513  19.270  0.00  0.00    +0.000 C 
ATOM      5  C   UNL     1       8.017   4.657  18.146  0.00  0.00    +0.000 C 
ATOM      6  C   UNL     1       5.755   4.122  17.031  0.00  0.00    +0.000 C 
ENDROOT
BRANCH   1   9
ATOM      7  C   UNL     1       6.009   3.678  12.613  0.00  0.00    +0.000 A 
ATOM      8  C   UNL     1       5.549   3.923  13.883  0.00  0.00    +0.000 A 
ATOM      9  C   UNL     1       6.303   4.783  14.657  0.00  0.00    +0.000 A 
ATOM     10  N   UNL     1       7.437   5.334  14.184  0.00  0.00    +0.000 NA
ATOM     11  C   UNL     1       7.792   5.024  12.932  0.00  0.00    +0.000 A 
ATOM     12  N   UNL     1       7.127   4.215  12.103  0.00  0.00    +0.000 NA
BRANCH   7  13
ATOM     13  O   UNL     1       5.223   2.861  11.821  0.00  0.00    +0.000 OA
BRANCH  13  15
ATOM     14  C   UNL     1       3.592   3.612  10.245  0.00  0.00    +0.000 C 
ATOM     15  C   UNL     1       3.881   3.337  11.709  0.00  0.00    +0.000 C 
ENDBRANCH  13  15
ENDBRANCH   7  13
ENDBRANCH   1   9
BRANCH   6  16
ATOM     16  C   UNL     1       4.220   3.797  17.325  0.00  0.00    +0.000 A 
ATOM     17  C   UNL     1       3.207   4.773  17.398  0.00  0.00    +0.000 A 
ATOM     18  C   UNL     1       1.892   4.407  17.644  0.00  0.00    +0.000 A 
ATOM     19  N   UNL     1       1.487   3.137  17.828  0.00  0.00    +0.000 NA
ATOM     20  C   UNL     1       2.447   2.194  17.755  0.00  0.00    +0.000 A 
ATOM     21  C   UNL     1       3.786   2.473  17.514  0.00  0.00    +0.000 A 
ENDBRANCH   6  16
TORSDOF 4
ENDMDL
MODEL 4
REMARK VINA RESULT:      -7.6      1.651      2.519
REMARK  Name = 
REMARK  7 active torsions:
REMARK  status: ('A' for Active; 'I' for Inactive)
REMARK    1  A    between atoms: C_1  and  C_2
REMARK    2  A    between atoms: C_2  and  O_3
REMARK    3  A    between atoms: O_3  and  C_4
REMARK    4  A    between atoms: C_6  and  N_7
REMARK    5  A    between atoms: C_9  and  C_10
REMARK    6  A    between atoms: C_9  and  C_11
REMARK    7  A    between atoms: C_12  and  C_13
REMARK                            x       y       z     vdW  Elec       q    Type
REMARK                         _______ _______ _______ _____ _____    ______ ____
ROOT
ATOM      1  N   UNL     1       4.068   4.892  18.495  0.00  0.00    +0.000 N 
ATOM      2  C   UNL     1       3.756   3.811  19.380  0.00  0.00    +0.000 C 
ATOM      3  C   UNL     1       2.301   3.862  18.885  0.00  0.00    +0.000 C 
ATOM      4  C   UNL     1       1.259   3.931  19.994  0.00  0.00    +0.000 C 
ATOM      5  C   UNL     1       1.989   2.720  17.908  0.00  0.00    +0.000 C 
ATOM      6  C   UNL     1       2.694   5.186  18.165  0.00  0.00    +0.000 C 
ENDROOT
BRANCH   1   9
ATOM      7  C   UNL     1       7.015   6.059  16.695  0.00  0.00    +0.000 A 
ATOM      8  C   UNL     1       5.993   6.060  17.611  0.00  0.00    +0.000 A 
ATOM      9  C   UNL     1       5.142   4.974  17.588  0.00  0.00    +0.000 A 
ATOM     10  N   UNL     1       5.308   3.978  16.696  0.00  0.00    +0.000 NA
ATOM     11  C   UNL     1       6.336   4.082  15.848  0.00  0.00    +0.000 A 
ATOM     12  N   UNL     1       7.218   5.082  15.798  0.00  0.00    +0.000 NA
BRANCH   7  13
ATOM     13  O   UNL     1       7.899   7.121  16.757  0.00  0.00    +0.000 OA
BRANCH  13  15
ATOM     14  C   UNL     1       8.203   9.175  17.939  0.00  0.00    +0.000 C 
ATOM     15  C   UNL     1       7.990   7.679  18.070  0.00  0.00    +0.000 C 
ENDBRANCH  13  15
ENDBRANCH   7  13
ENDBRANCH   1   9
BRANCH   6  16
ATOM     16  C   UNL     1       2.236   6.602  18.743  0.00  0.00    +0.000 A 
ATOM     17  C   UNL     1       1.979   6.852  20.105  0.00  0.00    +0.000 A 
ATOM     18  C   UNL     1       1.600   8.116  20.530  0.00  0.00    +0.000 A 
ATOM     19  N   UNL     1       1.448   9.172  19.709  0.00  0.00    +0.000 NA
ATOM     20  C   UNL     1       1.696   8.945  18.404  0.00  0.00    +0.000 A 
ATOM     21  C   UNL     1       2.080   7.712  17.893  0.00  0.00    +0.000 A 
ENDBRANCH   6  16
TORSDOF 4
ENDMDL
MODEL 5
REMARK VINA RESULT:      -7.6      2.623      4.403
REMARK  Name = 
REMARK  7 active torsions:
REMARK  status: ('A' for Active; 'I' for Inactive)
REMARK    1  A    between atoms: C_1  and  C_2
REMARK    2  A    between atoms: C_2  and  O_3
REMARK    3  A    between atoms: O_3  and  C_4
REMARK    4  A    between atoms: C_6  and  N_7
REMARK    5  A    between atoms: C_9  and  C_10
REMARK    6  A    between atoms: C_9  and  C_11
REMARK    7  A    between atoms: C_12  and  C_13
REMARK                            x       y       z     vdW  Elec       q    Type
REMARK                         _______ _______ _______ _____ _____    ______ ____
ROOT
ATOM      1  N   UNL     1       5.997   5.100  15.988  0.00  0.00    +0.000 N 
ATOM      2  C   UNL     1       6.518   6.126  16.839  0.00  0.00    +0.000 C 
ATOM      3  C   UNL     1       6.629   5.092  17.972  0.00  0.00    +0.000 C 
ATOM      4  C   UNL     1       5.994   5.525  19.286  0.00  0.00    +0.000 C 
ATOM      5  C   UNL     1       8.078   4.632  18.187  0.00  0.00    +0.000 C 
ATOM      6  C   UNL     1       5.820   4.135  17.048  0.00  0.00    +0.000 C 
ENDROOT
BRANCH   1   9
ATOM      7  C   UNL     1       6.241   3.526  12.709  0.00  0.00    +0.000 A 
ATOM      8  C   UNL     1       5.782   3.768  13.980  0.00  0.00    +0.000 A 
ATOM      9  C   UNL     1       6.406   4.782  14.679  0.00  0.00    +0.000 A 
ATOM     10  N   UNL     1       7.421   5.481  14.136  0.00  0.00    +0.000 NA
ATOM     11  C   UNL     1       7.788   5.158  12.891  0.00  0.00    +0.000 A 
ATOM     12  N   UNL     1       7.243   4.205  12.131  0.00  0.00    +0.000 NA
BRANCH   7  13
ATOM     13  O   UNL     1       5.579   2.547  11.992  0.00  0.00    +0.000 OA
BRANCH  13  15
ATOM     14  C   UNL     1       6.097   0.345  11.223  0.00  0.00    +0.000 C 
ATOM     15  C   UNL     1       6.453   1.817  11.129  0.00  0.00    +0.000 C 
ENDBRANCH  13  15
ENDBRANCH   7  13
ENDBRANCH   1   9
BRANCH   6  16
ATOM     16  C   UNL     1       4.277   3.836  17.325  0.00  0.00    +0.000 A 
ATOM     17  C   UNL     1       3.282   4.830  17.400  0.00  0.00    +0.000 A 
ATOM     18  C   UNL     1       1.958   4.488  17.630  0.00  0.00    +0.000 A 
ATOM     19  N   UNL     1       1.527   3.224  17.796  0.00  0.00    +0.000 NA
ATOM     20  C   UNL     1       2.469   2.263  17.720  0.00  0.00    +0.000 A 
ATOM     21  C   UNL     1       3.816   2.518  17.494  0.00  0.00    +0.000 A 
ENDBRANCH   6  16
TORSDOF 4
ENDMDL
MODEL 6
REMARK VINA RESULT:      -7.5      2.476      6.557
REMARK  Name = 
REMARK  7 active torsions:
REMARK  status: ('A' for Active; 'I' for Inactive)
REMARK    1  A    between atoms: C_1  and  C_2
REMARK    2  A    between atoms: C_2  and  O_3
REMARK    3  A    between atoms: O_3  and  C_4
REMARK    4  A    between atoms: C_6  and  N_7
REMARK    5  A    between atoms: C_9  and  C_10
REMARK    6  A    between atoms: C_9  and  C_11
REMARK    7  A    between atoms: C_12  and  C_13
REMARK                            x       y       z     vdW  Elec       q    Type
REMARK                         _______ _______ _______ _____ _____    ______ ____
ROOT
ATOM      1  N   UNL     1       2.691   5.525  18.116  0.00  0.00    +0.000 N 
ATOM      2  C   UNL     1       1.863   4.399  17.810  0.00  0.00    +0.000 C 
ATOM      3  C   UNL     1       2.826   3.508  18.612  0.00  0.00    +0.000 C 
ATOM      4  C   UNL     1       3.303   2.266  17.870  0.00  0.00    +0.000 C 
ATOM      5  C   UNL     1       2.254   3.140  19.988  0.00  0.00    +0.000 C 
ATOM      6  C   UNL     1       3.775   4.742  18.660  0.00  0.00    +0.000 C 
ENDROOT
BRANCH   1   9
ATOM      7  C   UNL     1       1.603   8.188  20.356  0.00  0.00    +0.000 A 
ATOM      8  C   UNL     1       1.990   6.934  19.954  0.00  0.00    +0.000 A 
ATOM      9  C   UNL     1       2.284   6.778  18.614  0.00  0.00    +0.000 A 
ATOM     10  N   UNL     1       2.178   7.808  17.753  0.00  0.00    +0.000 NA
ATOM     11  C   UNL     1       1.790   8.986  18.253  0.00  0.00    +0.000 A 
ATOM     12  N   UNL     1       1.495   9.240  19.530  0.00  0.00    +0.000 NA
BRANCH   7  13
ATOM     13  O   UNL     1       1.363   8.356  21.707  0.00  0.00    +0.000 OA
BRANCH  13  15
ATOM     14  C   UNL     1      -0.133   9.531  23.152  0.00  0.00    +0.000 C 
ATOM     15  C   UNL     1       0.864   9.659  22.016  0.00  0.00    +0.000 C 
ENDBRANCH  13  15
ENDBRANCH   7  13
ENDBRANCH   1   9
BRANCH   6  16
ATOM     16  C   UNL     1       5.077   4.813  17.739  0.00  0.00    +0.000 A 
ATOM     17  C   UNL     1       5.055   5.123  16.365  0.00  0.00    +0.000 A 
ATOM     18  C   UNL     1       6.233   5.180  15.636  0.00  0.00    +0.000 A 
ATOM     19  N   UNL     1       7.452   4.950  16.158  0.00  0.00    +0.000 NA
ATOM     20  C   UNL     1       7.485   4.658  17.473  0.00  0.00    +0.000 A 
ATOM     21  C   UNL     1       6.355   4.580  18.277  0.00  0.00    +0.000 A 
ENDBRANCH   6  16
TORSDOF 4
ENDMDL
MODEL 7
REMARK VINA RESULT:      -7.4      2.483      6.492
REMARK  Name = 
REMARK  7 active torsions:
REMARK  status: ('A' for Active; 'I' for Inactive)
REMARK    1  A    between atoms: C_1  and  C_2
REMARK    2  A    between atoms: C_2  and  O_3
REMARK    3  A    between atoms: O_3  and  C_4
REMARK    4  A    between atoms: C_6  and  N_7
REMARK    5  A    between atoms: C_9  and  C_10
REMARK    6  A    between atoms: C_9  and  C_11
REMARK    7  A    between atoms: C_12  and  C_13
REMARK                            x       y       z     vdW  Elec       q    Type
REMARK                         _______ _______ _______ _____ _____    ______ ____
ROOT
ATOM      1  N   UNL     1       2.747   5.548  18.104  0.00  0.00    +0.000 N 
ATOM      2  C   UNL     1       1.928   4.409  17.820  0.00  0.00    +0.000 C 
ATOM      3  C   UNL     1       2.902   3.541  18.636  0.00  0.00    +0.000 C 
ATOM      4  C   UNL     1       3.387   2.290  17.916  0.00  0.00    +0.000 C 
ATOM      5  C   UNL     1       2.335   3.193  20.020  0.00  0.00    +0.000 C 
ATOM      6  C   UNL     1       3.840   4.784  18.659  0.00  0.00    +0.000 C 
ENDROOT
BRANCH   1   9
ATOM      7  C   UNL     1       1.592   8.230  20.286  0.00  0.00    +0.000 A 
ATOM      8  C   UNL     1       1.985   6.971  19.905  0.00  0.00    +0.000 A 
ATOM      9  C   UNL     1       2.330   6.806  18.579  0.00  0.00    +0.000 A 
ATOM     10  N   UNL     1       2.266   7.833  17.709  0.00  0.00    +0.000 NA
ATOM     11  C   UNL     1       1.867   9.016  18.189  0.00  0.00    +0.000 A 
ATOM     12  N   UNL     1       1.525   9.278  19.452  0.00  0.00    +0.000 NA
BRANCH   7  13
ATOM     13  O   UNL     1       1.301   8.405  21.626  0.00  0.00    +0.000 OA
BRANCH  13  15
ATOM     14  C   UNL     1      -0.079   9.539  23.213  0.00  0.00    +0.000 C 
ATOM     15  C   UNL     1      -0.021   8.906  21.836  0.00  0.00    +0.000 C 
ENDBRANCH  13  15
ENDBRANCH   7  13
ENDBRANCH   1   9
BRANCH   6  16
ATOM     16  C   UNL     1       5.139   4.850  17.734  0.00  0.00    +0.000 A 
ATOM     17  C   UNL     1       6.444   4.578  18.187  0.00  0.00    +0.000 A 
ATOM     18  C   UNL     1       7.521   4.642  17.316  0.00  0.00    +0.000 A 
ATOM     19  N   UNL     1       7.415   4.959  16.012  0.00  0.00    +0.000 NA
ATOM     20  C   UNL     1       6.170   5.215  15.566  0.00  0.00    +0.000 A 
ATOM     21  C   UNL     1       5.037   5.174  16.369  0.00  0.00    +0.000 A 
ENDBRANCH   6  16
TORSDOF 4
ENDMDL
MODEL 8
REMARK VINA RESULT:      -7.4      1.753      2.756
REMARK  Name = 
REMARK  7 active torsions:
REMARK  status: ('A' for Active; 'I' for Inactive)
REMARK    1  A    between atoms: C_1  and  C_2
REMARK    2  A    between atoms: C_2  and  O_3
REMARK    3  A    between atoms: O_3  and  C_4
REMARK    4  A    between atoms: C_6  and  N_7
REMARK    5  A    between atoms: C_9  and  C_10
REMARK    6  A    between atoms: C_9  and  C_11
REMARK    7  A    between atoms: C_12  and  C_13
REMARK                            x       y       z     vdW  Elec       q    Type
REMARK                         _______ _______ _______ _____ _____    ______ ____
ROOT
ATOM      1  N   UNL     1       4.089   5.062  18.585  0.00  0.00    +0.000 N 
ATOM      2  C   UNL     1       3.734   4.014  19.494  0.00  0.00    +0.000 C 
ATOM      3  C   UNL     1       2.299   4.059  18.940  0.00  0.00    +0.000 C 
ATOM      4  C   UNL     1       1.215   4.173  20.003  0.00  0.00    +0.000 C 
ATOM      5  C   UNL     1       2.016   2.886  17.991  0.00  0.00    +0.000 C 
ATOM      6  C   UNL     1       2.731   5.354  18.191  0.00  0.00    +0.000 C 
ENDROOT
BRANCH   1   9
ATOM      7  C   UNL     1       7.084   6.171  16.827  0.00  0.00    +0.000 A 
ATOM      8  C   UNL     1       6.024   6.211  17.699  0.00  0.00    +0.000 A 
ATOM      9  C   UNL     1       5.198   5.105  17.719  0.00  0.00    +0.000 A 
ATOM     10  N   UNL     1       5.423   4.053  16.909  0.00  0.00    +0.000 NA
ATOM     11  C   UNL     1       6.484   4.121  16.098  0.00  0.00    +0.000 A 
ATOM     12  N   UNL     1       7.346   5.137  16.013  0.00  0.00    +0.000 NA
BRANCH   7  13
ATOM     13  O   UNL     1       7.941   7.255  16.849  0.00  0.00    +0.000 OA
BRANCH  13  15
ATOM     14  C   UNL     1       8.515   9.078  18.282  0.00  0.00    +0.000 C 
ATOM     15  C   UNL     1       7.390   8.372  17.549  0.00  0.00    +0.000 C 
ENDBRANCH  13  15
ENDBRANCH   7  13
ENDBRANCH   1   9
BRANCH   6  16
ATOM     16  C   UNL     1       2.263   6.792  18.702  0.00  0.00    +0.000 A 
ATOM     17  C   UNL     1       2.068   7.903  17.859  0.00  0.00    +0.000 A 
ATOM     18  C   UNL     1       1.644   9.117  18.378  0.00  0.00    +0.000 A 
ATOM     19  N   UNL     1       1.395   9.330  19.684  0.00  0.00    +0.000 NA
ATOM     20  C   UNL     1       1.573   8.272  20.499  0.00  0.00    +0.000 A 
ATOM     21  C   UNL     1       1.995   7.023  20.063  0.00  0.00    +0.000 A 
ENDBRANCH   6  16
TORSDOF 4
ENDMDL
MODEL 9
REMARK VINA RESULT:      -7.3      2.592      4.281
REMARK  Name = 
REMARK  7 active torsions:
REMARK  status: ('A' for Active; 'I' for Inactive)
REMARK    1  A    between atoms: C_1  and  C_2
REMARK    2  A    between atoms: C_2  and  O_3
REMARK    3  A    between atoms: O_3  and  C_4
REMARK    4  A    between atoms: C_6  and  N_7
REMARK    5  A    between atoms: C_9  and  C_10
REMARK    6  A    between atoms: C_9  and  C_11
REMARK    7  A    between atoms: C_12  and  C_13
REMARK                            x       y       z     vdW  Elec       q    Type
REMARK                         _______ _______ _______ _____ _____    ______ ____
ROOT
ATOM      1  N   UNL     1       5.900   5.101  16.068  0.00  0.00    +0.000 N 
ATOM      2  C   UNL     1       6.391   6.142  16.919  0.00  0.00    +0.000 C 
ATOM      3  C   UNL     1       6.529   5.111  18.052  0.00  0.00    +0.000 C 
ATOM      4  C   UNL     1       5.880   5.527  19.366  0.00  0.00    +0.000 C 
ATOM      5  C   UNL     1       7.991   4.694  18.270  0.00  0.00    +0.000 C 
ATOM      6  C   UNL     1       5.750   4.131  17.127  0.00  0.00    +0.000 C 
ENDROOT
BRANCH   1   9
ATOM      7  C   UNL     1       6.102   3.636  12.735  0.00  0.00    +0.000 A 
ATOM      8  C   UNL     1       5.626   3.874  14.001  0.00  0.00    +0.000 A 
ATOM      9  C   UNL     1       6.321   4.795  14.759  0.00  0.00    +0.000 A 
ATOM     10  N   UNL     1       7.417   5.411  14.275  0.00  0.00    +0.000 NA
ATOM     11  C   UNL     1       7.793   5.101  13.030  0.00  0.00    +0.000 A 
ATOM     12  N   UNL     1       7.183   4.236  12.216  0.00  0.00    +0.000 NA
BRANCH   7  13
ATOM     13  O   UNL     1       5.372   2.756  11.958  0.00  0.00    +0.000 OA
BRANCH  13  15
ATOM     14  C   UNL     1       3.256   3.056  10.890  0.00  0.00    +0.000 C 
ATOM     15  C   UNL     1       4.732   3.402  10.856  0.00  0.00    +0.000 C 
ENDBRANCH  13  15
ENDBRANCH   7  13
ENDBRANCH   1   9
BRANCH   6  16
ATOM     16  C   UNL     1       4.215   3.788  17.401  0.00  0.00    +0.000 A 
ATOM     17  C   UNL     1       3.727   2.487  17.629  0.00  0.00    +0.000 A 
ATOM     18  C   UNL     1       2.379   2.272  17.876  0.00  0.00    +0.000 A 
ATOM     19  N   UNL     1       1.457   3.252  17.915  0.00  0.00    +0.000 NA
ATOM     20  C   UNL     1       1.914   4.502  17.704  0.00  0.00    +0.000 A 
ATOM     21  C   UNL     1       3.246   4.805  17.449  0.00  0.00    +0.000 A 
ENDBRANCH   6  16
TORSDOF 4
ENDMDL
