MODEL 1
REMARK VINA RESULT:      -7.3      0.000      0.000
REMARK  Name = 
REMARK  7 active torsions:
REMARK  status: ('A' for Active; 'I' for Inactive)
REMARK    1  A    between atoms: C_1  and  C_2
REMARK    2  A    between atoms: C_2  and  N_3
REMARK    3  A    between atoms: C_7  and  C_9
REMARK    4  A    between atoms: C_9  and  C_10
REMARK    5  A    between atoms: C_11  and  C_12
REMARK    6  A    between atoms: C_16  and  C_17
REMARK    7  A    between atoms: C_24  and  C_25
REMARK                            x       y       z     vdW  Elec       q    Type
REMARK                         _______ _______ _______ _____ _____    ______ ____
ROOT
ATOM      1  C   UNL     1       2.525   6.383  18.968  0.00  0.00    +0.000 A 
ATOM      2  C   UNL     1       2.006   5.753  20.256  0.00  0.00    +0.000 A 
ATOM      3  C   UNL     1       2.123   4.253  20.465  0.00  0.00    +0.000 C 
ATOM      4  N   UNL     1       1.412   6.395  21.218  0.00  0.00    +0.000 NA
ATOM      5  C   UNL     1       1.215   7.731  21.046  0.00  0.00    +0.000 A 
ATOM      6  N   UNL     1       0.661   8.606  21.856  0.00  0.00    +0.000 NA
ATOM      7  C   UNL     1       0.649   9.762  21.125  0.00  0.00    +0.000 A 
ATOM      8  N   UNL     1       1.188   9.661  19.907  0.00  0.00    +0.000 NA
ATOM      9  N   UNL     1       1.601   8.377  19.872  0.00  0.00    +0.000 N 
ATOM     10  C   UNL     1       2.277   7.710  18.844  0.00  0.00    +0.000 A 
ATOM     11  C   UNL     1       2.686   8.542  17.657  0.00  0.00    +0.000 C 
ENDROOT
BRANCH   7  12
ATOM     12  C   UNL     1       0.079  11.058  21.610  0.00  0.00    +0.000 A 
ATOM     13  C   UNL     1      -0.817  11.151  22.657  0.00  0.00    +0.000 A 
ATOM     14  C   UNL     1      -1.223  12.494  22.903  0.00  0.00    +0.000 A 
ATOM     15  C   UNL     1      -0.629  13.374  22.027  0.00  0.00    +0.000 A 
ATOM     16  S   UNL     1       0.444  12.586  20.948  0.00  0.00    +0.000 S 
ENDBRANCH   7  12
BRANCH   1  17
ATOM     17  C   UNL     1       3.203   5.526  17.932  0.00  0.00    +0.000 C 
BRANCH  17  22
ATOM     18  N   UNL     1       6.953   4.291  14.894  0.00  0.00    +0.000 NA
ATOM     19  C   UNL     1       7.444   4.461  16.291  0.00  0.00    +0.000 C 
ATOM     20  C   UNL     1       6.928   5.741  16.990  0.00  0.00    +0.000 C 
ATOM     21  N   UNL     1       5.464   5.813  16.919  0.00  0.00    +0.000 N 
ATOM     22  C   UNL     1       4.731   5.484  18.057  0.00  0.00    +0.000 C 
ATOM     23  O   UNL     1       5.274   5.203  19.125  0.00  0.00    +0.000 OA
ATOM     24  C   UNL     1       4.954   5.710  15.546  0.00  0.00    +0.000 C 
ATOM     25  C   UNL     1       5.476   4.409  14.894  0.00  0.00    +0.000 C 
BRANCH  18  27
ATOM     26  C   UNL     1       7.478   4.921  12.511  0.00  0.00    +0.000 C 
ATOM     27  C   UNL     1       7.625   5.246  13.994  0.00  0.00    +0.000 C 
ENDBRANCH  18  27
ENDBRANCH  17  22
ENDBRANCH   1  17
TORSDOF 4
ENDMDL
MODEL 2
REMARK VINA RESULT:      -6.9      3.905     10.373
REMARK  Name = 
REMARK  7 active torsions:
REMARK  status: ('A' for Active; 'I' for Inactive)
REMARK    1  A    between atoms: C_1  and  C_2
REMARK    2  A    between atoms: C_2  and  N_3
REMARK    3  A    between atoms: C_7  and  C_9
REMARK    4  A    between atoms: C_9  and  C_10
REMARK    5  A    between atoms: C_11  and  C_12
REMARK    6  A    between atoms: C_16  and  C_17
REMARK    7  A    between atoms: C_24  and  C_25
REMARK                            x       y       z     vdW  Elec       q    Type
REMARK                         _______ _______ _______ _____ _____    ______ ____
ROOT
ATOM      1  C   UNL     1      -0.212  11.016  20.760  0.00  0.00    +0.000 A 
ATOM      2  C   UNL     1      -0.341  10.095  21.968  0.00  0.00    +0.000 A 
ATOM      3  C   UNL     1      -1.068  10.577  23.212  0.00  0.00    +0.000 C 
ATOM      4  N   UNL     1       0.165   8.901  22.059  0.00  0.00    +0.000 NA
ATOM      5  C   UNL     1       0.890   8.452  20.999  0.00  0.00    +0.000 A 
ATOM      6  N   UNL     1       1.491   7.295  20.827  0.00  0.00    +0.000 NA
ATOM      7  C   UNL     1       2.138   7.439  19.630  0.00  0.00    +0.000 A 
ATOM      8  N   UNL     1       1.953   8.620  19.033  0.00  0.00    +0.000 NA
ATOM      9  N   UNL     1       1.113   9.251  19.879  0.00  0.00    +0.000 N 
ATOM     10  C   UNL     1       0.543  10.523  19.747  0.00  0.00    +0.000 A 
ATOM     11  C   UNL     1       0.818  11.255  18.460  0.00  0.00    +0.000 C 
ENDROOT
BRANCH   7  12
ATOM     12  C   UNL     1       3.000   6.386  19.007  0.00  0.00    +0.000 A 
ATOM     13  C   UNL     1       3.659   6.556  17.805  0.00  0.00    +0.000 A 
ATOM     14  C   UNL     1       4.392   5.396  17.422  0.00  0.00    +0.000 A 
ATOM     15  C   UNL     1       4.255   4.381  18.342  0.00  0.00    +0.000 A 
ATOM     16  S   UNL     1       3.287   4.845  19.677  0.00  0.00    +0.000 S 
ENDBRANCH   7  12
BRANCH   1  17
ATOM     17  C   UNL     1      -0.854  12.378  20.780  0.00  0.00    +0.000 C 
BRANCH  17  22
ATOM     18  N   UNL     1      -5.438  12.715  22.698  0.00  0.00    +0.000 NA
ATOM     19  C   UNL     1      -5.500  12.367  21.250  0.00  0.00    +0.000 C 
ATOM     20  C   UNL     1      -4.582  13.231  20.353  0.00  0.00    +0.000 C 
ATOM     21  N   UNL     1      -3.203  13.211  20.857  0.00  0.00    +0.000 N 
ATOM     22  C   UNL     1      -2.272  12.410  20.198  0.00  0.00    +0.000 C 
ATOM     23  O   UNL     1      -2.557  11.779  19.181  0.00  0.00    +0.000 OA
ATOM     24  C   UNL     1      -3.104  13.609  22.266  0.00  0.00    +0.000 C 
ATOM     25  C   UNL     1      -4.020  12.708  23.126  0.00  0.00    +0.000 C 
BRANCH  18  27
ATOM     26  C   UNL     1      -7.270  13.904  23.955  0.00  0.00    +0.000 C 
ATOM     27  C   UNL     1      -6.128  13.994  22.948  0.00  0.00    +0.000 C 
ENDBRANCH  18  27
ENDBRANCH  17  22
ENDBRANCH   1  17
TORSDOF 4
ENDMDL
MODEL 3
REMARK VINA RESULT:      -6.9      3.695     10.038
REMARK  Name = 
REMARK  7 active torsions:
REMARK  status: ('A' for Active; 'I' for Inactive)
REMARK    1  A    between atoms: C_1  and  C_2
REMARK    2  A    between atoms: C_2  and  N_3
REMARK    3  A    between atoms: C_7  and  C_9
REMARK    4  A    between atoms: C_9  and  C_10
REMARK    5  A    between atoms: C_11  and  C_12
REMARK    6  A    between atoms: C_16  and  C_17
REMARK    7  A    between atoms: C_24  and  C_25
REMARK                            x       y       z     vdW  Elec       q    Type
REMARK                         _______ _______ _______ _____ _____    ______ ____
ROOT
ATOM      1  C   UNL     1       0.266  10.409  20.571  0.00  0.00    +0.000 A 
ATOM      2  C   UNL     1       0.065   9.487  21.769  0.00  0.00    +0.000 A 
ATOM      3  C   UNL     1      -0.653   9.999  23.006  0.00  0.00    +0.000 C 
ATOM      4  N   UNL     1       0.500   8.265  21.856  0.00  0.00    +0.000 NA
ATOM      5  C   UNL     1       1.215   7.784  20.803  0.00  0.00    +0.000 A 
ATOM      6  N   UNL     1       1.751   6.595  20.629  0.00  0.00    +0.000 NA
ATOM      7  C   UNL     1       2.423   6.712  19.444  0.00  0.00    +0.000 A 
ATOM      8  N   UNL     1       2.317   7.907  18.855  0.00  0.00    +0.000 NA
ATOM      9  N   UNL     1       1.500   8.578  19.694  0.00  0.00    +0.000 N 
ATOM     10  C   UNL     1       1.007   9.881  19.566  0.00  0.00    +0.000 A 
ATOM     11  C   UNL     1       1.343  10.607  18.290  0.00  0.00    +0.000 C 
ENDROOT
BRANCH   7  12
ATOM     12  C   UNL     1       3.233   5.617  18.824  0.00  0.00    +0.000 A 
ATOM     13  C   UNL     1       2.742   4.761  17.858  0.00  0.00    +0.000 A 
ATOM     14  C   UNL     1       3.707   3.795  17.451  0.00  0.00    +0.000 A 
ATOM     15  C   UNL     1       4.895   3.944  18.131  0.00  0.00    +0.000 A 
ATOM     16  S   UNL     1       4.855   5.269  19.216  0.00  0.00    +0.000 S 
ENDBRANCH   7  12
BRANCH   1  17
ATOM     17  C   UNL     1      -0.297  11.805  20.595  0.00  0.00    +0.000 C 
BRANCH  17  22
ATOM     18  N   UNL     1      -4.834  12.744  22.425  0.00  0.00    +0.000 NA
ATOM     19  C   UNL     1      -4.925  12.280  21.011  0.00  0.00    +0.000 C 
ATOM     20  C   UNL     1      -3.924  12.972  20.054  0.00  0.00    +0.000 C 
ATOM     21  N   UNL     1      -2.556  12.863  20.573  0.00  0.00    +0.000 N 
ATOM     22  C   UNL     1      -1.704  11.922  19.996  0.00  0.00    +0.000 C 
ATOM     23  O   UNL     1      -2.045  11.237  19.033  0.00  0.00    +0.000 OA
ATOM     24  C   UNL     1      -2.423  13.369  21.945  0.00  0.00    +0.000 C 
ATOM     25  C   UNL     1      -3.424  12.638  22.868  0.00  0.00    +0.000 C 
BRANCH  18  27
ATOM     26  C   UNL     1      -5.230  14.717  23.942  0.00  0.00    +0.000 C 
ATOM     27  C   UNL     1      -5.398  14.100  22.557  0.00  0.00    +0.000 C 
ENDBRANCH  18  27
ENDBRANCH  17  22
ENDBRANCH   1  17
TORSDOF 4
ENDMDL
MODEL 4
REMARK VINA RESULT:      -6.9      0.912      1.118
REMARK  Name = 
REMARK  7 active torsions:
REMARK  status: ('A' for Active; 'I' for Inactive)
REMARK    1  A    between atoms: C_1  and  C_2
REMARK    2  A    between atoms: C_2  and  N_3
REMARK    3  A    between atoms: C_7  and  C_9
REMARK    4  A    between atoms: C_9  and  C_10
REMARK    5  A    between atoms: C_11  and  C_12
REMARK    6  A    between atoms: C_16  and  C_17
REMARK    7  A    between atoms: C_24  and  C_25
REMARK                            x       y       z     vdW  Elec       q    Type
REMARK                         _______ _______ _______ _____ _____    ______ ____
ROOT
ATOM      1  C   UNL     1       2.463   6.459  19.234  0.00  0.00    +0.000 A 
ATOM      2  C   UNL     1       1.839   6.129  20.586  0.00  0.00    +0.000 A 
ATOM      3  C   UNL     1       1.913   4.711  21.127  0.00  0.00    +0.000 C 
ATOM      4  N   UNL     1       1.188   6.967  21.336  0.00  0.00    +0.000 NA
ATOM      5  C   UNL     1       1.029   8.232  20.860  0.00  0.00    +0.000 A 
ATOM      6  N   UNL     1       0.432   9.265  21.414  0.00  0.00    +0.000 NA
ATOM      7  C   UNL     1       0.494  10.232  20.449  0.00  0.00    +0.000 A 
ATOM      8  N   UNL     1       1.120   9.865  19.327  0.00  0.00    +0.000 NA
ATOM      9  N   UNL     1       1.511   8.604  19.607  0.00  0.00    +0.000 N 
ATOM     10  C   UNL     1       2.249   7.727  18.804  0.00  0.00    +0.000 A 
ATOM     11  C   UNL     1       2.760   8.276  17.498  0.00  0.00    +0.000 C 
ENDROOT
BRANCH   7  12
ATOM     12  C   UNL     1      -0.086  11.604  20.593  0.00  0.00    +0.000 A 
ATOM     13  C   UNL     1      -0.279  12.465  19.531  0.00  0.00    +0.000 A 
ATOM     14  C   UNL     1      -0.824  13.715  19.939  0.00  0.00    +0.000 A 
ATOM     15  C   UNL     1      -1.016  13.766  21.302  0.00  0.00    +0.000 A 
ATOM     16  S   UNL     1      -0.584  12.297  22.070  0.00  0.00    +0.000 S 
ENDBRANCH   7  12
BRANCH   1  17
ATOM     17  C   UNL     1       3.200   5.394  18.466  0.00  0.00    +0.000 C 
BRANCH  17  22
ATOM     18  N   UNL     1       6.961   4.129  15.453  0.00  0.00    +0.000 NA
ATOM     19  C   UNL     1       7.476   4.542  16.791  0.00  0.00    +0.000 C 
ATOM     20  C   UNL     1       6.850   5.849  17.332  0.00  0.00    +0.000 C 
ATOM     21  N   UNL     1       5.384   5.762  17.320  0.00  0.00    +0.000 N 
ATOM     22  C   UNL     1       4.727   5.524  18.525  0.00  0.00    +0.000 C 
ATOM     23  O   UNL     1       5.331   5.451  19.595  0.00  0.00    +0.000 OA
ATOM     24  C   UNL     1       4.844   5.417  15.999  0.00  0.00    +0.000 C 
ATOM     25  C   UNL     1       5.480   4.097  15.507  0.00  0.00    +0.000 C 
BRANCH  18  27
ATOM     26  C   UNL     1       7.114   4.604  12.984  0.00  0.00    +0.000 C 
ATOM     27  C   UNL     1       7.498   5.012  14.402  0.00  0.00    +0.000 C 
ENDBRANCH  18  27
ENDBRANCH  17  22
ENDBRANCH   1  17
TORSDOF 4
ENDMDL
MODEL 5
REMARK VINA RESULT:      -6.7      3.533      9.034
REMARK  Name = 
REMARK  7 active torsions:
REMARK  status: ('A' for Active; 'I' for Inactive)
REMARK    1  A    between atoms: C_1  and  C_2
REMARK    2  A    between atoms: C_2  and  N_3
REMARK    3  A    between atoms: C_7  and  C_9
REMARK    4  A    between atoms: C_9  and  C_10
REMARK    5  A    between atoms: C_11  and  C_12
REMARK    6  A    between atoms: C_16  and  C_17
REMARK    7  A    between atoms: C_24  and  C_25
REMARK                            x       y       z     vdW  Elec       q    Type
REMARK                         _______ _______ _______ _____ _____    ______ ____
ROOT
ATOM      1  C   UNL     1       0.608   9.670  20.008  0.00  0.00    +0.000 A 
ATOM      2  C   UNL     1       0.678   8.578  21.070  0.00  0.00    +0.000 A 
ATOM      3  C   UNL     1      -0.048   8.759  22.391  0.00  0.00    +0.000 C 
ATOM      4  N   UNL     1       1.361   7.476  20.968  0.00  0.00    +0.000 NA
ATOM      5  C   UNL     1       2.091   7.300  19.833  0.00  0.00    +0.000 A 
ATOM      6  N   UNL     1       2.848   6.286  19.474  0.00  0.00    +0.000 NA
ATOM      7  C   UNL     1       3.404   6.697  18.295  0.00  0.00    +0.000 A 
ATOM      8  N   UNL     1       3.016   7.908  17.885  0.00  0.00    +0.000 NA
ATOM      9  N   UNL     1       2.134   8.275  18.838  0.00  0.00    +0.000 N 
ATOM     10  C   UNL     1       1.375   9.448  18.913  0.00  0.00    +0.000 A 
ATOM     11  C   UNL     1       1.472  10.390  17.741  0.00  0.00    +0.000 C 
ENDROOT
BRANCH   7  12
ATOM     12  C   UNL     1       4.381   5.891  17.498  0.00  0.00    +0.000 A 
ATOM     13  C   UNL     1       4.886   6.295  16.278  0.00  0.00    +0.000 A 
ATOM     14  C   UNL     1       5.778   5.336  15.717  0.00  0.00    +0.000 A 
ATOM     15  C   UNL     1       5.911   4.230  16.527  0.00  0.00    +0.000 A 
ATOM     16  S   UNL     1       5.001   4.374  17.971  0.00  0.00    +0.000 S 
ENDBRANCH   7  12
BRANCH   1  17
ATOM     17  C   UNL     1      -0.228  10.899  20.248  0.00  0.00    +0.000 C 
BRANCH  17  22
ATOM     18  N   UNL     1       0.533  15.661  19.001  0.00  0.00    +0.000 NA
ATOM     19  C   UNL     1       1.432  15.262  20.121  0.00  0.00    +0.000 C 
ATOM     20  C   UNL     1       0.721  14.489  21.257  0.00  0.00    +0.000 C 
ATOM     21  N   UNL     1      -0.013  13.339  20.716  0.00  0.00    +0.000 N 
ATOM     22  C   UNL     1       0.544  12.071  20.865  0.00  0.00    +0.000 C 
ATOM     23  O   UNL     1       1.590  11.886  21.488  0.00  0.00    +0.000 OA
ATOM     24  C   UNL     1      -0.953  13.711  19.652  0.00  0.00    +0.000 C 
ATOM     25  C   UNL     1      -0.198  14.461  18.531  0.00  0.00    +0.000 C 
BRANCH  18  27
ATOM     26  C   UNL     1      -1.021  17.505  18.267  0.00  0.00    +0.000 C 
ATOM     27  C   UNL     1      -0.348  16.767  19.420  0.00  0.00    +0.000 C 
ENDBRANCH  18  27
ENDBRANCH  17  22
ENDBRANCH   1  17
TORSDOF 4
ENDMDL
MODEL 6
REMARK VINA RESULT:      -6.7      3.563      9.094
REMARK  Name = 
REMARK  7 active torsions:
REMARK  status: ('A' for Active; 'I' for Inactive)
REMARK    1  A    between atoms: C_1  and  C_2
REMARK    2  A    between atoms: C_2  and  N_3
REMARK    3  A    between atoms: C_7  and  C_9
REMARK    4  A    between atoms: C_9  and  C_10
REMARK    5  A    between atoms: C_11  and  C_12
REMARK    6  A    between atoms: C_16  and  C_17
REMARK    7  A    between atoms: C_24  and  C_25
REMARK                            x       y       z     vdW  Elec       q    Type
REMARK                         _______ _______ _______ _____ _____    ______ ____
ROOT
ATOM      1  C   UNL     1       0.531  10.160  20.367  0.00  0.00    +0.000 A 
ATOM      2  C   UNL     1       0.638   9.134  21.490  0.00  0.00    +0.000 A 
ATOM      3  C   UNL     1       0.095   9.463  22.870  0.00  0.00    +0.000 C 
ATOM      4  N   UNL     1       1.207   7.969  21.390  0.00  0.00    +0.000 NA
ATOM      5  C   UNL     1       1.776   7.656  20.194  0.00  0.00    +0.000 A 
ATOM      6  N   UNL     1       2.395   6.556  19.825  0.00  0.00    +0.000 NA
ATOM      7  C   UNL     1       2.837   6.841  18.562  0.00  0.00    +0.000 A 
ATOM      8  N   UNL     1       2.505   8.055  18.113  0.00  0.00    +0.000 NA
ATOM      9  N   UNL     1       1.780   8.560  19.133  0.00  0.00    +0.000 N 
ATOM     10  C   UNL     1       1.138   9.801  19.209  0.00  0.00    +0.000 A 
ATOM     11  C   UNL     1       1.171  10.655  17.970  0.00  0.00    +0.000 C 
ENDROOT
BRANCH   7  12
ATOM     12  C   UNL     1       3.638   5.899  17.718  0.00  0.00    +0.000 A 
ATOM     13  C   UNL     1       3.380   4.545  17.635  0.00  0.00    +0.000 A 
ATOM     14  C   UNL     1       4.301   3.871  16.783  0.00  0.00    +0.000 A 
ATOM     15  C   UNL     1       5.235   4.736  16.256  0.00  0.00    +0.000 A 
ATOM     16  S   UNL     1       4.968   6.354  16.753  0.00  0.00    +0.000 S 
ENDBRANCH   7  12
BRANCH   1  17
ATOM     17  C   UNL     1      -0.163  11.473  20.613  0.00  0.00    +0.000 C 
BRANCH  17  22
ATOM     18  N   UNL     1       0.531  16.070  18.822  0.00  0.00    +0.000 NA
ATOM     19  C   UNL     1       1.641  15.693  19.743  0.00  0.00    +0.000 C 
ATOM     20  C   UNL     1       1.170  15.055  21.071  0.00  0.00    +0.000 C 
ATOM     21  N   UNL     1       0.275  13.921  20.809  0.00  0.00    +0.000 N 
ATOM     22  C   UNL     1       0.788  12.632  20.939  0.00  0.00    +0.000 C 
ATOM     23  O   UNL     1       1.937  12.422  21.326  0.00  0.00    +0.000 OA
ATOM     24  C   UNL     1      -0.863  14.277  19.953  0.00  0.00    +0.000 C 
ATOM     25  C   UNL     1      -0.346  14.891  18.631  0.00  0.00    +0.000 C 
BRANCH  18  27
ATOM     26  C   UNL     1      -1.227  17.818  18.377  0.00  0.00    +0.000 C 
ATOM     27  C   UNL     1      -0.174  17.260  19.329  0.00  0.00    +0.000 C 
ENDBRANCH  18  27
ENDBRANCH  17  22
ENDBRANCH   1  17
TORSDOF 4
ENDMDL
MODEL 7
REMARK VINA RESULT:      -6.7      3.620      9.959
REMARK  Name = 
REMARK  7 active torsions:
REMARK  status: ('A' for Active; 'I' for Inactive)
REMARK    1  A    between atoms: C_1  and  C_2
REMARK    2  A    between atoms: C_2  and  N_3
REMARK    3  A    between atoms: C_7  and  C_9
REMARK    4  A    between atoms: C_9  and  C_10
REMARK    5  A    between atoms: C_11  and  C_12
REMARK    6  A    between atoms: C_16  and  C_17
REMARK    7  A    between atoms: C_24  and  C_25
REMARK                            x       y       z     vdW  Elec       q    Type
REMARK                         _______ _______ _______ _____ _____    ______ ____
ROOT
ATOM      1  C   UNL     1       0.641  10.200  20.413  0.00  0.00    +0.000 A 
ATOM      2  C   UNL     1       0.539   9.085  21.449  0.00  0.00    +0.000 A 
ATOM      3  C   UNL     1      -0.120   9.356  22.790  0.00  0.00    +0.000 C 
ATOM      4  N   UNL     1       1.016   7.884  21.306  0.00  0.00    +0.000 NA
ATOM      5  C   UNL     1       1.683   7.613  20.151  0.00  0.00    +0.000 A 
ATOM      6  N   UNL     1       2.244   6.492  19.753  0.00  0.00    +0.000 NA
ATOM      7  C   UNL     1       2.842   6.831  18.570  0.00  0.00    +0.000 A 
ATOM      8  N   UNL     1       2.664   8.101  18.196  0.00  0.00    +0.000 NA
ATOM      9  N   UNL     1       1.878   8.591  19.178  0.00  0.00    +0.000 N 
ATOM     10  C   UNL     1       1.337   9.877  19.296  0.00  0.00    +0.000 A 
ATOM     11  C   UNL     1       1.575  10.816  18.144  0.00  0.00    +0.000 C 
ENDROOT
BRANCH   7  12
ATOM     12  C   UNL     1       3.648   5.887  17.734  0.00  0.00    +0.000 A 
ATOM     13  C   UNL     1       4.600   6.300  16.823  0.00  0.00    +0.000 A 
ATOM     14  C   UNL     1       5.206   5.207  16.140  0.00  0.00    +0.000 A 
ATOM     15  C   UNL     1       4.684   4.000  16.549  0.00  0.00    +0.000 A 
ATOM     16  S   UNL     1       3.506   4.189  17.779  0.00  0.00    +0.000 S 
ENDBRANCH   7  12
BRANCH   1  17
ATOM     17  C   UNL     1       0.037  11.549  20.699  0.00  0.00    +0.000 C 
BRANCH  17  22
ATOM     18  N   UNL     1      -4.454  12.643  22.558  0.00  0.00    +0.000 NA
ATOM     19  C   UNL     1      -4.565  12.223  21.132  0.00  0.00    +0.000 C 
ATOM     20  C   UNL     1      -3.533  12.895  20.194  0.00  0.00    +0.000 C 
ATOM     21  N   UNL     1      -2.171  12.709  20.709  0.00  0.00    +0.000 N 
ATOM     22  C   UNL     1      -1.363  11.747  20.106  0.00  0.00    +0.000 C 
ATOM     23  O   UNL     1      -1.734  11.105  19.124  0.00  0.00    +0.000 OA
ATOM     24  C   UNL     1      -2.016  13.171  22.094  0.00  0.00    +0.000 C 
ATOM     25  C   UNL     1      -3.050  12.460  22.997  0.00  0.00    +0.000 C 
BRANCH  18  27
ATOM     26  C   UNL     1      -6.415  14.208  22.327  0.00  0.00    +0.000 C 
ATOM     27  C   UNL     1      -4.955  14.019  22.728  0.00  0.00    +0.000 C 
ENDBRANCH  18  27
ENDBRANCH  17  22
ENDBRANCH   1  17
TORSDOF 4
ENDMDL
MODEL 8
REMARK VINA RESULT:      -6.7      3.549      9.900
REMARK  Name = 
REMARK  7 active torsions:
REMARK  status: ('A' for Active; 'I' for Inactive)
REMARK    1  A    between atoms: C_1  and  C_2
REMARK    2  A    between atoms: C_2  and  N_3
REMARK    3  A    between atoms: C_7  and  C_9
REMARK    4  A    between atoms: C_9  and  C_10
REMARK    5  A    between atoms: C_11  and  C_12
REMARK    6  A    between atoms: C_16  and  C_17
REMARK    7  A    between atoms: C_24  and  C_25
REMARK                            x       y       z     vdW  Elec       q    Type
REMARK                         _______ _______ _______ _____ _____    ______ ____
ROOT
ATOM      1  C   UNL     1       0.833  10.147  20.359  0.00  0.00    +0.000 A 
ATOM      2  C   UNL     1       0.626   9.255  21.578  0.00  0.00    +0.000 A 
ATOM      3  C   UNL     1       0.059   9.844  22.859  0.00  0.00    +0.000 C 
ATOM      4  N   UNL     1       0.937   7.994  21.646  0.00  0.00    +0.000 NA
ATOM      5  C   UNL     1       1.518   7.437  20.549  0.00  0.00    +0.000 A 
ATOM      6  N   UNL     1       1.913   6.199  20.350  0.00  0.00    +0.000 NA
ATOM      7  C   UNL     1       2.505   6.241  19.117  0.00  0.00    +0.000 A 
ATOM      8  N   UNL     1       2.480   7.438  18.525  0.00  0.00    +0.000 NA
ATOM      9  N   UNL     1       1.802   8.194  19.414  0.00  0.00    +0.000 N 
ATOM     10  C   UNL     1       1.438   9.541  19.308  0.00  0.00    +0.000 A 
ATOM     11  C   UNL     1       1.753  10.224  18.003  0.00  0.00    +0.000 C 
ENDROOT
BRANCH   7  12
ATOM     12  C   UNL     1       3.148   5.065  18.452  0.00  0.00    +0.000 A 
ATOM     13  C   UNL     1       3.954   5.169  17.335  0.00  0.00    +0.000 A 
ATOM     14  C   UNL     1       4.421   3.902  16.885  0.00  0.00    +0.000 A 
ATOM     15  C   UNL     1       3.944   2.875  17.670  0.00  0.00    +0.000 A 
ATOM     16  S   UNL     1       2.978   3.448  18.964  0.00  0.00    +0.000 S 
ENDBRANCH   7  12
BRANCH   1  17
ATOM     17  C   UNL     1       0.422  11.594  20.408  0.00  0.00    +0.000 C 
BRANCH  17  22
ATOM     18  N   UNL     1      -3.443  13.188  23.117  0.00  0.00    +0.000 NA
ATOM     19  C   UNL     1      -3.909  12.636  21.813  0.00  0.00    +0.000 C 
ATOM     20  C   UNL     1      -3.101  13.134  20.592  0.00  0.00    +0.000 C 
ATOM     21  N   UNL     1      -1.665  12.904  20.795  0.00  0.00    +0.000 N 
ATOM     22  C   UNL     1      -1.069  11.831  20.135  0.00  0.00    +0.000 C 
ATOM     23  O   UNL     1      -1.692  11.121  19.347  0.00  0.00    +0.000 OA
ATOM     24  C   UNL     1      -1.164  13.491  22.043  0.00  0.00    +0.000 C 
ATOM     25  C   UNL     1      -1.985  12.951  23.237  0.00  0.00    +0.000 C 
BRANCH  18  27
ATOM     26  C   UNL     1      -3.462  15.242  24.577  0.00  0.00    +0.000 C 
ATOM     27  C   UNL     1      -3.826  14.607  23.239  0.00  0.00    +0.000 C 
ENDBRANCH  18  27
ENDBRANCH  17  22
ENDBRANCH   1  17
TORSDOF 4
ENDMDL
MODEL 9
REMARK VINA RESULT:      -6.6      3.743     10.335
REMARK  Name = 
REMARK  7 active torsions:
REMARK  status: ('A' for Active; 'I' for Inactive)
REMARK    1  A    between atoms: C_1  and  C_2
REMARK    2  A    between atoms: C_2  and  N_3
REMARK    3  A    between atoms: C_7  and  C_9
REMARK    4  A    between atoms: C_9  and  C_10
REMARK    5  A    between atoms: C_11  and  C_12
REMARK    6  A    between atoms: C_16  and  C_17
REMARK    7  A    between atoms: C_24  and  C_25
REMARK                            x       y       z     vdW  Elec       q    Type
REMARK                         _______ _______ _______ _____ _____    ______ ____
ROOT
ATOM      1  C   UNL     1       0.642  10.862  20.168  0.00  0.00    +0.000 A 
ATOM      2  C   UNL     1       1.351  11.386  18.923  0.00  0.00    +0.000 A 
ATOM      3  C   UNL     1       1.226  12.850  18.542  0.00  0.00    +0.000 C 
ATOM      4  N   UNL     1       2.049  10.663  18.099  0.00  0.00    +0.000 NA
ATOM      5  C   UNL     1       2.128   9.328  18.355  0.00  0.00    +0.000 A 
ATOM      6  N   UNL     1       2.770   8.387  17.699  0.00  0.00    +0.000 NA
ATOM      7  C   UNL     1       2.416   7.238  18.350  0.00  0.00    +0.000 A 
ATOM      8  N   UNL     1       1.603   7.414  19.396  0.00  0.00    +0.000 NA
ATOM      9  N   UNL     1       1.459   8.755  19.436  0.00  0.00    +0.000 N 
ATOM     10  C   UNL     1       0.737   9.523  20.356  0.00  0.00    +0.000 A 
ATOM     11  C   UNL     1       0.112   8.783  21.509  0.00  0.00    +0.000 C 
ENDROOT
BRANCH   7  12
ATOM     12  C   UNL     1       2.873   5.869  17.952  0.00  0.00    +0.000 A 
ATOM     13  C   UNL     1       2.033   4.775  17.886  0.00  0.00    +0.000 A 
ATOM     14  C   UNL     1       2.721   3.588  17.505  0.00  0.00    +0.000 A 
ATOM     15  C   UNL     1       4.064   3.819  17.306  0.00  0.00    +0.000 A 
ATOM     16  S   UNL     1       4.476   5.466  17.533  0.00  0.00    +0.000 S 
ENDBRANCH   7  12
BRANCH   1  17
ATOM     17  C   UNL     1      -0.130  11.810  21.048  0.00  0.00    +0.000 C 
BRANCH  17  22
ATOM     18  N   UNL     1      -4.563  12.662  23.156  0.00  0.00    +0.000 NA
ATOM     19  C   UNL     1      -4.705  12.508  21.680  0.00  0.00    +0.000 C 
ATOM     20  C   UNL     1      -3.669  13.311  20.859  0.00  0.00    +0.000 C 
ATOM     21  N   UNL     1      -2.305  13.003  21.306  0.00  0.00    +0.000 N 
ATOM     22  C   UNL     1      -1.532  12.145  20.525  0.00  0.00    +0.000 C 
ATOM     23  O   UNL     1      -1.935  11.699  19.451  0.00  0.00    +0.000 OA
ATOM     24  C   UNL     1      -2.118  13.204  22.748  0.00  0.00    +0.000 C 
ATOM     25  C   UNL     1      -3.159  12.369  23.529  0.00  0.00    +0.000 C 
BRANCH  18  27
ATOM     26  C   UNL     1      -6.539  14.170  23.566  0.00  0.00    +0.000 C 
ATOM     27  C   UNL     1      -5.024  13.997  23.579  0.00  0.00    +0.000 C 
ENDBRANCH  18  27
ENDBRANCH  17  22
ENDBRANCH   1  17
TORSDOF 4
ENDMDL
