MODEL 1
REMARK VINA RESULT:      -7.7      0.000      0.000
REMARK  Name = 
REMARK  6 active torsions:
REMARK  status: ('A' for Active; 'I' for Inactive)
REMARK    1  A    between atoms: C_1  and  N_2
REMARK    2  A    between atoms: C_4  and  S_5
REMARK    3  A    between atoms: S_5  and  N_8
REMARK    4  A    between atoms: N_8  and  C_9
REMARK    5  A    between atoms: C_9  and  C_10
REMARK    6  A    between atoms: C_17  and  C_18
REMARK                            x       y       z     vdW  Elec       q    Type
REMARK                         _______ _______ _______ _____ _____    ______ ____
ROOT
ATOM      1  S   UNL     1       5.928   5.074  18.223  0.00  0.00    +0.000 S 
ATOM      2  O   UNL     1       6.942   6.074  17.980  0.00  0.00    +0.000 OA
ATOM      3  O   UNL     1       5.850   4.316  19.453  0.00  0.00    +0.000 OA
ENDROOT
BRANCH   1   7
ATOM      4  C   UNL     1       2.210   8.718  17.718  0.00  0.00    +0.000 C 
ATOM      5  N   UNL     1       2.926   7.491  17.973  0.00  0.00    +0.000 N 
ATOM      6  C   UNL     1       4.264   7.270  17.845  0.00  0.00    +0.000 A 
ATOM      7  C   UNL     1       4.455   5.950  18.209  0.00  0.00    +0.000 A 
ATOM      8  C   UNL     1       3.165   5.448  18.522  0.00  0.00    +0.000 A 
ATOM      9  N   UNL     1       2.239   6.412  18.380  0.00  0.00    +0.000 NA
BRANCH   8  10
ATOM     10  C   UNL     1       2.747   4.074  18.961  0.00  0.00    +0.000 C 
ATOM     11  C   UNL     1       2.077   4.066  20.338  0.00  0.00    +0.000 C 
ATOM     12  C   UNL     1       1.242   2.795  20.365  0.00  0.00    +0.000 C 
ATOM     13  C   UNL     1       0.865   2.503  18.919  0.00  0.00    +0.000 C 
ATOM     14  C   UNL     1       1.699   3.433  18.041  0.00  0.00    +0.000 C 
ENDBRANCH   8  10
ENDBRANCH   1   7
BRANCH   1  15
ATOM     15  N   UNL     1       5.948   3.965  16.952  0.00  0.00    +0.000 NA
ATOM     16  H   UNL     1       5.591   3.051  17.238  0.00  0.00    +0.000 HD
BRANCH  15  17
ATOM     17  C   UNL     1       5.390   4.449  15.677  0.00  0.00    +0.000 C 
BRANCH  17  18
ATOM     18  C   UNL     1       6.484   4.635  14.634  0.00  0.00    +0.000 C 
ATOM     19  O   UNL     1       7.507   5.260  14.930  0.00  0.00    +0.000 OA
ATOM     20  N   UNL     1       6.305   4.083  13.383  0.00  0.00    +0.000 N 
ATOM     21  C   UNL     1       5.094   3.523  12.807  0.00  0.00    +0.000 C 
ATOM     22  C   UNL     1       5.631   2.505  11.816  0.00  0.00    +0.000 C 
ATOM     23  C   UNL     1       6.889   3.174  11.270  0.00  0.00    +0.000 C 
ATOM     24  C   UNL     1       7.389   4.053  12.415  0.00  0.00    +0.000 C 
ENDBRANCH  17  18
ENDBRANCH  15  17
ENDBRANCH   1  15
TORSDOF 5
ENDMDL
MODEL 2
REMARK VINA RESULT:      -7.3      2.424      3.691
REMARK  Name = 
REMARK  6 active torsions:
REMARK  status: ('A' for Active; 'I' for Inactive)
REMARK    1  A    between atoms: C_1  and  N_2
REMARK    2  A    between atoms: C_4  and  S_5
REMARK    3  A    between atoms: S_5  and  N_8
REMARK    4  A    between atoms: N_8  and  C_9
REMARK    5  A    between atoms: C_9  and  C_10
REMARK    6  A    between atoms: C_17  and  C_18
REMARK                            x       y       z     vdW  Elec       q    Type
REMARK                         _______ _______ _______ _____ _____    ______ ____
ROOT
ATOM      1  S   UNL     1       3.429   3.912  17.615  0.00  0.00    +0.000 S 
ATOM      2  O   UNL     1       4.465   3.499  18.534  0.00  0.00    +0.000 OA
ATOM      3  O   UNL     1       2.164   3.220  17.495  0.00  0.00    +0.000 OA
ENDROOT
BRANCH   1   7
ATOM      4  C   UNL     1       2.444   9.028  18.069  0.00  0.00    +0.000 C 
ATOM      5  N   UNL     1       2.561   7.611  18.311  0.00  0.00    +0.000 N 
ATOM      6  C   UNL     1       3.079   6.667  17.476  0.00  0.00    +0.000 A 
ATOM      7  C   UNL     1       2.973   5.471  18.161  0.00  0.00    +0.000 A 
ATOM      8  C   UNL     1       2.358   5.792  19.398  0.00  0.00    +0.000 A 
ATOM      9  N   UNL     1       2.121   7.113  19.477  0.00  0.00    +0.000 NA
BRANCH   8  10
ATOM     10  C   UNL     1       1.974   4.898  20.543  0.00  0.00    +0.000 C 
ATOM     11  C   UNL     1       0.884   3.888  20.172  0.00  0.00    +0.000 C 
ATOM     12  C   UNL     1       1.029   2.760  21.181  0.00  0.00    +0.000 C 
ATOM     13  C   UNL     1       2.494   2.746  21.596  0.00  0.00    +0.000 C 
ATOM     14  C   UNL     1       3.128   4.021  21.046  0.00  0.00    +0.000 C 
ENDBRANCH   8  10
ENDBRANCH   1   7
BRANCH   1  15
ATOM     15  N   UNL     1       4.091   4.017  16.067  0.00  0.00    +0.000 NA
ATOM     16  H   UNL     1       3.660   4.762  15.518  0.00  0.00    +0.000 HD
BRANCH  15  17
ATOM     17  C   UNL     1       5.563   4.006  16.004  0.00  0.00    +0.000 C 
BRANCH  17  18
ATOM     18  C   UNL     1       6.126   5.421  16.040  0.00  0.00    +0.000 C 
ATOM     19  O   UNL     1       5.792   6.231  15.169  0.00  0.00    +0.000 OA
ATOM     20  N   UNL     1       6.987   5.764  17.060  0.00  0.00    +0.000 N 
ATOM     21  C   UNL     1       7.646   4.892  18.018  0.00  0.00    +0.000 C 
ATOM     22  C   UNL     1       7.838   5.797  19.223  0.00  0.00    +0.000 C 
ATOM     23  C   UNL     1       8.139   7.156  18.598  0.00  0.00    +0.000 C 
ATOM     24  C   UNL     1       7.396   7.144  17.264  0.00  0.00    +0.000 C 
ENDBRANCH  17  18
ENDBRANCH  15  17
ENDBRANCH   1  15
TORSDOF 5
ENDMDL
MODEL 3
REMARK VINA RESULT:      -7.2      1.021      1.140
REMARK  Name = 
REMARK  6 active torsions:
REMARK  status: ('A' for Active; 'I' for Inactive)
REMARK    1  A    between atoms: C_1  and  N_2
REMARK    2  A    between atoms: C_4  and  S_5
REMARK    3  A    between atoms: S_5  and  N_8
REMARK    4  A    between atoms: N_8  and  C_9
REMARK    5  A    between atoms: C_9  and  C_10
REMARK    6  A    between atoms: C_17  and  C_18
REMARK                            x       y       z     vdW  Elec       q    Type
REMARK                         _______ _______ _______ _____ _____    ______ ____
ROOT
ATOM      1  S   UNL     1       5.445   4.504  17.513  0.00  0.00    +0.000 S 
ATOM      2  O   UNL     1       6.289   4.330  18.674  0.00  0.00    +0.000 OA
ATOM      3  O   UNL     1       4.679   3.424  16.930  0.00  0.00    +0.000 OA
ENDROOT
BRANCH   1   7
ATOM      4  C   UNL     1       2.270   8.617  18.109  0.00  0.00    +0.000 C 
ATOM      5  N   UNL     1       2.921   7.336  18.239  0.00  0.00    +0.000 N 
ATOM      6  C   UNL     1       3.990   6.873  17.532  0.00  0.00    +0.000 A 
ATOM      7  C   UNL     1       4.238   5.607  18.027  0.00  0.00    +0.000 A 
ATOM      8  C   UNL     1       3.250   5.384  19.020  0.00  0.00    +0.000 A 
ATOM      9  N   UNL     1       2.455   6.461  19.144  0.00  0.00    +0.000 NA
BRANCH   8  10
ATOM     10  C   UNL     1       3.009   4.179  19.885  0.00  0.00    +0.000 C 
ATOM     11  C   UNL     1       2.254   4.512  21.175  0.00  0.00    +0.000 C 
ATOM     12  C   UNL     1       1.615   3.202  21.610  0.00  0.00    +0.000 C 
ATOM     13  C   UNL     1       1.387   2.397  20.337  0.00  0.00    +0.000 C 
ATOM     14  C   UNL     1       2.134   3.112  19.214  0.00  0.00    +0.000 C 
ENDBRANCH   8  10
ENDBRANCH   1   7
BRANCH   1  15
ATOM     15  N   UNL     1       6.363   5.192  16.277  0.00  0.00    +0.000 NA
ATOM     16  H   UNL     1       7.341   4.900  16.321  0.00  0.00    +0.000 HD
BRANCH  15  17
ATOM     17  C   UNL     1       5.776   5.109  14.928  0.00  0.00    +0.000 C 
BRANCH  17  18
ATOM     18  C   UNL     1       6.847   4.835  13.879  0.00  0.00    +0.000 C 
ATOM     19  O   UNL     1       7.954   5.371  13.985  0.00  0.00    +0.000 OA
ATOM     20  N   UNL     1       6.551   3.976  12.843  0.00  0.00    +0.000 N 
ATOM     21  C   UNL     1       5.256   3.445  12.450  0.00  0.00    +0.000 C 
ATOM     22  C   UNL     1       5.617   2.120  11.800  0.00  0.00    +0.000 C 
ATOM     23  C   UNL     1       6.931   2.424  11.088  0.00  0.00    +0.000 C 
ATOM     24  C   UNL     1       7.585   3.518  11.929  0.00  0.00    +0.000 C 
ENDBRANCH  17  18
ENDBRANCH  15  17
ENDBRANCH   1  15
TORSDOF 5
ENDMDL
MODEL 4
REMARK VINA RESULT:      -7.1      1.183      1.260
REMARK  Name = 
REMARK  6 active torsions:
REMARK  status: ('A' for Active; 'I' for Inactive)
REMARK    1  A    between atoms: C_1  and  N_2
REMARK    2  A    between atoms: C_4  and  S_5
REMARK    3  A    between atoms: S_5  and  N_8
REMARK    4  A    between atoms: N_8  and  C_9
REMARK    5  A    between atoms: C_9  and  C_10
REMARK    6  A    between atoms: C_17  and  C_18
REMARK                            x       y       z     vdW  Elec       q    Type
REMARK                         _______ _______ _______ _____ _____    ______ ____
ROOT
ATOM      1  S   UNL     1       5.011   6.171  17.253  0.00  0.00    +0.000 S 
ATOM      2  O   UNL     1       5.486   7.063  16.220  0.00  0.00    +0.000 OA
ATOM      3  O   UNL     1       5.782   5.859  18.437  0.00  0.00    +0.000 OA
ENDROOT
BRANCH   1   7
ATOM      4  C   UNL     1       1.201   9.556  18.425  0.00  0.00    +0.000 C 
ATOM      5  N   UNL     1       2.039   8.385  18.341  0.00  0.00    +0.000 N 
ATOM      6  C   UNL     1       3.201   8.245  17.643  0.00  0.00    +0.000 A 
ATOM      7  C   UNL     1       3.622   6.951  17.884  0.00  0.00    +0.000 A 
ATOM      8  C   UNL     1       2.635   6.378  18.727  0.00  0.00    +0.000 A 
ATOM      9  N   UNL     1       1.675   7.277  19.005  0.00  0.00    +0.000 NA
BRANCH   8  10
ATOM     10  C   UNL     1       2.546   4.994  19.303  0.00  0.00    +0.000 C 
ATOM     11  C   UNL     1       2.008   4.976  20.737  0.00  0.00    +0.000 C 
ATOM     12  C   UNL     1       1.458   3.573  20.936  0.00  0.00    +0.000 C 
ATOM     13  C   UNL     1       1.032   3.082  19.559  0.00  0.00    +0.000 C 
ATOM     14  C   UNL     1       1.582   4.077  18.539  0.00  0.00    +0.000 C 
ENDBRANCH   8  10
ENDBRANCH   1   7
BRANCH   1  15
ATOM     15  N   UNL     1       4.573   4.706  16.541  0.00  0.00    +0.000 NA
ATOM     16  H   UNL     1       4.018   4.846  15.694  0.00  0.00    +0.000 HD
BRANCH  15  17
ATOM     17  C   UNL     1       5.660   3.724  16.386  0.00  0.00    +0.000 C 
BRANCH  17  18
ATOM     18  C   UNL     1       6.728   4.232  15.426  0.00  0.00    +0.000 C 
ATOM     19  O   UNL     1       7.781   4.694  15.877  0.00  0.00    +0.000 OA
ATOM     20  N   UNL     1       6.493   4.147  14.071  0.00  0.00    +0.000 N 
ATOM     21  C   UNL     1       5.247   3.845  13.387  0.00  0.00    +0.000 C 
ATOM     22  C   UNL     1       5.719   3.216  12.087  0.00  0.00    +0.000 C 
ATOM     23  C   UNL     1       6.982   4.004  11.753  0.00  0.00    +0.000 C 
ATOM     24  C   UNL     1       7.546   4.425  13.108  0.00  0.00    +0.000 C 
ENDBRANCH  17  18
ENDBRANCH  15  17
ENDBRANCH   1  15
TORSDOF 5
ENDMDL
MODEL 5
REMARK VINA RESULT:      -7.1      1.085      1.637
REMARK  Name = 
REMARK  6 active torsions:
REMARK  status: ('A' for Active; 'I' for Inactive)
REMARK    1  A    between atoms: C_1  and  N_2
REMARK    2  A    between atoms: C_4  and  S_5
REMARK    3  A    between atoms: S_5  and  N_8
REMARK    4  A    between atoms: N_8  and  C_9
REMARK    5  A    between atoms: C_9  and  C_10
REMARK    6  A    between atoms: C_17  and  C_18
REMARK                            x       y       z     vdW  Elec       q    Type
REMARK                         _______ _______ _______ _____ _____    ______ ____
ROOT
ATOM      1  S   UNL     1       4.607   3.983  18.501  0.00  0.00    +0.000 S 
ATOM      2  O   UNL     1       5.044   3.816  19.868  0.00  0.00    +0.000 OA
ATOM      3  O   UNL     1       3.734   3.043  17.834  0.00  0.00    +0.000 OA
ENDROOT
BRANCH   1   7
ATOM      4  C   UNL     1       2.705   8.788  17.691  0.00  0.00    +0.000 C 
ATOM      5  N   UNL     1       2.910   7.435  18.151  0.00  0.00    +0.000 N 
ATOM      6  C   UNL     1       3.934   6.596  17.829  0.00  0.00    +0.000 A 
ATOM      7  C   UNL     1       3.685   5.427  18.522  0.00  0.00    +0.000 A 
ATOM      8  C   UNL     1       2.472   5.650  19.223  0.00  0.00    +0.000 A 
ATOM      9  N   UNL     1       2.015   6.893  18.990  0.00  0.00    +0.000 NA
BRANCH   8  10
ATOM     10  C   UNL     1       1.699   4.731  20.127  0.00  0.00    +0.000 C 
ATOM     11  C   UNL     1       1.269   3.435  19.434  0.00  0.00    +0.000 C 
ATOM     12  C   UNL     1       1.042   2.439  20.561  0.00  0.00    +0.000 C 
ATOM     13  C   UNL     1       1.962   2.867  21.698  0.00  0.00    +0.000 C 
ATOM     14  C   UNL     1       2.506   4.248  21.339  0.00  0.00    +0.000 C 
ENDBRANCH   8  10
ENDBRANCH   1   7
BRANCH   1  15
ATOM     15  N   UNL     1       5.966   4.186  17.522  0.00  0.00    +0.000 NA
ATOM     16  H   UNL     1       6.805   3.785  17.947  0.00  0.00    +0.000 HD
BRANCH  15  17
ATOM     17  C   UNL     1       5.788   3.827  16.104  0.00  0.00    +0.000 C 
BRANCH  17  18
ATOM     18  C   UNL     1       6.662   4.691  15.204  0.00  0.00    +0.000 C 
ATOM     19  O   UNL     1       7.372   5.568  15.706  0.00  0.00    +0.000 OA
ATOM     20  N   UNL     1       6.648   4.456  13.846  0.00  0.00    +0.000 N 
ATOM     21  C   UNL     1       5.725   3.634  13.081  0.00  0.00    +0.000 C 
ATOM     22  C   UNL     1       6.565   3.202  11.891  0.00  0.00    +0.000 C 
ATOM     23  C   UNL     1       7.427   4.427  11.605  0.00  0.00    +0.000 C 
ATOM     24  C   UNL     1       7.602   5.104  12.962  0.00  0.00    +0.000 C 
ENDBRANCH  17  18
ENDBRANCH  15  17
ENDBRANCH   1  15
TORSDOF 5
ENDMDL
MODEL 6
REMARK VINA RESULT:      -7.0      1.603      3.323
REMARK  Name = 
REMARK  6 active torsions:
REMARK  status: ('A' for Active; 'I' for Inactive)
REMARK    1  A    between atoms: C_1  and  N_2
REMARK    2  A    between atoms: C_4  and  S_5
REMARK    3  A    between atoms: S_5  and  N_8
REMARK    4  A    between atoms: N_8  and  C_9
REMARK    5  A    between atoms: C_9  and  C_10
REMARK    6  A    between atoms: C_17  and  C_18
REMARK                            x       y       z     vdW  Elec       q    Type
REMARK                         _______ _______ _______ _____ _____    ______ ____
ROOT
ATOM      1  S   UNL     1       5.171   4.799  18.843  0.00  0.00    +0.000 S 
ATOM      2  O   UNL     1       5.605   6.096  19.311  0.00  0.00    +0.000 OA
ATOM      3  O   UNL     1       5.874   3.575  19.157  0.00  0.00    +0.000 OA
ENDROOT
BRANCH   1   7
ATOM      4  C   UNL     1       0.949   2.866  21.251  0.00  0.00    +0.000 C 
ATOM      5  N   UNL     1       1.899   3.735  20.600  0.00  0.00    +0.000 N 
ATOM      6  C   UNL     1       3.125   3.402  20.106  0.00  0.00    +0.000 A 
ATOM      7  C   UNL     1       3.640   4.572  19.580  0.00  0.00    +0.000 A 
ATOM      8  C   UNL     1       2.658   5.566  19.821  0.00  0.00    +0.000 A 
ATOM      9  N   UNL     1       1.590   5.032  20.441  0.00  0.00    +0.000 NA
BRANCH   8  10
ATOM     10  C   UNL     1       2.668   7.031  19.490  0.00  0.00    +0.000 C 
ATOM     11  C   UNL     1       2.224   7.321  18.053  0.00  0.00    +0.000 C 
ATOM     12  C   UNL     1       1.752   8.766  18.068  0.00  0.00    +0.000 C 
ATOM     13  C   UNL     1       1.260   9.038  19.484  0.00  0.00    +0.000 C 
ATOM     14  C   UNL     1       1.698   7.857  20.345  0.00  0.00    +0.000 C 
ENDBRANCH   8  10
ENDBRANCH   1   7
BRANCH   1  15
ATOM     15  N   UNL     1       4.996   4.862  17.167  0.00  0.00    +0.000 NA
ATOM     16  H   UNL     1       5.073   5.817  16.811  0.00  0.00    +0.000 HD
BRANCH  15  17
ATOM     17  C   UNL     1       5.789   3.879  16.408  0.00  0.00    +0.000 C 
BRANCH  17  18
ATOM     18  C   UNL     1       6.769   4.571  15.468  0.00  0.00    +0.000 C 
ATOM     19  O   UNL     1       7.689   5.246  15.938  0.00  0.00    +0.000 OA
ATOM     20  N   UNL     1       6.607   4.408  14.108  0.00  0.00    +0.000 N 
ATOM     21  C   UNL     1       5.473   3.845  13.395  0.00  0.00    +0.000 C 
ATOM     22  C   UNL     1       6.110   3.295  12.130  0.00  0.00    +0.000 C 
ATOM     23  C   UNL     1       7.201   4.313  11.813  0.00  0.00    +0.000 C 
ATOM     24  C   UNL     1       7.617   4.872  13.172  0.00  0.00    +0.000 C 
ENDBRANCH  17  18
ENDBRANCH  15  17
ENDBRANCH   1  15
TORSDOF 5
ENDMDL
MODEL 7
REMARK VINA RESULT:      -6.9      2.595      7.064
REMARK  Name = 
REMARK  6 active torsions:
REMARK  status: ('A' for Active; 'I' for Inactive)
REMARK    1  A    between atoms: C_1  and  N_2
REMARK    2  A    between atoms: C_4  and  S_5
REMARK    3  A    between atoms: S_5  and  N_8
REMARK    4  A    between atoms: N_8  and  C_9
REMARK    5  A    between atoms: C_9  and  C_10
REMARK    6  A    between atoms: C_17  and  C_18
REMARK                            x       y       z     vdW  Elec       q    Type
REMARK                         _______ _______ _______ _____ _____    ______ ____
ROOT
ATOM      1  S   UNL     1       4.354   4.142  18.586  0.00  0.00    +0.000 S 
ATOM      2  O   UNL     1       3.122   3.528  18.144  0.00  0.00    +0.000 OA
ATOM      3  O   UNL     1       5.313   3.461  19.427  0.00  0.00    +0.000 OA
ENDROOT
BRANCH   1   7
ATOM      4  C   UNL     1       6.309   3.975  13.737  0.00  0.00    +0.000 C 
ATOM      5  N   UNL     1       6.016   4.333  15.104  0.00  0.00    +0.000 N 
ATOM      6  C   UNL     1       5.155   3.712  15.958  0.00  0.00    +0.000 A 
ATOM      7  C   UNL     1       5.231   4.423  17.140  0.00  0.00    +0.000 A 
ATOM      8  C   UNL     1       6.154   5.473  16.897  0.00  0.00    +0.000 A 
ATOM      9  N   UNL     1       6.633   5.396  15.643  0.00  0.00    +0.000 NA
BRANCH   8  10
ATOM     10  C   UNL     1       6.623   6.572  17.806  0.00  0.00    +0.000 C 
ATOM     11  C   UNL     1       7.830   6.169  18.658  0.00  0.00    +0.000 C 
ATOM     12  C   UNL     1       8.497   7.479  19.047  0.00  0.00    +0.000 C 
ATOM     13  C   UNL     1       8.173   8.468  17.934  0.00  0.00    +0.000 C 
ATOM     14  C   UNL     1       7.107   7.820  17.055  0.00  0.00    +0.000 C 
ENDBRANCH   8  10
ENDBRANCH   1   7
BRANCH   1  15
ATOM     15  N   UNL     1       3.988   5.611  19.329  0.00  0.00    +0.000 NA
ATOM     16  H   UNL     1       4.828   6.093  19.655  0.00  0.00    +0.000 HD
BRANCH  15  17
ATOM     17  C   UNL     1       3.052   6.480  18.594  0.00  0.00    +0.000 C 
BRANCH  17  18
ATOM     18  C   UNL     1       2.130   7.227  19.549  0.00  0.00    +0.000 C 
ATOM     19  O   UNL     1       1.825   6.711  20.629  0.00  0.00    +0.000 OA
ATOM     20  N   UNL     1       1.670   8.474  19.184  0.00  0.00    +0.000 N 
ATOM     21  C   UNL     1       1.747   9.120  17.884  0.00  0.00    +0.000 C 
ATOM     22  C   UNL     1       1.759  10.597  18.242  0.00  0.00    +0.000 C 
ATOM     23  C   UNL     1       0.826  10.677  19.446  0.00  0.00    +0.000 C 
ATOM     24  C   UNL     1       0.957   9.317  20.130  0.00  0.00    +0.000 C 
ENDBRANCH  17  18
ENDBRANCH  15  17
ENDBRANCH   1  15
TORSDOF 5
ENDMDL
MODEL 8
REMARK VINA RESULT:      -6.8      2.643      6.970
REMARK  Name = 
REMARK  6 active torsions:
REMARK  status: ('A' for Active; 'I' for Inactive)
REMARK    1  A    between atoms: C_1  and  N_2
REMARK    2  A    between atoms: C_4  and  S_5
REMARK    3  A    between atoms: S_5  and  N_8
REMARK    4  A    between atoms: N_8  and  C_9
REMARK    5  A    between atoms: C_9  and  C_10
REMARK    6  A    between atoms: C_17  and  C_18
REMARK                            x       y       z     vdW  Elec       q    Type
REMARK                         _______ _______ _______ _____ _____    ______ ____
ROOT
ATOM      1  S   UNL     1       3.886   4.646  17.494  0.00  0.00    +0.000 S 
ATOM      2  O   UNL     1       4.468   3.842  18.545  0.00  0.00    +0.000 OA
ATOM      3  O   UNL     1       3.430   6.003  17.704  0.00  0.00    +0.000 OA
ENDROOT
BRANCH   1   7
ATOM      4  C   UNL     1       6.979   4.397  13.283  0.00  0.00    +0.000 C 
ATOM      5  N   UNL     1       6.410   4.715  14.571  0.00  0.00    +0.000 N 
ATOM      6  C   UNL     1       5.253   4.236  15.108  0.00  0.00    +0.000 A 
ATOM      7  C   UNL     1       5.150   4.831  16.351  0.00  0.00    +0.000 A 
ATOM      8  C   UNL     1       6.286   5.672  16.469  0.00  0.00    +0.000 A 
ATOM      9  N   UNL     1       7.054   5.581  15.369  0.00  0.00    +0.000 NA
BRANCH   8  10
ATOM     10  C   UNL     1       6.699   6.580  17.591  0.00  0.00    +0.000 C 
ATOM     11  C   UNL     1       7.743   5.948  18.517  0.00  0.00    +0.000 C 
ATOM     12  C   UNL     1       8.440   7.121  19.188  0.00  0.00    +0.000 C 
ATOM     13  C   UNL     1       8.347   8.286  18.212  0.00  0.00    +0.000 C 
ATOM     14  C   UNL     1       7.372   7.874  17.113  0.00  0.00    +0.000 C 
ENDBRANCH   8  10
ENDBRANCH   1   7
BRANCH   1  15
ATOM     15  N   UNL     1       2.609   3.789  16.804  0.00  0.00    +0.000 NA
ATOM     16  H   UNL     1       2.842   2.804  16.664  0.00  0.00    +0.000 HD
BRANCH  15  17
ATOM     17  C   UNL     1       1.289   4.006  17.423  0.00  0.00    +0.000 C 
BRANCH  17  18
ATOM     18  C   UNL     1       1.031   2.998  18.536  0.00  0.00    +0.000 C 
ATOM     19  O   UNL     1       0.583   1.883  18.255  0.00  0.00    +0.000 OA
ATOM     20  N   UNL     1       1.322   3.359  19.834  0.00  0.00    +0.000 N 
ATOM     21  C   UNL     1       1.637   4.678  20.356  0.00  0.00    +0.000 C 
ATOM     22  C   UNL     1       2.507   4.365  21.562  0.00  0.00    +0.000 C 
ATOM     23  C   UNL     1       1.886   3.090  22.123  0.00  0.00    +0.000 C 
ATOM     24  C   UNL     1       1.290   2.381  20.909  0.00  0.00    +0.000 C 
ENDBRANCH  17  18
ENDBRANCH  15  17
ENDBRANCH   1  15
TORSDOF 5
ENDMDL
MODEL 9
REMARK VINA RESULT:      -6.8      1.653      3.433
REMARK  Name = 
REMARK  6 active torsions:
REMARK  status: ('A' for Active; 'I' for Inactive)
REMARK    1  A    between atoms: C_1  and  N_2
REMARK    2  A    between atoms: C_4  and  S_5
REMARK    3  A    between atoms: S_5  and  N_8
REMARK    4  A    between atoms: N_8  and  C_9
REMARK    5  A    between atoms: C_9  and  C_10
REMARK    6  A    between atoms: C_17  and  C_18
REMARK                            x       y       z     vdW  Elec       q    Type
REMARK                         _______ _______ _______ _____ _____    ______ ____
ROOT
ATOM      1  S   UNL     1       4.574   5.688  17.700  0.00  0.00    +0.000 S 
ATOM      2  O   UNL     1       4.080   6.879  17.047  0.00  0.00    +0.000 OA
ATOM      3  O   UNL     1       5.757   5.682  18.532  0.00  0.00    +0.000 OA
ENDROOT
BRANCH   1   7
ATOM      4  C   UNL     1       1.247   3.138  20.829  0.00  0.00    +0.000 C 
ATOM      5  N   UNL     1       1.962   4.158  20.099  0.00  0.00    +0.000 N 
ATOM      6  C   UNL     1       2.993   3.983  19.225  0.00  0.00    +0.000 A 
ATOM      7  C   UNL     1       3.326   5.252  18.791  0.00  0.00    +0.000 A 
ATOM      8  C   UNL     1       2.451   6.134  19.476  0.00  0.00    +0.000 A 
ATOM      9  N   UNL     1       1.613   5.443  20.269  0.00  0.00    +0.000 NA
BRANCH   8  10
ATOM     10  C   UNL     1       2.356   7.632  19.422  0.00  0.00    +0.000 C 
ATOM     11  C   UNL     1       1.672   8.142  18.151  0.00  0.00    +0.000 C 
ATOM     12  C   UNL     1       1.159   9.529  18.506  0.00  0.00    +0.000 C 
ATOM     13  C   UNL     1       0.899   9.516  20.006  0.00  0.00    +0.000 C 
ATOM     14  C   UNL     1       1.513   8.231  20.556  0.00  0.00    +0.000 C 
ENDBRANCH   8  10
ENDBRANCH   1   7
BRANCH   1  15
ATOM     15  N   UNL     1       4.770   4.480  16.540  0.00  0.00    +0.000 NA
ATOM     16  H   UNL     1       4.283   4.704  15.670  0.00  0.00    +0.000 HD
BRANCH  15  17
ATOM     17  C   UNL     1       6.151   4.004  16.344  0.00  0.00    +0.000 C 
BRANCH  17  18
ATOM     18  C   UNL     1       6.891   4.866  15.329  0.00  0.00    +0.000 C 
ATOM     19  O   UNL     1       7.605   5.793  15.724  0.00  0.00    +0.000 OA
ATOM     20  N   UNL     1       6.752   4.575  13.989  0.00  0.00    +0.000 N 
ATOM     21  C   UNL     1       5.798   3.683  13.353  0.00  0.00    +0.000 C 
ATOM     22  C   UNL     1       6.535   3.238  12.101  0.00  0.00    +0.000 C 
ATOM     23  C   UNL     1       7.306   4.487  11.683  0.00  0.00    +0.000 C 
ATOM     24  C   UNL     1       7.584   5.227  12.991  0.00  0.00    +0.000 C 
ENDBRANCH  17  18
ENDBRANCH  15  17
ENDBRANCH   1  15
TORSDOF 5
ENDMDL
