MODEL 1
REMARK VINA RESULT:      -8.4      0.000      0.000
REMARK  Name = 
REMARK  8 active torsions:
REMARK  status: ('A' for Active; 'I' for Inactive)
REMARK    1  A    between atoms: C_1  and  C_2
REMARK    2  A    between atoms: C_2  and  C_3
REMARK    3  A    between atoms: C_2  and  C_4
REMARK    4  A    between atoms: C_4  and  C_5
REMARK    5  A    between atoms: C_4  and  N_22
REMARK    6  A    between atoms: C_5  and  N_6
REMARK    7  A    between atoms: C_9  and  N_10
REMARK    8  A    between atoms: C_23  and  C_25
REMARK                            x       y       z     vdW  Elec       q    Type
REMARK                         _______ _______ _______ _____ _____    ______ ____
ROOT
ATOM      1  C   UNL     1       0.122  11.146  19.729  0.00  0.00    +0.000 C 
ENDROOT
BRANCH   1   2
ATOM      2  N   UNL     1       0.682   9.781  19.638  0.00  0.00    +0.000 N 
ATOM      3  C   UNL     1       1.687   9.454  18.735  0.00  0.00    +0.000 C 
ATOM      4  O   UNL     1       2.167  10.237  17.933  0.00  0.00    +0.000 OA
ATOM      5  H   UNL     1       0.589   9.242  20.452  0.00  0.00    +0.000 HD
BRANCH   3   6
ATOM      6  C   UNL     1       2.217   8.064  18.846  0.00  0.00    +0.000 A 
ATOM      7  C   UNL     1       2.937   7.559  17.758  0.00  0.00    +0.000 A 
ATOM      8  C   UNL     1       3.509   6.298  17.830  0.00  0.00    +0.000 A 
ATOM      9  C   UNL     1       3.237   5.484  18.926  0.00  0.00    +0.000 A 
ATOM     10  C   UNL     1       3.747   4.191  18.952  0.00  0.00    +0.000 A 
ATOM     11  C   UNL     1       2.951   3.198  19.484  0.00  0.00    +0.000 A 
ATOM     12  C   UNL     1       2.034   3.546  20.466  0.00  0.00    +0.000 A 
ATOM     13  C   UNL     1       1.833   4.896  20.787  0.00  0.00    +0.000 A 
ATOM     14  C   UNL     1       2.345   5.889  19.932  0.00  0.00    +0.000 A 
ATOM     15  C   UNL     1       1.924   7.232  19.946  0.00  0.00    +0.000 A 
ENDBRANCH   3   6
ENDBRANCH   1   2
BRANCH   1  17
ATOM     16  C   UNL     1      -1.270  12.561  18.081  0.00  0.00    +0.000 C 
ATOM     17  C   UNL     1      -1.198  11.272  18.908  0.00  0.00    +0.000 C 
ATOM     18  C   UNL     1      -1.463  10.071  17.998  0.00  0.00    +0.000 C 
ENDBRANCH   1  17
BRANCH   1  19
ATOM     19  C   UNL     1      -0.044  11.498  21.231  0.00  0.00    +0.000 C 
BRANCH  19  20
ATOM     20  N   UNL     1       0.560  12.794  21.663  0.00  0.00    +0.000 NA
ATOM     21  C   UNL     1       1.379  13.389  20.592  0.00  0.00    +0.000 C 
ATOM     22  C   UNL     1       1.935  14.749  21.022  0.00  0.00    +0.000 C 
ATOM     23  C   UNL     1       0.804  15.755  21.237  0.00  0.00    +0.000 C 
ATOM     24  C   UNL     1      -0.073  15.145  22.355  0.00  0.00    +0.000 C 
ATOM     25  C   UNL     1      -0.532  13.717  22.050  0.00  0.00    +0.000 C 
BRANCH  23  26
ATOM     26  N   UNL     1       0.057  16.202  20.051  0.00  0.00    +0.000 N 
ATOM     27  C   UNL     1      -1.334  16.523  20.129  0.00  0.00    +0.000 A 
ATOM     28  O   UNL     1      -2.115  16.318  21.043  0.00  0.00    +0.000 OA
ATOM     29  N   UNL     1      -1.674  17.191  18.952  0.00  0.00    +0.000 N 
ATOM     30  C   UNL     1      -0.533  17.402  18.202  0.00  0.00    +0.000 A 
ATOM     31  C   UNL     1      -0.429  18.123  17.028  0.00  0.00    +0.000 A 
ATOM     32  C   UNL     1       0.843  18.261  16.480  0.00  0.00    +0.000 A 
ATOM     33  C   UNL     1       1.949  17.664  17.103  0.00  0.00    +0.000 A 
ATOM     34  C   UNL     1       1.807  16.930  18.293  0.00  0.00    +0.000 A 
ATOM     35  C   UNL     1       0.551  16.811  18.859  0.00  0.00    +0.000 A 
ATOM     36  H   UNL     1      -2.595  17.555  18.772  0.00  0.00    +0.000 HD
ENDBRANCH  23  26
ENDBRANCH  19  20
ENDBRANCH   1  19
TORSDOF 6
ENDMDL
MODEL 2
REMARK VINA RESULT:      -8.3      0.825      1.708
REMARK  Name = 
REMARK  8 active torsions:
REMARK  status: ('A' for Active; 'I' for Inactive)
REMARK    1  A    between atoms: C_1  and  C_2
REMARK    2  A    between atoms: C_2  and  C_3
REMARK    3  A    between atoms: C_2  and  C_4
REMARK    4  A    between atoms: C_4  and  C_5
REMARK    5  A    between atoms: C_4  and  N_22
REMARK    6  A    between atoms: C_5  and  N_6
REMARK    7  A    between atoms: C_9  and  N_10
REMARK    8  A    between atoms: C_23  and  C_25
REMARK                            x       y       z     vdW  Elec       q    Type
REMARK                         _______ _______ _______ _____ _____    ______ ____
ROOT
ATOM      1  C   UNL     1      -0.101  10.795  19.541  0.00  0.00    +0.000 C 
ENDROOT
BRANCH   1   2
ATOM      2  N   UNL     1       0.616   9.522  19.316  0.00  0.00    +0.000 N 
ATOM      3  C   UNL     1       1.727   9.438  18.484  0.00  0.00    +0.000 C 
ATOM      4  O   UNL     1       2.183  10.377  17.856  0.00  0.00    +0.000 OA
ATOM      5  H   UNL     1       0.513   8.859  20.031  0.00  0.00    +0.000 HD
BRANCH   3   6
ATOM      6  C   UNL     1       2.399   8.107  18.451  0.00  0.00    +0.000 A 
ATOM      7  C   UNL     1       2.247   7.280  19.569  0.00  0.00    +0.000 A 
ATOM      8  C   UNL     1       2.794   6.005  19.569  0.00  0.00    +0.000 A 
ATOM      9  C   UNL     1       3.617   5.613  18.516  0.00  0.00    +0.000 A 
ATOM     10  C   UNL     1       4.228   4.366  18.564  0.00  0.00    +0.000 A 
ATOM     11  C   UNL     1       5.516   4.263  18.081  0.00  0.00    +0.000 A 
ATOM     12  C   UNL     1       5.913   5.135  17.076  0.00  0.00    +0.000 A 
ATOM     13  C   UNL     1       5.064   6.179  16.681  0.00  0.00    +0.000 A 
ATOM     14  C   UNL     1       3.956   6.504  17.485  0.00  0.00    +0.000 A 
ATOM     15  C   UNL     1       3.250   7.718  17.396  0.00  0.00    +0.000 A 
ENDBRANCH   3   6
ENDBRANCH   1   2
BRANCH   1  17
ATOM     16  C   UNL     1      -1.966  12.228  18.481  0.00  0.00    +0.000 C 
ATOM     17  C   UNL     1      -1.472  10.812  18.798  0.00  0.00    +0.000 C 
ATOM     18  C   UNL     1      -1.476   9.975  17.517  0.00  0.00    +0.000 C 
ENDBRANCH   1  17
BRANCH   1  19
ATOM     19  C   UNL     1      -0.222  11.012  21.074  0.00  0.00    +0.000 C 
BRANCH  19  20
ATOM     20  N   UNL     1       0.402  12.263  21.601  0.00  0.00    +0.000 NA
ATOM     21  C   UNL     1       1.238  12.918  20.580  0.00  0.00    +0.000 C 
ATOM     22  C   UNL     1       1.816  14.234  21.109  0.00  0.00    +0.000 C 
ATOM     23  C   UNL     1       0.701  15.242  21.390  0.00  0.00    +0.000 C 
ATOM     24  C   UNL     1      -0.193  14.569  22.457  0.00  0.00    +0.000 C 
ATOM     25  C   UNL     1      -0.676  13.176  22.047  0.00  0.00    +0.000 C 
BRANCH  23  26
ATOM     26  N   UNL     1      -0.030  15.787  20.235  0.00  0.00    +0.000 N 
ATOM     27  C   UNL     1      -1.415  16.125  20.329  0.00  0.00    +0.000 A 
ATOM     28  O   UNL     1      -2.206  15.868  21.221  0.00  0.00    +0.000 OA
ATOM     29  N   UNL     1      -1.736  16.883  19.202  0.00  0.00    +0.000 N 
ATOM     30  C   UNL     1      -0.587  17.128  18.475  0.00  0.00    +0.000 A 
ATOM     31  C   UNL     1      -0.463  17.931  17.358  0.00  0.00    +0.000 A 
ATOM     32  C   UNL     1       0.815  18.086  16.829  0.00  0.00    +0.000 A 
ATOM     33  C   UNL     1       1.906  17.426  17.413  0.00  0.00    +0.000 A 
ATOM     34  C   UNL     1       1.744  16.610  18.545  0.00  0.00    +0.000 A 
ATOM     35  C   UNL     1       0.482  16.473  19.094  0.00  0.00    +0.000 A 
ATOM     36  H   UNL     1      -2.649  17.275  19.044  0.00  0.00    +0.000 HD
ENDBRANCH  23  26
ENDBRANCH  19  20
ENDBRANCH   1  19
TORSDOF 6
ENDMDL
MODEL 3
REMARK VINA RESULT:      -8.2      3.331      5.090
REMARK  Name = 
REMARK  8 active torsions:
REMARK  status: ('A' for Active; 'I' for Inactive)
REMARK    1  A    between atoms: C_1  and  C_2
REMARK    2  A    between atoms: C_2  and  C_3
REMARK    3  A    between atoms: C_2  and  C_4
REMARK    4  A    between atoms: C_4  and  C_5
REMARK    5  A    between atoms: C_4  and  N_22
REMARK    6  A    between atoms: C_5  and  N_6
REMARK    7  A    between atoms: C_9  and  N_10
REMARK    8  A    between atoms: C_23  and  C_25
REMARK                            x       y       z     vdW  Elec       q    Type
REMARK                         _______ _______ _______ _____ _____    ______ ____
ROOT
ATOM      1  C   UNL     1      -0.510  10.444  18.587  0.00  0.00    +0.000 C 
ENDROOT
BRANCH   1   2
ATOM      2  N   UNL     1       0.357   9.250  18.683  0.00  0.00    +0.000 N 
ATOM      3  C   UNL     1       1.648   9.233  18.168  0.00  0.00    +0.000 C 
ATOM      4  O   UNL     1       2.161  10.166  17.576  0.00  0.00    +0.000 OA
ATOM      5  H   UNL     1       0.136   8.638  19.417  0.00  0.00    +0.000 HD
BRANCH   3   6
ATOM      6  C   UNL     1       2.428   7.991  18.444  0.00  0.00    +0.000 A 
ATOM      7  C   UNL     1       3.390   7.612  17.503  0.00  0.00    +0.000 A 
ATOM      8  C   UNL     1       4.191   6.504  17.738  0.00  0.00    +0.000 A 
ATOM      9  C   UNL     1       3.930   5.690  18.838  0.00  0.00    +0.000 A 
ATOM     10  C   UNL     1       4.683   4.536  19.019  0.00  0.00    +0.000 A 
ATOM     11  C   UNL     1       4.036   3.417  19.501  0.00  0.00    +0.000 A 
ATOM     12  C   UNL     1       2.930   3.598  20.319  0.00  0.00    +0.000 A 
ATOM     13  C   UNL     1       2.411   4.885  20.519  0.00  0.00    +0.000 A 
ATOM     14  C   UNL     1       2.833   5.932  19.679  0.00  0.00    +0.000 A 
ATOM     15  C   UNL     1       2.149   7.155  19.545  0.00  0.00    +0.000 A 
ENDBRANCH   3   6
ENDBRANCH   1   2
BRANCH   1  17
ATOM     16  C   UNL     1      -2.843   9.553  17.942  0.00  0.00    +0.000 C 
ATOM     17  C   UNL     1      -1.580  10.278  17.465  0.00  0.00    +0.000 C 
ATOM     18  C   UNL     1      -1.973  11.600  16.803  0.00  0.00    +0.000 C 
ENDBRANCH   1  17
BRANCH   1  19
ATOM     19  C   UNL     1      -1.117  10.711  19.991  0.00  0.00    +0.000 C 
BRANCH  19  20
ATOM     20  N   UNL     1      -1.380  12.144  20.321  0.00  0.00    +0.000 NA
ATOM     21  C   UNL     1      -2.786  12.504  20.068  0.00  0.00    +0.000 C 
ATOM     22  C   UNL     1      -3.059  13.955  20.475  0.00  0.00    +0.000 C 
ATOM     23  C   UNL     1      -2.886  14.138  21.982  0.00  0.00    +0.000 C 
ATOM     24  C   UNL     1      -1.414  13.758  22.270  0.00  0.00    +0.000 C 
ATOM     25  C   UNL     1      -1.037  12.371  21.743  0.00  0.00    +0.000 C 
BRANCH  23  26
ATOM     26  N   UNL     1      -3.868  13.487  22.864  0.00  0.00    +0.000 N 
ATOM     27  C   UNL     1      -3.808  13.645  24.283  0.00  0.00    +0.000 A 
ATOM     28  O   UNL     1      -2.918  14.129  24.961  0.00  0.00    +0.000 OA
ATOM     29  N   UNL     1      -5.016  13.181  24.805  0.00  0.00    +0.000 N 
ATOM     30  C   UNL     1      -5.865  12.852  23.766  0.00  0.00    +0.000 A 
ATOM     31  C   UNL     1      -7.187  12.461  23.862  0.00  0.00    +0.000 A 
ATOM     32  C   UNL     1      -7.872  12.246  22.669  0.00  0.00    +0.000 A 
ATOM     33  C   UNL     1      -7.216  12.406  21.439  0.00  0.00    +0.000 A 
ATOM     34  C   UNL     1      -5.868  12.797  21.377  0.00  0.00    +0.000 A 
ATOM     35  C   UNL     1      -5.188  13.041  22.557  0.00  0.00    +0.000 A 
ATOM     36  H   UNL     1      -5.241  13.213  25.785  0.00  0.00    +0.000 HD
ENDBRANCH  23  26
ENDBRANCH  19  20
ENDBRANCH   1  19
TORSDOF 6
ENDMDL
MODEL 4
REMARK VINA RESULT:      -8.2      3.224      4.933
REMARK  Name = 
REMARK  8 active torsions:
REMARK  status: ('A' for Active; 'I' for Inactive)
REMARK    1  A    between atoms: C_1  and  C_2
REMARK    2  A    between atoms: C_2  and  C_3
REMARK    3  A    between atoms: C_2  and  C_4
REMARK    4  A    between atoms: C_4  and  C_5
REMARK    5  A    between atoms: C_4  and  N_22
REMARK    6  A    between atoms: C_5  and  N_6
REMARK    7  A    between atoms: C_9  and  N_10
REMARK    8  A    between atoms: C_23  and  C_25
REMARK                            x       y       z     vdW  Elec       q    Type
REMARK                         _______ _______ _______ _____ _____    ______ ____
ROOT
ATOM      1  C   UNL     1      -0.269  11.558  21.506  0.00  0.00    +0.000 C 
ENDROOT
BRANCH   1   2
ATOM      2  N   UNL     1       0.589  10.505  20.921  0.00  0.00    +0.000 N 
ATOM      3  C   UNL     1       0.252   9.850  19.741  0.00  0.00    +0.000 C 
ATOM      4  O   UNL     1      -0.771  10.056  19.113  0.00  0.00    +0.000 OA
ATOM      5  H   UNL     1       1.534  10.553  21.178  0.00  0.00    +0.000 HD
BRANCH   3   6
ATOM      6  C   UNL     1       1.277   8.894  19.229  0.00  0.00    +0.000 A 
ATOM      7  C   UNL     1       1.712   9.062  17.910  0.00  0.00    +0.000 A 
ATOM      8  C   UNL     1       2.710   8.245  17.399  0.00  0.00    +0.000 A 
ATOM      9  C   UNL     1       3.166   7.168  18.155  0.00  0.00    +0.000 A 
ATOM     10  C   UNL     1       4.107   6.305  17.603  0.00  0.00    +0.000 A 
ATOM     11  C   UNL     1       3.988   4.960  17.887  0.00  0.00    +0.000 A 
ATOM     12  C   UNL     1       3.407   4.592  19.092  0.00  0.00    +0.000 A 
ATOM     13  C   UNL     1       2.829   5.567  19.917  0.00  0.00    +0.000 A 
ATOM     14  C   UNL     1       2.593   6.853  19.397  0.00  0.00    +0.000 A 
ATOM     15  C   UNL     1       1.723   7.791  19.984  0.00  0.00    +0.000 A 
ENDBRANCH   3   6
ENDBRANCH   1   2
BRANCH   1  17
ATOM     16  C   UNL     1      -2.216  11.522  23.197  0.00  0.00    +0.000 C 
ATOM     17  C   UNL     1      -0.748  11.167  22.937  0.00  0.00    +0.000 C 
ATOM     18  C   UNL     1      -0.516   9.691  23.271  0.00  0.00    +0.000 C 
ENDBRANCH   1  17
BRANCH   1  19
ATOM     19  C   UNL     1       0.514  12.897  21.455  0.00  0.00    +0.000 C 
BRANCH  19  20
ATOM     20  N   UNL     1      -0.319  14.129  21.316  0.00  0.00    +0.000 NA
ATOM     21  C   UNL     1      -1.592  13.842  20.632  0.00  0.00    +0.000 C 
ATOM     22  C   UNL     1      -2.466  15.097  20.557  0.00  0.00    +0.000 C 
ATOM     23  C   UNL     1      -2.882  15.554  21.955  0.00  0.00    +0.000 C 
ATOM     24  C   UNL     1      -1.557  15.854  22.693  0.00  0.00    +0.000 C 
ATOM     25  C   UNL     1      -0.573  14.682  22.666  0.00  0.00    +0.000 C 
BRANCH  23  26
ATOM     26  N   UNL     1      -3.816  14.695  22.701  0.00  0.00    +0.000 N 
ATOM     27  C   UNL     1      -4.114  14.946  24.076  0.00  0.00    +0.000 A 
ATOM     28  O   UNL     1      -3.563  15.708  24.850  0.00  0.00    +0.000 OA
ATOM     29  N   UNL     1      -5.232  14.178  24.406  0.00  0.00    +0.000 N 
ATOM     30  C   UNL     1      -5.708  13.554  23.269  0.00  0.00    +0.000 A 
ATOM     31  C   UNL     1      -6.859  12.798  23.154  0.00  0.00    +0.000 A 
ATOM     32  C   UNL     1      -7.180  12.323  21.885  0.00  0.00    +0.000 A 
ATOM     33  C   UNL     1      -6.340  12.597  20.795  0.00  0.00    +0.000 A 
ATOM     34  C   UNL     1      -5.172  13.363  20.949  0.00  0.00    +0.000 A 
ATOM     35  C   UNL     1      -4.861  13.863  22.200  0.00  0.00    +0.000 A 
ATOM     36  H   UNL     1      -5.666  14.199  25.314  0.00  0.00    +0.000 HD
ENDBRANCH  23  26
ENDBRANCH  19  20
ENDBRANCH   1  19
TORSDOF 6
ENDMDL
MODEL 5
REMARK VINA RESULT:      -8.2      3.562      5.050
REMARK  Name = 
REMARK  8 active torsions:
REMARK  status: ('A' for Active; 'I' for Inactive)
REMARK    1  A    between atoms: C_1  and  C_2
REMARK    2  A    between atoms: C_2  and  C_3
REMARK    3  A    between atoms: C_2  and  C_4
REMARK    4  A    between atoms: C_4  and  C_5
REMARK    5  A    between atoms: C_4  and  N_22
REMARK    6  A    between atoms: C_5  and  N_6
REMARK    7  A    between atoms: C_9  and  N_10
REMARK    8  A    between atoms: C_23  and  C_25
REMARK                            x       y       z     vdW  Elec       q    Type
REMARK                         _______ _______ _______ _____ _____    ______ ____
ROOT
ATOM      1  C   UNL     1       0.910  10.940  20.434  0.00  0.00    +0.000 C 
ENDROOT
BRANCH   1   2
ATOM      2  N   UNL     1       1.301   9.605  19.932  0.00  0.00    +0.000 N 
ATOM      3  C   UNL     1       1.570   8.544  20.790  0.00  0.00    +0.000 C 
ATOM      4  O   UNL     1       1.539   8.623  22.005  0.00  0.00    +0.000 OA
ATOM      5  H   UNL     1       1.010   9.407  19.017  0.00  0.00    +0.000 HD
BRANCH   3   6
ATOM      6  C   UNL     1       1.843   7.238  20.122  0.00  0.00    +0.000 A 
ATOM      7  C   UNL     1       2.339   7.274  18.815  0.00  0.00    +0.000 A 
ATOM      8  C   UNL     1       2.674   6.094  18.168  0.00  0.00    +0.000 A 
ATOM      9  C   UNL     1       2.372   4.874  18.768  0.00  0.00    +0.000 A 
ATOM     10  C   UNL     1       2.634   3.697  18.077  0.00  0.00    +0.000 A 
ATOM     11  C   UNL     1       1.728   2.664  18.202  0.00  0.00    +0.000 A 
ATOM     12  C   UNL     1       0.998   2.569  19.379  0.00  0.00    +0.000 A 
ATOM     13  C   UNL     1       1.085   3.587  20.339  0.00  0.00    +0.000 A 
ATOM     14  C   UNL     1       1.679   4.813  19.987  0.00  0.00    +0.000 A 
ATOM     15  C   UNL     1       1.517   6.004  20.720  0.00  0.00    +0.000 A 
ENDBRANCH   3   6
ENDBRANCH   1   2
BRANCH   1  17
ATOM     16  C   UNL     1       0.440  12.439  18.388  0.00  0.00    +0.000 C 
ATOM     17  C   UNL     1       1.432  12.072  19.496  0.00  0.00    +0.000 C 
ATOM     18  C   UNL     1       1.845  13.339  20.249  0.00  0.00    +0.000 C 
ENDBRANCH   1  17
BRANCH   1  19
ATOM     19  C   UNL     1      -0.630  10.949  20.622  0.00  0.00    +0.000 C 
BRANCH  19  20
ATOM     20  N   UNL     1      -1.180  12.098  21.402  0.00  0.00    +0.000 NA
ATOM     21  C   UNL     1      -2.143  12.878  20.605  0.00  0.00    +0.000 C 
ATOM     22  C   UNL     1      -2.750  14.011  21.437  0.00  0.00    +0.000 C 
ATOM     23  C   UNL     1      -3.580  13.451  22.592  0.00  0.00    +0.000 C 
ATOM     24  C   UNL     1      -2.587  12.622  23.440  0.00  0.00    +0.000 C 
ATOM     25  C   UNL     1      -1.830  11.571  22.624  0.00  0.00    +0.000 C 
BRANCH  23  26
ATOM     26  N   UNL     1      -4.829  12.749  22.255  0.00  0.00    +0.000 N 
ATOM     27  C   UNL     1      -5.771  12.388  23.267  0.00  0.00    +0.000 A 
ATOM     28  O   UNL     1      -5.638  12.413  24.478  0.00  0.00    +0.000 OA
ATOM     29  N   UNL     1      -6.955  12.028  22.623  0.00  0.00    +0.000 N 
ATOM     30  C   UNL     1      -6.827  12.262  21.267  0.00  0.00    +0.000 A 
ATOM     31  C   UNL     1      -7.810  12.141  20.304  0.00  0.00    +0.000 A 
ATOM     32  C   UNL     1      -7.469  12.499  19.003  0.00  0.00    +0.000 A 
ATOM     33  C   UNL     1      -6.169  12.940  18.710  0.00  0.00    +0.000 A 
ATOM     34  C   UNL     1      -5.191  13.044  19.712  0.00  0.00    +0.000 A 
ATOM     35  C   UNL     1      -5.530  12.717  21.013  0.00  0.00    +0.000 A 
ATOM     36  H   UNL     1      -7.791  11.761  23.116  0.00  0.00    +0.000 HD
ENDBRANCH  23  26
ENDBRANCH  19  20
ENDBRANCH   1  19
TORSDOF 6
ENDMDL
MODEL 6
REMARK VINA RESULT:      -8.0      1.679      2.487
REMARK  Name = 
REMARK  8 active torsions:
REMARK  status: ('A' for Active; 'I' for Inactive)
REMARK    1  A    between atoms: C_1  and  C_2
REMARK    2  A    between atoms: C_2  and  C_3
REMARK    3  A    between atoms: C_2  and  C_4
REMARK    4  A    between atoms: C_4  and  C_5
REMARK    5  A    between atoms: C_4  and  N_22
REMARK    6  A    between atoms: C_5  and  N_6
REMARK    7  A    between atoms: C_9  and  N_10
REMARK    8  A    between atoms: C_23  and  C_25
REMARK                            x       y       z     vdW  Elec       q    Type
REMARK                         _______ _______ _______ _____ _____    ______ ____
ROOT
ATOM      1  C   UNL     1       0.562  11.200  19.381  0.00  0.00    +0.000 C 
ENDROOT
BRANCH   1   2
ATOM      2  N   UNL     1       1.077   9.817  19.464  0.00  0.00    +0.000 N 
ATOM      3  C   UNL     1       1.809   9.239  18.432  0.00  0.00    +0.000 C 
ATOM      4  O   UNL     1       2.061   9.796  17.378  0.00  0.00    +0.000 OA
ATOM      5  H   UNL     1       1.202   9.477  20.375  0.00  0.00    +0.000 HD
BRANCH   3   6
ATOM      6  C   UNL     1       2.349   7.879  18.718  0.00  0.00    +0.000 A 
ATOM      7  C   UNL     1       3.191   7.304  17.760  0.00  0.00    +0.000 A 
ATOM      8  C   UNL     1       3.776   6.070  18.000  0.00  0.00    +0.000 A 
ATOM      9  C   UNL     1       3.402   5.343  19.128  0.00  0.00    +0.000 A 
ATOM     10  C   UNL     1       3.930   4.071  19.319  0.00  0.00    +0.000 A 
ATOM     11  C   UNL     1       3.100   3.105  19.848  0.00  0.00    +0.000 A 
ATOM     12  C   UNL     1       2.076   3.509  20.693  0.00  0.00    +0.000 A 
ATOM     13  C   UNL     1       1.817   4.875  20.874  0.00  0.00    +0.000 A 
ATOM     14  C   UNL     1       2.400   5.806  19.995  0.00  0.00    +0.000 A 
ATOM     15  C   UNL     1       1.955   7.133  19.849  0.00  0.00    +0.000 A 
ENDBRANCH   3   6
ENDBRANCH   1   2
BRANCH   1  17
ATOM     16  C   UNL     1      -1.520  11.890  20.740  0.00  0.00    +0.000 C 
ATOM     17  C   UNL     1      -0.996  11.229  19.460  0.00  0.00    +0.000 C 
ATOM     18  C   UNL     1      -1.652  11.886  18.244  0.00  0.00    +0.000 C 
ENDBRANCH   1  17
BRANCH   1  19
ATOM     19  C   UNL     1       1.257  12.038  20.487  0.00  0.00    +0.000 C 
BRANCH  19  20
ATOM     20  N   UNL     1       2.366  12.926  20.025  0.00  0.00    +0.000 NA
ATOM     21  C   UNL     1       2.148  13.382  18.641  0.00  0.00    +0.000 C 
ATOM     22  C   UNL     1       3.256  14.345  18.204  0.00  0.00    +0.000 C 
ATOM     23  C   UNL     1       3.220  15.627  19.035  0.00  0.00    +0.000 C 
ATOM     24  C   UNL     1       3.440  15.168  20.496  0.00  0.00    +0.000 C 
ATOM     25  C   UNL     1       2.456  14.085  20.942  0.00  0.00    +0.000 C 
BRANCH  23  26
ATOM     26  N   UNL     1       2.073  16.529  18.845  0.00  0.00    +0.000 N 
ATOM     27  C   UNL     1       1.963  17.351  17.681  0.00  0.00    +0.000 A 
ATOM     28  O   UNL     1       2.800  17.578  16.824  0.00  0.00    +0.000 OA
ATOM     29  N   UNL     1       0.658  17.845  17.642  0.00  0.00    +0.000 N 
ATOM     30  C   UNL     1      -0.076  17.273  18.664  0.00  0.00    +0.000 A 
ATOM     31  C   UNL     1      -1.431  17.416  18.897  0.00  0.00    +0.000 A 
ATOM     32  C   UNL     1      -1.972  16.686  19.951  0.00  0.00    +0.000 A 
ATOM     33  C   UNL     1      -1.149  15.867  20.739  0.00  0.00    +0.000 A 
ATOM     34  C   UNL     1       0.227  15.750  20.479  0.00  0.00    +0.000 A 
ATOM     35  C   UNL     1       0.768  16.450  19.415  0.00  0.00    +0.000 A 
ATOM     36  H   UNL     1       0.312  18.427  16.898  0.00  0.00    +0.000 HD
ENDBRANCH  23  26
ENDBRANCH  19  20
ENDBRANCH   1  19
TORSDOF 6
ENDMDL
MODEL 7
REMARK VINA RESULT:      -8.0      0.679      1.482
REMARK  Name = 
REMARK  8 active torsions:
REMARK  status: ('A' for Active; 'I' for Inactive)
REMARK    1  A    between atoms: C_1  and  C_2
REMARK    2  A    between atoms: C_2  and  C_3
REMARK    3  A    between atoms: C_2  and  C_4
REMARK    4  A    between atoms: C_4  and  C_5
REMARK    5  A    between atoms: C_4  and  N_22
REMARK    6  A    between atoms: C_5  and  N_6
REMARK    7  A    between atoms: C_9  and  N_10
REMARK    8  A    between atoms: C_23  and  C_25
REMARK                            x       y       z     vdW  Elec       q    Type
REMARK                         _______ _______ _______ _____ _____    ______ ____
ROOT
ATOM      1  C   UNL     1       0.524  10.782  19.491  0.00  0.00    +0.000 C 
ENDROOT
BRANCH   1   2
ATOM      2  N   UNL     1       0.819   9.334  19.532  0.00  0.00    +0.000 N 
ATOM      3  C   UNL     1       1.796   8.756  18.729  0.00  0.00    +0.000 C 
ATOM      4  O   UNL     1       2.462   9.370  17.915  0.00  0.00    +0.000 OA
ATOM      5  H   UNL     1       0.576   8.888  20.371  0.00  0.00    +0.000 HD
BRANCH   3   6
ATOM      6  C   UNL     1       2.043   7.305  18.971  0.00  0.00    +0.000 A 
ATOM      7  C   UNL     1       1.957   6.848  20.290  0.00  0.00    +0.000 A 
ATOM      8  C   UNL     1       2.112   5.497  20.567  0.00  0.00    +0.000 A 
ATOM      9  C   UNL     1       2.501   4.629  19.550  0.00  0.00    +0.000 A 
ATOM     10  C   UNL     1       2.736   3.294  19.854  0.00  0.00    +0.000 A 
ATOM     11  C   UNL     1       3.780   2.663  19.211  0.00  0.00    +0.000 A 
ATOM     12  C   UNL     1       4.135   3.105  17.944  0.00  0.00    +0.000 A 
ATOM     13  C   UNL     1       3.536   4.256  17.413  0.00  0.00    +0.000 A 
ATOM     14  C   UNL     1       2.801   5.102  18.263  0.00  0.00    +0.000 A 
ATOM     15  C   UNL     1       2.459   6.430  17.946  0.00  0.00    +0.000 A 
ENDBRANCH   3   6
ENDBRANCH   1   2
BRANCH   1  17
ATOM     16  C   UNL     1      -1.316   9.898  17.914  0.00  0.00    +0.000 C 
ATOM     17  C   UNL     1      -0.510  11.118  18.373  0.00  0.00    +0.000 C 
ATOM     18  C   UNL     1      -1.471  12.246  18.756  0.00  0.00    +0.000 C 
ENDBRANCH   1  17
BRANCH   1  19
ATOM     19  C   UNL     1       0.072  11.220  20.909  0.00  0.00    +0.000 C 
BRANCH  19  20
ATOM     20  N   UNL     1       0.683  12.483  21.422  0.00  0.00    +0.000 NA
ATOM     21  C   UNL     1       1.494  13.147  20.386  0.00  0.00    +0.000 C 
ATOM     22  C   UNL     1       2.057  14.474  20.902  0.00  0.00    +0.000 C 
ATOM     23  C   UNL     1       0.931  15.465  21.195  0.00  0.00    +0.000 C 
ATOM     24  C   UNL     1       0.063  14.783  22.278  0.00  0.00    +0.000 C 
ATOM     25  C   UNL     1      -0.403  13.380  21.880  0.00  0.00    +0.000 C 
BRANCH  23  26
ATOM     26  N   UNL     1       0.175  15.993  20.048  0.00  0.00    +0.000 N 
ATOM     27  C   UNL     1      -1.206  16.342  20.170  0.00  0.00    +0.000 A 
ATOM     28  O   UNL     1      -1.975  16.108  21.086  0.00  0.00    +0.000 OA
ATOM     29  N   UNL     1      -1.550  17.081  19.037  0.00  0.00    +0.000 N 
ATOM     30  C   UNL     1      -0.418  17.304  18.277  0.00  0.00    +0.000 A 
ATOM     31  C   UNL     1      -0.317  18.086  17.142  0.00  0.00    +0.000 A 
ATOM     32  C   UNL     1       0.948  18.223  16.578  0.00  0.00    +0.000 A 
ATOM     33  C   UNL     1       2.050  17.566  17.148  0.00  0.00    +0.000 A 
ATOM     34  C   UNL     1       1.911  16.773  18.299  0.00  0.00    +0.000 A 
ATOM     35  C   UNL     1       0.662  16.654  18.882  0.00  0.00    +0.000 A 
ATOM     36  H   UNL     1      -2.464  17.476  18.894  0.00  0.00    +0.000 HD
ENDBRANCH  23  26
ENDBRANCH  19  20
ENDBRANCH   1  19
TORSDOF 6
ENDMDL
MODEL 8
REMARK VINA RESULT:      -8.0      2.873      4.415
REMARK  Name = 
REMARK  8 active torsions:
REMARK  status: ('A' for Active; 'I' for Inactive)
REMARK    1  A    between atoms: C_1  and  C_2
REMARK    2  A    between atoms: C_2  and  C_3
REMARK    3  A    between atoms: C_2  and  C_4
REMARK    4  A    between atoms: C_4  and  C_5
REMARK    5  A    between atoms: C_4  and  N_22
REMARK    6  A    between atoms: C_5  and  N_6
REMARK    7  A    between atoms: C_9  and  N_10
REMARK    8  A    between atoms: C_23  and  C_25
REMARK                            x       y       z     vdW  Elec       q    Type
REMARK                         _______ _______ _______ _____ _____    ______ ____
ROOT
ATOM      1  C   UNL     1       0.618  10.597  19.031  0.00  0.00    +0.000 C 
ENDROOT
BRANCH   1   2
ATOM      2  N   UNL     1       1.235   9.266  19.215  0.00  0.00    +0.000 N 
ATOM      3  C   UNL     1       2.011   8.669  18.227  0.00  0.00    +0.000 C 
ATOM      4  O   UNL     1       2.223   9.163  17.133  0.00  0.00    +0.000 OA
ATOM      5  H   UNL     1       1.382   9.005  20.149  0.00  0.00    +0.000 HD
BRANCH   3   6
ATOM      6  C   UNL     1       2.650   7.377  18.612  0.00  0.00    +0.000 A 
ATOM      7  C   UNL     1       3.625   6.860  17.753  0.00  0.00    +0.000 A 
ATOM      8  C   UNL     1       4.300   5.696  18.091  0.00  0.00    +0.000 A 
ATOM      9  C   UNL     1       3.898   4.971  19.210  0.00  0.00    +0.000 A 
ATOM     10  C   UNL     1       4.525   3.764  19.495  0.00  0.00    +0.000 A 
ATOM     11  C   UNL     1       3.746   2.737  19.988  0.00  0.00    +0.000 A 
ATOM     12  C   UNL     1       2.617   3.065  20.725  0.00  0.00    +0.000 A 
ATOM     13  C   UNL     1       2.214   4.404  20.830  0.00  0.00    +0.000 A 
ATOM     14  C   UNL     1       2.783   5.360  19.968  0.00  0.00    +0.000 A 
ATOM     15  C   UNL     1       2.229   6.632  19.732  0.00  0.00    +0.000 A 
ENDBRANCH   3   6
ENDBRANCH   1   2
BRANCH   1  17
ATOM     16  C   UNL     1      -1.649  11.801  19.285  0.00  0.00    +0.000 C 
ATOM     17  C   UNL     1      -0.935  10.492  18.933  0.00  0.00    +0.000 C 
ATOM     18  C   UNL     1      -1.423   9.998  17.569  0.00  0.00    +0.000 C 
ENDBRANCH   1  17
BRANCH   1  19
ATOM     19  C   UNL     1       1.108  11.515  20.182  0.00  0.00    +0.000 C 
BRANCH  19  20
ATOM     20  N   UNL     1       1.278  12.957  19.831  0.00  0.00    +0.000 NA
ATOM     21  C   UNL     1       1.872  13.716  20.946  0.00  0.00    +0.000 C 
ATOM     22  C   UNL     1       2.104  15.177  20.550  0.00  0.00    +0.000 C 
ATOM     23  C   UNL     1       3.138  15.278  19.430  0.00  0.00    +0.000 C 
ATOM     24  C   UNL     1       2.535  14.481  18.249  0.00  0.00    +0.000 C 
ATOM     25  C   UNL     1       2.135  13.053  18.628  0.00  0.00    +0.000 C 
BRANCH  23  26
ATOM     26  N   UNL     1       4.530  14.927  19.755  0.00  0.00    +0.000 N 
ATOM     27  C   UNL     1       5.539  14.888  18.744  0.00  0.00    +0.000 A 
ATOM     28  O   UNL     1       5.409  14.937  17.533  0.00  0.00    +0.000 OA
ATOM     29  N   UNL     1       6.774  14.833  19.391  0.00  0.00    +0.000 N 
ATOM     30  C   UNL     1       6.581  14.955  20.753  0.00  0.00    +0.000 A 
ATOM     31  C   UNL     1       7.556  15.059  21.727  0.00  0.00    +0.000 A 
ATOM     32  C   UNL     1       7.125  15.244  23.037  0.00  0.00    +0.000 A 
ATOM     33  C   UNL     1       5.754  15.298  23.328  0.00  0.00    +0.000 A 
ATOM     34  C   UNL     1       4.788  15.182  22.315  0.00  0.00    +0.000 A 
ATOM     35  C   UNL     1       5.208  15.025  21.007  0.00  0.00    +0.000 A 
ATOM     36  H   UNL     1       7.653  14.830  18.900  0.00  0.00    +0.000 HD
ENDBRANCH  23  26
ENDBRANCH  19  20
ENDBRANCH   1  19
TORSDOF 6
ENDMDL
MODEL 9
REMARK VINA RESULT:      -8.0      3.538      5.223
REMARK  Name = 
REMARK  8 active torsions:
REMARK  status: ('A' for Active; 'I' for Inactive)
REMARK    1  A    between atoms: C_1  and  C_2
REMARK    2  A    between atoms: C_2  and  C_3
REMARK    3  A    between atoms: C_2  and  C_4
REMARK    4  A    between atoms: C_4  and  C_5
REMARK    5  A    between atoms: C_4  and  N_22
REMARK    6  A    between atoms: C_5  and  N_6
REMARK    7  A    between atoms: C_9  and  N_10
REMARK    8  A    between atoms: C_23  and  C_25
REMARK                            x       y       z     vdW  Elec       q    Type
REMARK                         _______ _______ _______ _____ _____    ______ ____
ROOT
ATOM      1  C   UNL     1      -0.237  10.431  19.065  0.00  0.00    +0.000 C 
ENDROOT
BRANCH   1   2
ATOM      2  N   UNL     1       0.632   9.241  18.946  0.00  0.00    +0.000 N 
ATOM      3  C   UNL     1       1.788   9.246  18.174  0.00  0.00    +0.000 C 
ATOM      4  O   UNL     1       2.166  10.198  17.514  0.00  0.00    +0.000 OA
ATOM      5  H   UNL     1       0.568   8.609  19.693  0.00  0.00    +0.000 HD
BRANCH   3   6
ATOM      6  C   UNL     1       2.609   8.002  18.249  0.00  0.00    +0.000 A 
ATOM      7  C   UNL     1       2.414   7.167  19.353  0.00  0.00    +0.000 A 
ATOM      8  C   UNL     1       3.101   5.965  19.444  0.00  0.00    +0.000 A 
ATOM      9  C   UNL     1       4.091   5.670  18.510  0.00  0.00    +0.000 A 
ATOM     10  C   UNL     1       4.832   4.503  18.656  0.00  0.00    +0.000 A 
ATOM     11  C   UNL     1       6.174   4.551  18.339  0.00  0.00    +0.000 A 
ATOM     12  C   UNL     1       6.590   5.461  17.377  0.00  0.00    +0.000 A 
ATOM     13  C   UNL     1       5.682   6.396  16.861  0.00  0.00    +0.000 A 
ATOM     14  C   UNL     1       4.451   6.591  17.514  0.00  0.00    +0.000 A 
ATOM     15  C   UNL     1       3.626   7.713  17.316  0.00  0.00    +0.000 A 
ENDBRANCH   3   6
ENDBRANCH   1   2
BRANCH   1  17
ATOM     16  C   UNL     1      -2.525   9.784  18.063  0.00  0.00    +0.000 C 
ATOM     17  C   UNL     1      -1.211  10.544  17.852  0.00  0.00    +0.000 C 
ATOM     18  C   UNL     1      -1.519  11.990  17.455  0.00  0.00    +0.000 C 
ENDBRANCH   1  17
BRANCH   1  19
ATOM     19  C   UNL     1      -0.959  10.364  20.437  0.00  0.00    +0.000 C 
BRANCH  19  20
ATOM     20  N   UNL     1      -1.091  11.662  21.163  0.00  0.00    +0.000 NA
ATOM     21  C   UNL     1      -2.155  12.499  20.579  0.00  0.00    +0.000 C 
ATOM     22  C   UNL     1      -2.327  13.796  21.374  0.00  0.00    +0.000 C 
ATOM     23  C   UNL     1      -2.812  13.503  22.793  0.00  0.00    +0.000 C 
ATOM     24  C   UNL     1      -1.710  12.619  23.423  0.00  0.00    +0.000 C 
ATOM     25  C   UNL     1      -1.382  11.379  22.588  0.00  0.00    +0.000 C 
BRANCH  23  26
ATOM     26  N   UNL     1      -4.178  12.981  22.951  0.00  0.00    +0.000 N 
ATOM     27  C   UNL     1      -4.671  12.569  24.228  0.00  0.00    +0.000 A 
ATOM     28  O   UNL     1      -4.056  12.406  25.268  0.00  0.00    +0.000 OA
ATOM     29  N   UNL     1      -6.054  12.421  24.113  0.00  0.00    +0.000 N 
ATOM     30  C   UNL     1      -6.453  12.835  22.857  0.00  0.00    +0.000 A 
ATOM     31  C   UNL     1      -7.749  12.949  22.390  0.00  0.00    +0.000 A 
ATOM     32  C   UNL     1      -7.917  13.457  21.105  0.00  0.00    +0.000 A 
ATOM     33  C   UNL     1      -6.799  13.808  20.333  0.00  0.00    +0.000 A 
ATOM     34  C   UNL     1      -5.494  13.672  20.836  0.00  0.00    +0.000 A 
ATOM     35  C   UNL     1      -5.320  13.195  22.122  0.00  0.00    +0.000 A 
ATOM     36  H   UNL     1      -6.647  12.168  24.886  0.00  0.00    +0.000 HD
ENDBRANCH  23  26
ENDBRANCH  19  20
ENDBRANCH   1  19
TORSDOF 6
ENDMDL
