MODEL 1
REMARK VINA RESULT:      -7.3      0.000      0.000
REMARK  Name = 
REMARK  11 active torsions:
REMARK  status: ('A' for Active; 'I' for Inactive)
REMARK    1  A    between atoms: C_1  and  C_2
REMARK    2  A    between atoms: C_2  and  O_3
REMARK    3  A    between atoms: O_3  and  C_4
REMARK    4  A    between atoms: C_4  and  C_6
REMARK    5  A    between atoms: N_13  and  C_14
REMARK    6  A    between atoms: C_14  and  C_15
REMARK    7  A    between atoms: C_16  and  N_17
REMARK    8  A    between atoms: N_17  and  C_18
REMARK    9  A    between atoms: C_18  and  C_19
REMARK   10  A    between atoms: C_19  and  C_20
REMARK   11  A    between atoms: C_19  and  C_21
REMARK                            x       y       z     vdW  Elec       q    Type
REMARK                         _______ _______ _______ _____ _____    ______ ____
ROOT
ATOM      1  C   UNL     1       6.039   4.620  18.279  0.00  0.00    +0.000 A 
ATOM      2  C   UNL     1       5.446   4.917  19.510  0.00  0.00    +0.000 A 
ATOM      3  N   UNL     1       4.141   4.732  19.844  0.00  0.00    +0.000 NA
ATOM      4  C   UNL     1       3.427   4.228  18.822  0.00  0.00    +0.000 A 
ATOM      5  C   UNL     1       3.904   3.851  17.567  0.00  0.00    +0.000 A 
ATOM      6  C   UNL     1       2.747   3.369  16.909  0.00  0.00    +0.000 A 
ATOM      7  N   UNL     1       1.635   3.451  17.650  0.00  0.00    +0.000 NA
ATOM      8  N   UNL     1       2.081   3.983  18.811  0.00  0.00    +0.000 N 
ATOM      9  C   UNL     1       5.281   4.001  17.256  0.00  0.00    +0.000 A 
ENDROOT
BRANCH   1  10
ATOM     10  C   UNL     1       7.413   5.160  18.130  0.00  0.00    +0.000 C 
ATOM     11  O   UNL     1       8.300   4.998  18.953  0.00  0.00    +0.000 OA
BRANCH  10  12
ATOM     12  O   UNL     1       7.458   5.990  17.059  0.00  0.00    +0.000 OA
BRANCH  12  14
ATOM     13  C   UNL     1       7.956   8.283  17.754  0.00  0.00    +0.000 C 
ATOM     14  C   UNL     1       6.925   7.311  17.214  0.00  0.00    +0.000 C 
ENDBRANCH  12  14
ENDBRANCH  10  12
ENDBRANCH   1  10
BRANCH   8  15
ATOM     15  C   UNL     1       1.145   4.202  19.901  0.00  0.00    +0.000 C 
ATOM     16  C   UNL     1       1.175   3.099  20.945  0.00  0.00    +0.000 C 
ENDBRANCH   8  15
BRANCH   9  17
ATOM     17  N   UNL     1       5.750   3.583  16.017  0.00  0.00    +0.000 N 
ATOM     18  H   UNL     1       6.566   2.986  16.025  0.00  0.00    +0.000 HD
BRANCH  17  19
ATOM     19  C   UNL     1       5.511   4.309  14.773  0.00  0.00    +0.000 C 
BRANCH  19  20
ATOM     20  C   UNL     1       6.386   3.820  13.608  0.00  0.00    +0.000 C 
ATOM     21  C   UNL     1       5.573   3.417  12.377  0.00  0.00    +0.000 C 
ATOM     22  C   UNL     1       7.361   4.942  13.230  0.00  0.00    +0.000 C 
ENDBRANCH  19  20
ENDBRANCH  17  19
ENDBRANCH   9  17
TORSDOF 7
ENDMDL
MODEL 2
REMARK VINA RESULT:      -7.0      1.068      1.324
REMARK  Name = 
REMARK  11 active torsions:
REMARK  status: ('A' for Active; 'I' for Inactive)
REMARK    1  A    between atoms: C_1  and  C_2
REMARK    2  A    between atoms: C_2  and  O_3
REMARK    3  A    between atoms: O_3  and  C_4
REMARK    4  A    between atoms: C_4  and  C_6
REMARK    5  A    between atoms: N_13  and  C_14
REMARK    6  A    between atoms: C_14  and  C_15
REMARK    7  A    between atoms: C_16  and  N_17
REMARK    8  A    between atoms: N_17  and  C_18
REMARK    9  A    between atoms: C_18  and  C_19
REMARK   10  A    between atoms: C_19  and  C_20
REMARK   11  A    between atoms: C_19  and  C_21
REMARK                            x       y       z     vdW  Elec       q    Type
REMARK                         _______ _______ _______ _____ _____    ______ ____
ROOT
ATOM      1  C   UNL     1       6.317   5.356  17.717  0.00  0.00    +0.000 A 
ATOM      2  C   UNL     1       5.915   5.708  19.010  0.00  0.00    +0.000 A 
ATOM      3  N   UNL     1       4.920   5.129  19.733  0.00  0.00    +0.000 NA
ATOM      4  C   UNL     1       4.310   4.145  19.050  0.00  0.00    +0.000 A 
ATOM      5  C   UNL     1       4.640   3.671  17.781  0.00  0.00    +0.000 A 
ATOM      6  C   UNL     1       3.704   2.630  17.567  0.00  0.00    +0.000 A 
ATOM      7  N   UNL     1       2.843   2.466  18.580  0.00  0.00    +0.000 NA
ATOM      8  N   UNL     1       3.235   3.408  19.468  0.00  0.00    +0.000 N 
ATOM      9  C   UNL     1       5.717   4.253  17.062  0.00  0.00    +0.000 A 
ENDROOT
BRANCH   1  10
ATOM     10  C   UNL     1       7.254   6.323  17.096  0.00  0.00    +0.000 C 
ATOM     11  O   UNL     1       7.704   6.205  15.967  0.00  0.00    +0.000 OA
BRANCH  10  12
ATOM     12  O   UNL     1       7.658   7.223  18.026  0.00  0.00    +0.000 OA
BRANCH  12  14
ATOM     13  C   UNL     1       8.709   9.363  18.575  0.00  0.00    +0.000 C 
ATOM     14  C   UNL     1       7.840   8.581  17.609  0.00  0.00    +0.000 C 
ENDBRANCH  12  14
ENDBRANCH  10  12
ENDBRANCH   1  10
BRANCH   8  15
ATOM     15  C   UNL     1       2.540   3.523  20.739  0.00  0.00    +0.000 C 
ATOM     16  C   UNL     1       1.031   3.620  20.589  0.00  0.00    +0.000 C 
ENDBRANCH   8  15
BRANCH   9  17
ATOM     17  N   UNL     1       6.061   3.744  15.817  0.00  0.00    +0.000 N 
ATOM     18  H   UNL     1       6.964   3.292  15.751  0.00  0.00    +0.000 HD
BRANCH  17  19
ATOM     19  C   UNL     1       5.509   4.237  14.559  0.00  0.00    +0.000 C 
BRANCH  19  20
ATOM     20  C   UNL     1       6.222   3.672  13.321  0.00  0.00    +0.000 C 
ATOM     21  C   UNL     1       5.258   3.293  12.196  0.00  0.00    +0.000 C 
ATOM     22  C   UNL     1       7.213   4.725  12.810  0.00  0.00    +0.000 C 
ENDBRANCH  19  20
ENDBRANCH  17  19
ENDBRANCH   9  17
TORSDOF 7
ENDMDL
MODEL 3
REMARK VINA RESULT:      -6.9      3.532      6.270
REMARK  Name = 
REMARK  11 active torsions:
REMARK  status: ('A' for Active; 'I' for Inactive)
REMARK    1  A    between atoms: C_1  and  C_2
REMARK    2  A    between atoms: C_2  and  O_3
REMARK    3  A    between atoms: O_3  and  C_4
REMARK    4  A    between atoms: C_4  and  C_6
REMARK    5  A    between atoms: N_13  and  C_14
REMARK    6  A    between atoms: C_14  and  C_15
REMARK    7  A    between atoms: C_16  and  N_17
REMARK    8  A    between atoms: N_17  and  C_18
REMARK    9  A    between atoms: C_18  and  C_19
REMARK   10  A    between atoms: C_19  and  C_20
REMARK   11  A    between atoms: C_19  and  C_21
REMARK                            x       y       z     vdW  Elec       q    Type
REMARK                         _______ _______ _______ _____ _____    ______ ____
ROOT
ATOM      1  C   UNL     1       2.776   7.145  18.795  0.00  0.00    +0.000 A 
ATOM      2  C   UNL     1       3.485   7.510  17.646  0.00  0.00    +0.000 A 
ATOM      3  N   UNL     1       4.537   6.845  17.099  0.00  0.00    +0.000 NA
ATOM      4  C   UNL     1       4.866   5.753  17.812  0.00  0.00    +0.000 A 
ATOM      5  C   UNL     1       4.218   5.259  18.943  0.00  0.00    +0.000 A 
ATOM      6  C   UNL     1       4.957   4.094  19.261  0.00  0.00    +0.000 A 
ATOM      7  N   UNL     1       5.990   3.873  18.438  0.00  0.00    +0.000 NA
ATOM      8  N   UNL     1       5.912   4.905  17.567  0.00  0.00    +0.000 N 
ATOM      9  C   UNL     1       3.087   5.939  19.468  0.00  0.00    +0.000 A 
ENDROOT
BRANCH   1  10
ATOM     10  C   UNL     1       1.848   8.192  19.286  0.00  0.00    +0.000 C 
ATOM     11  O   UNL     1       1.427   8.246  20.431  0.00  0.00    +0.000 OA
BRANCH  10  12
ATOM     12  O   UNL     1       1.414   8.938  18.240  0.00  0.00    +0.000 OA
BRANCH  12  14
ATOM     13  C   UNL     1      -0.708  10.153  18.161  0.00  0.00    +0.000 C 
ATOM     14  C   UNL     1       0.763  10.181  18.529  0.00  0.00    +0.000 C 
ENDBRANCH  12  14
ENDBRANCH  10  12
ENDBRANCH   1  10
BRANCH   8  15
ATOM     15  C   UNL     1       6.872   4.995  16.480  0.00  0.00    +0.000 C 
ATOM     16  C   UNL     1       6.450   4.223  15.242  0.00  0.00    +0.000 C 
ENDBRANCH   8  15
BRANCH   9  17
ATOM     17  N   UNL     1       2.427   5.413  20.571  0.00  0.00    +0.000 N 
ATOM     18  H   UNL     1       3.007   5.146  21.356  0.00  0.00    +0.000 HD
BRANCH  17  19
ATOM     19  C   UNL     1       1.122   4.761  20.499  0.00  0.00    +0.000 C 
BRANCH  19  20
ATOM     20  C   UNL     1       1.199   3.233  20.644  0.00  0.00    +0.000 C 
ATOM     21  C   UNL     1       1.431   2.516  19.314  0.00  0.00    +0.000 C 
ATOM     22  C   UNL     1       2.342   2.895  21.611  0.00  0.00    +0.000 C 
ENDBRANCH  19  20
ENDBRANCH  17  19
ENDBRANCH   9  17
TORSDOF 7
ENDMDL
MODEL 4
REMARK VINA RESULT:      -6.8      1.420      1.834
REMARK  Name = 
REMARK  11 active torsions:
REMARK  status: ('A' for Active; 'I' for Inactive)
REMARK    1  A    between atoms: C_1  and  C_2
REMARK    2  A    between atoms: C_2  and  O_3
REMARK    3  A    between atoms: O_3  and  C_4
REMARK    4  A    between atoms: C_4  and  C_6
REMARK    5  A    between atoms: N_13  and  C_14
REMARK    6  A    between atoms: C_14  and  C_15
REMARK    7  A    between atoms: C_16  and  N_17
REMARK    8  A    between atoms: N_17  and  C_18
REMARK    9  A    between atoms: C_18  and  C_19
REMARK   10  A    between atoms: C_19  and  C_20
REMARK   11  A    between atoms: C_19  and  C_21
REMARK                            x       y       z     vdW  Elec       q    Type
REMARK                         _______ _______ _______ _____ _____    ______ ____
ROOT
ATOM      1  C   UNL     1       4.586   5.699  17.474  0.00  0.00    +0.000 A 
ATOM      2  C   UNL     1       3.753   6.131  18.512  0.00  0.00    +0.000 A 
ATOM      3  N   UNL     1       2.893   5.362  19.231  0.00  0.00    +0.000 NA
ATOM      4  C   UNL     1       2.901   4.081  18.820  0.00  0.00    +0.000 A 
ATOM      5  C   UNL     1       3.709   3.518  17.833  0.00  0.00    +0.000 A 
ATOM      6  C   UNL     1       3.324   2.156  17.834  0.00  0.00    +0.000 A 
ATOM      7  N   UNL     1       2.350   1.873  18.709  0.00  0.00    +0.000 NA
ATOM      8  N   UNL     1       2.110   3.069  19.293  0.00  0.00    +0.000 N 
ATOM      9  C   UNL     1       4.640   4.327  17.130  0.00  0.00    +0.000 A 
ENDROOT
BRANCH   1  10
ATOM     10  C   UNL     1       5.222   6.805  16.717  0.00  0.00    +0.000 C 
ATOM     11  O   UNL     1       5.016   7.025  15.533  0.00  0.00    +0.000 OA
BRANCH  10  12
ATOM     12  O   UNL     1       6.177   7.386  17.483  0.00  0.00    +0.000 OA
BRANCH  12  14
ATOM     13  C   UNL     1       7.802   6.151  18.833  0.00  0.00    +0.000 C 
ATOM     14  C   UNL     1       7.480   6.790  17.495  0.00  0.00    +0.000 C 
ENDBRANCH  12  14
ENDBRANCH  10  12
ENDBRANCH   1  10
BRANCH   8  15
ATOM     15  C   UNL     1       1.111   3.162  20.344  0.00  0.00    +0.000 C 
ATOM     16  C   UNL     1       1.625   2.708  21.700  0.00  0.00    +0.000 C 
ENDBRANCH   8  15
BRANCH   9  17
ATOM     17  N   UNL     1       5.467   3.745  16.179  0.00  0.00    +0.000 N 
ATOM     18  H   UNL     1       6.445   3.662  16.426  0.00  0.00    +0.000 HD
BRANCH  17  19
ATOM     19  C   UNL     1       5.174   3.731  14.749  0.00  0.00    +0.000 C 
BRANCH  19  20
ATOM     20  C   UNL     1       6.434   3.673  13.872  0.00  0.00    +0.000 C 
ATOM     21  C   UNL     1       6.123   3.486  12.387  0.00  0.00    +0.000 C 
ATOM     22  C   UNL     1       7.221   4.975  14.067  0.00  0.00    +0.000 C 
ENDBRANCH  19  20
ENDBRANCH  17  19
ENDBRANCH   9  17
TORSDOF 7
ENDMDL
MODEL 5
REMARK VINA RESULT:      -6.8      3.355      6.439
REMARK  Name = 
REMARK  11 active torsions:
REMARK  status: ('A' for Active; 'I' for Inactive)
REMARK    1  A    between atoms: C_1  and  C_2
REMARK    2  A    between atoms: C_2  and  O_3
REMARK    3  A    between atoms: O_3  and  C_4
REMARK    4  A    between atoms: C_4  and  C_6
REMARK    5  A    between atoms: N_13  and  C_14
REMARK    6  A    between atoms: C_14  and  C_15
REMARK    7  A    between atoms: C_16  and  N_17
REMARK    8  A    between atoms: N_17  and  C_18
REMARK    9  A    between atoms: C_18  and  C_19
REMARK   10  A    between atoms: C_19  and  C_20
REMARK   11  A    between atoms: C_19  and  C_21
REMARK                            x       y       z     vdW  Elec       q    Type
REMARK                         _______ _______ _______ _____ _____    ______ ____
ROOT
ATOM      1  C   UNL     1       2.768   7.246  18.557  0.00  0.00    +0.000 A 
ATOM      2  C   UNL     1       3.474   7.511  17.379  0.00  0.00    +0.000 A 
ATOM      3  N   UNL     1       4.565   6.842  16.922  0.00  0.00    +0.000 NA
ATOM      4  C   UNL     1       4.938   5.858  17.760  0.00  0.00    +0.000 A 
ATOM      5  C   UNL     1       4.300   5.466  18.935  0.00  0.00    +0.000 A 
ATOM      6  C   UNL     1       5.090   4.384  19.392  0.00  0.00    +0.000 A 
ATOM      7  N   UNL     1       6.145   4.122  18.609  0.00  0.00    +0.000 NA
ATOM      8  N   UNL     1       6.028   5.041  17.623  0.00  0.00    +0.000 N 
ATOM      9  C   UNL     1       3.129   6.143  19.369  0.00  0.00    +0.000 A 
ENDROOT
BRANCH   1  10
ATOM     10  C   UNL     1       1.783   8.294  18.916  0.00  0.00    +0.000 C 
ATOM     11  O   UNL     1       1.316   9.091  18.116  0.00  0.00    +0.000 OA
BRANCH  10  12
ATOM     12  O   UNL     1       1.639   8.339  20.263  0.00  0.00    +0.000 OA
BRANCH  12  14
ATOM     13  C   UNL     1      -0.242   8.659  21.795  0.00  0.00    +0.000 C 
ATOM     14  C   UNL     1       0.719   9.293  20.807  0.00  0.00    +0.000 C 
ENDBRANCH  12  14
ENDBRANCH  10  12
ENDBRANCH   1  10
BRANCH   8  15
ATOM     15  C   UNL     1       6.998   5.054  16.541  0.00  0.00    +0.000 C 
ATOM     16  C   UNL     1       6.558   4.244  15.333  0.00  0.00    +0.000 C 
ENDBRANCH   8  15
BRANCH   9  17
ATOM     17  N   UNL     1       2.480   5.715  20.519  0.00  0.00    +0.000 N 
ATOM     18  H   UNL     1       3.031   5.707  21.368  0.00  0.00    +0.000 HD
BRANCH  17  19
ATOM     19  C   UNL     1       1.317   4.833  20.513  0.00  0.00    +0.000 C 
BRANCH  19  20
ATOM     20  C   UNL     1       1.684   3.346  20.379  0.00  0.00    +0.000 C 
ATOM     21  C   UNL     1       1.497   2.563  21.678  0.00  0.00    +0.000 C 
ATOM     22  C   UNL     1       0.808   2.729  19.281  0.00  0.00    +0.000 C 
ENDBRANCH  19  20
ENDBRANCH  17  19
ENDBRANCH   9  17
TORSDOF 7
ENDMDL
MODEL 6
REMARK VINA RESULT:      -6.7      1.337      1.901
REMARK  Name = 
REMARK  11 active torsions:
REMARK  status: ('A' for Active; 'I' for Inactive)
REMARK    1  A    between atoms: C_1  and  C_2
REMARK    2  A    between atoms: C_2  and  O_3
REMARK    3  A    between atoms: O_3  and  C_4
REMARK    4  A    between atoms: C_4  and  C_6
REMARK    5  A    between atoms: N_13  and  C_14
REMARK    6  A    between atoms: C_14  and  C_15
REMARK    7  A    between atoms: C_16  and  N_17
REMARK    8  A    between atoms: N_17  and  C_18
REMARK    9  A    between atoms: C_18  and  C_19
REMARK   10  A    between atoms: C_19  and  C_20
REMARK   11  A    between atoms: C_19  and  C_21
REMARK                            x       y       z     vdW  Elec       q    Type
REMARK                         _______ _______ _______ _____ _____    ______ ____
ROOT
ATOM      1  C   UNL     1       4.918   5.657  17.238  0.00  0.00    +0.000 A 
ATOM      2  C   UNL     1       3.976   6.217  18.108  0.00  0.00    +0.000 A 
ATOM      3  N   UNL     1       3.069   5.541  18.861  0.00  0.00    +0.000 NA
ATOM      4  C   UNL     1       3.148   4.212  18.670  0.00  0.00    +0.000 A 
ATOM      5  C   UNL     1       4.063   3.529  17.869  0.00  0.00    +0.000 A 
ATOM      6  C   UNL     1       3.713   2.171  18.059  0.00  0.00    +0.000 A 
ATOM      7  N   UNL     1       2.665   1.994  18.874  0.00  0.00    +0.000 NA
ATOM      8  N   UNL     1       2.340   3.259  19.228  0.00  0.00    +0.000 N 
ATOM      9  C   UNL     1       5.039   4.250  17.132  0.00  0.00    +0.000 A 
ENDROOT
BRANCH   1  10
ATOM     10  C   UNL     1       5.598   6.650  16.371  0.00  0.00    +0.000 C 
ATOM     11  O   UNL     1       5.037   7.278  15.486  0.00  0.00    +0.000 OA
BRANCH  10  12
ATOM     12  O   UNL     1       6.934   6.602  16.592  0.00  0.00    +0.000 OA
BRANCH  12  14
ATOM     13  C   UNL     1       7.976   8.521  17.697  0.00  0.00    +0.000 C 
ATOM     14  C   UNL     1       7.425   7.114  17.836  0.00  0.00    +0.000 C 
ENDBRANCH  12  14
ENDBRANCH  10  12
ENDBRANCH   1  10
BRANCH   8  15
ATOM     15  C   UNL     1       1.240   3.480  20.152  0.00  0.00    +0.000 C 
ATOM     16  C   UNL     1       1.372   2.685  21.440  0.00  0.00    +0.000 C 
ENDBRANCH   8  15
BRANCH   9  17
ATOM     17  N   UNL     1       5.969   3.555  16.371  0.00  0.00    +0.000 N 
ATOM     18  H   UNL     1       6.943   3.723  16.591  0.00  0.00    +0.000 HD
BRANCH  17  19
ATOM     19  C   UNL     1       5.704   3.051  15.027  0.00  0.00    +0.000 C 
BRANCH  19  20
ATOM     20  C   UNL     1       5.804   4.134  13.941  0.00  0.00    +0.000 C 
ATOM     21  C   UNL     1       7.188   4.780  13.867  0.00  0.00    +0.000 C 
ATOM     22  C   UNL     1       5.467   3.495  12.588  0.00  0.00    +0.000 C 
ENDBRANCH  19  20
ENDBRANCH  17  19
ENDBRANCH   9  17
TORSDOF 7
ENDMDL
MODEL 7
REMARK VINA RESULT:      -6.7      3.351      6.493
REMARK  Name = 
REMARK  11 active torsions:
REMARK  status: ('A' for Active; 'I' for Inactive)
REMARK    1  A    between atoms: C_1  and  C_2
REMARK    2  A    between atoms: C_2  and  O_3
REMARK    3  A    between atoms: O_3  and  C_4
REMARK    4  A    between atoms: C_4  and  C_6
REMARK    5  A    between atoms: N_13  and  C_14
REMARK    6  A    between atoms: C_14  and  C_15
REMARK    7  A    between atoms: C_16  and  N_17
REMARK    8  A    between atoms: N_17  and  C_18
REMARK    9  A    between atoms: C_18  and  C_19
REMARK   10  A    between atoms: C_19  and  C_20
REMARK   11  A    between atoms: C_19  and  C_21
REMARK                            x       y       z     vdW  Elec       q    Type
REMARK                         _______ _______ _______ _____ _____    ______ ____
ROOT
ATOM      1  C   UNL     1       2.782   4.283  18.249  0.00  0.00    +0.000 A 
ATOM      2  C   UNL     1       3.489   3.249  17.625  0.00  0.00    +0.000 A 
ATOM      3  N   UNL     1       4.577   3.384  16.822  0.00  0.00    +0.000 NA
ATOM      4  C   UNL     1       4.922   4.673  16.655  0.00  0.00    +0.000 A 
ATOM      5  C   UNL     1       4.331   5.787  17.250  0.00  0.00    +0.000 A 
ATOM      6  C   UNL     1       5.097   6.868  16.752  0.00  0.00    +0.000 A 
ATOM      7  N   UNL     1       6.063   6.496  15.903  0.00  0.00    +0.000 NA
ATOM      8  N   UNL     1       5.929   5.151  15.860  0.00  0.00    +0.000 N 
ATOM      9  C   UNL     1       3.228   5.622  18.129  0.00  0.00    +0.000 A 
ENDROOT
BRANCH   1  10
ATOM     10  C   UNL     1       1.499   3.852  18.855  0.00  0.00    +0.000 C 
ATOM     11  O   UNL     1       0.688   3.134  18.291  0.00  0.00    +0.000 OA
BRANCH  10  12
ATOM     12  O   UNL     1       1.303   4.519  20.018  0.00  0.00    +0.000 OA
BRANCH  12  14
ATOM     13  C   UNL     1       1.637   2.699  21.620  0.00  0.00    +0.000 C 
ATOM     14  C   UNL     1       2.041   4.090  21.169  0.00  0.00    +0.000 C 
ENDBRANCH  12  14
ENDBRANCH  10  12
ENDBRANCH   1  10
BRANCH   8  15
ATOM     15  C   UNL     1       6.843   4.368  15.046  0.00  0.00    +0.000 C 
ATOM     16  C   UNL     1       6.241   3.933  13.720  0.00  0.00    +0.000 C 
ENDBRANCH   8  15
BRANCH   9  17
ATOM     17  N   UNL     1       2.676   6.736  18.747  0.00  0.00    +0.000 N 
ATOM     18  H   UNL     1       2.355   6.608  19.698  0.00  0.00    +0.000 HD
BRANCH  17  19
ATOM     19  C   UNL     1       2.072   7.849  18.021  0.00  0.00    +0.000 C 
BRANCH  19  20
ATOM     20  C   UNL     1       1.670   9.020  18.932  0.00  0.00    +0.000 C 
ATOM     21  C   UNL     1       0.482   9.817  18.392  0.00  0.00    +0.000 C 
ATOM     22  C   UNL     1       1.320   8.458  20.316  0.00  0.00    +0.000 C 
ENDBRANCH  19  20
ENDBRANCH  17  19
ENDBRANCH   9  17
TORSDOF 7
ENDMDL
MODEL 8
REMARK VINA RESULT:      -6.6      3.592      6.494
REMARK  Name = 
REMARK  11 active torsions:
REMARK  status: ('A' for Active; 'I' for Inactive)
REMARK    1  A    between atoms: C_1  and  C_2
REMARK    2  A    between atoms: C_2  and  O_3
REMARK    3  A    between atoms: O_3  and  C_4
REMARK    4  A    between atoms: C_4  and  C_6
REMARK    5  A    between atoms: N_13  and  C_14
REMARK    6  A    between atoms: C_14  and  C_15
REMARK    7  A    between atoms: C_16  and  N_17
REMARK    8  A    between atoms: N_17  and  C_18
REMARK    9  A    between atoms: C_18  and  C_19
REMARK   10  A    between atoms: C_19  and  C_20
REMARK   11  A    between atoms: C_19  and  C_21
REMARK                            x       y       z     vdW  Elec       q    Type
REMARK                         _______ _______ _______ _____ _____    ______ ____
ROOT
ATOM      1  C   UNL     1       2.368   7.374  19.108  0.00  0.00    +0.000 A 
ATOM      2  C   UNL     1       2.949   7.913  17.955  0.00  0.00    +0.000 A 
ATOM      3  N   UNL     1       3.940   7.353  17.211  0.00  0.00    +0.000 NA
ATOM      4  C   UNL     1       4.348   6.178  17.722  0.00  0.00    +0.000 A 
ATOM      5  C   UNL     1       3.827   5.516  18.833  0.00  0.00    +0.000 A 
ATOM      6  C   UNL     1       4.601   4.332  18.901  0.00  0.00    +0.000 A 
ATOM      7  N   UNL     1       5.541   4.251  17.951  0.00  0.00    +0.000 NA
ATOM      8  N   UNL     1       5.365   5.394  17.249  0.00  0.00    +0.000 N 
ATOM      9  C   UNL     1       2.755   6.091  19.565  0.00  0.00    +0.000 A 
ENDROOT
BRANCH   1  10
ATOM     10  C   UNL     1       1.493   8.323  19.838  0.00  0.00    +0.000 C 
ATOM     11  O   UNL     1       0.967   9.297  19.323  0.00  0.00    +0.000 OA
BRANCH  10  12
ATOM     12  O   UNL     1       1.530   8.043  21.164  0.00  0.00    +0.000 OA
BRANCH  12  14
ATOM     13  C   UNL     1      -0.277   9.038  22.481  0.00  0.00    +0.000 C 
ATOM     14  C   UNL     1       1.185   9.090  22.078  0.00  0.00    +0.000 C 
ENDBRANCH  12  14
ENDBRANCH  10  12
ENDBRANCH   1  10
BRANCH   8  15
ATOM     15  C   UNL     1       6.204   5.657  16.093  0.00  0.00    +0.000 C 
ATOM     16  C   UNL     1       6.781   4.395  15.472  0.00  0.00    +0.000 C 
ENDBRANCH   8  15
BRANCH   9  17
ATOM     17  N   UNL     1       2.218   5.401  20.644  0.00  0.00    +0.000 N 
ATOM     18  H   UNL     1       2.871   5.111  21.360  0.00  0.00    +0.000 HD
BRANCH  17  19
ATOM     19  C   UNL     1       0.971   4.645  20.583  0.00  0.00    +0.000 C 
BRANCH  19  20
ATOM     20  C   UNL     1       1.179   3.124  20.659  0.00  0.00    +0.000 C 
ATOM     21  C   UNL     1       1.463   2.491  19.297  0.00  0.00    +0.000 C 
ATOM     22  C   UNL     1       2.352   2.843  21.607  0.00  0.00    +0.000 C 
ENDBRANCH  19  20
ENDBRANCH  17  19
ENDBRANCH   9  17
TORSDOF 7
ENDMDL
MODEL 9
REMARK VINA RESULT:      -6.6      1.167      1.540
REMARK  Name = 
REMARK  11 active torsions:
REMARK  status: ('A' for Active; 'I' for Inactive)
REMARK    1  A    between atoms: C_1  and  C_2
REMARK    2  A    between atoms: C_2  and  O_3
REMARK    3  A    between atoms: O_3  and  C_4
REMARK    4  A    between atoms: C_4  and  C_6
REMARK    5  A    between atoms: N_13  and  C_14
REMARK    6  A    between atoms: C_14  and  C_15
REMARK    7  A    between atoms: C_16  and  N_17
REMARK    8  A    between atoms: N_17  and  C_18
REMARK    9  A    between atoms: C_18  and  C_19
REMARK   10  A    between atoms: C_19  and  C_20
REMARK   11  A    between atoms: C_19  and  C_21
REMARK                            x       y       z     vdW  Elec       q    Type
REMARK                         _______ _______ _______ _____ _____    ______ ____
ROOT
ATOM      1  C   UNL     1       5.962   5.226  17.384  0.00  0.00    +0.000 A 
ATOM      2  C   UNL     1       5.917   5.087  18.775  0.00  0.00    +0.000 A 
ATOM      3  N   UNL     1       5.006   4.372  19.487  0.00  0.00    +0.000 NA
ATOM      4  C   UNL     1       4.089   3.794  18.692  0.00  0.00    +0.000 A 
ATOM      5  C   UNL     1       4.046   3.819  17.299  0.00  0.00    +0.000 A 
ATOM      6  C   UNL     1       2.906   3.037  16.992  0.00  0.00    +0.000 A 
ATOM      7  N   UNL     1       2.263   2.579  18.074  0.00  0.00    +0.000 NA
ATOM      8  N   UNL     1       3.007   3.060  19.097  0.00  0.00    +0.000 N 
ATOM      9  C   UNL     1       5.038   4.526  16.570  0.00  0.00    +0.000 A 
ENDROOT
BRANCH   1  10
ATOM     10  C   UNL     1       6.913   6.263  16.915  0.00  0.00    +0.000 C 
ATOM     11  O   UNL     1       7.662   6.117  15.962  0.00  0.00    +0.000 OA
BRANCH  10  12
ATOM     12  O   UNL     1       6.942   7.285  17.805  0.00  0.00    +0.000 OA
BRANCH  12  14
ATOM     13  C   UNL     1       8.212   9.371  17.965  0.00  0.00    +0.000 C 
ATOM     14  C   UNL     1       8.215   7.862  18.120  0.00  0.00    +0.000 C 
ENDBRANCH  12  14
ENDBRANCH  10  12
ENDBRANCH   1  10
BRANCH   8  15
ATOM     15  C   UNL     1       2.631   2.740  20.463  0.00  0.00    +0.000 C 
ATOM     16  C   UNL     1       1.244   3.238  20.835  0.00  0.00    +0.000 C 
ENDBRANCH   8  15
BRANCH   9  17
ATOM     17  N   UNL     1       5.007   4.509  15.182  0.00  0.00    +0.000 N 
ATOM     18  H   UNL     1       4.119   4.731  14.750  0.00  0.00    +0.000 HD
BRANCH  17  19
ATOM     19  C   UNL     1       5.932   3.733  14.360  0.00  0.00    +0.000 C 
BRANCH  19  20
ATOM     20  C   UNL     1       5.897   4.124  12.874  0.00  0.00    +0.000 C 
ATOM     21  C   UNL     1       7.278   4.114  12.219  0.00  0.00    +0.000 C 
ATOM     22  C   UNL     1       4.976   3.143  12.137  0.00  0.00    +0.000 C 
ENDBRANCH  19  20
ENDBRANCH  17  19
ENDBRANCH   9  17
TORSDOF 7
ENDMDL
