MODEL 1
REMARK VINA RESULT:      -6.2      0.000      0.000
REMARK  Name = 
REMARK  4 active torsions:
REMARK  status: ('A' for Active; 'I' for Inactive)
REMARK    1  A    between atoms: N_1  and  C_2
REMARK    2  A    between atoms: C_7  and  C_8
REMARK    3  A    between atoms: C_8  and  O_10
REMARK    4  A    between atoms: C_12  and  O_13
REMARK                            x       y       z     vdW  Elec       q    Type
REMARK                         _______ _______ _______ _____ _____    ______ ____
ROOT
ATOM      1  C   UNL     1       3.076   4.038  17.955  0.00  0.00    +0.000 A 
ATOM      2  C   UNL     1       2.628   4.531  19.177  0.00  0.00    +0.000 A 
ATOM      3  C   UNL     1       3.524   5.176  20.000  0.00  0.00    +0.000 A 
ATOM      4  N   UNL     1       4.816   5.396  19.675  0.00  0.00    +0.000 NA
ATOM      5  C   UNL     1       5.268   4.972  18.469  0.00  0.00    +0.000 A 
ATOM      6  C   UNL     1       6.597   5.213  18.086  0.00  0.00    +0.000 A 
ATOM      7  C   UNL     1       7.096   4.780  16.845  0.00  0.00    +0.000 A 
ATOM      8  C   UNL     1       6.261   4.109  15.975  0.00  0.00    +0.000 A 
ATOM      9  C   UNL     1       4.940   3.869  16.316  0.00  0.00    +0.000 A 
ATOM     10  C   UNL     1       4.418   4.286  17.562  0.00  0.00    +0.000 A 
ENDROOT
BRANCH   1  11
ATOM     11  N   UNL     1       2.113   3.520  17.067  0.00  0.00    +0.000 N 
ATOM     12  H   UNL     1       2.058   2.506  17.048  0.00  0.00    +0.000 HD
ATOM     13  H   UNL     1       2.132   3.907  16.131  0.00  0.00    +0.000 HD
ENDBRANCH   1  11
BRANCH   6  14
ATOM     14  C   UNL     1       7.566   5.944  18.958  0.00  0.00    +0.000 C 
ATOM     15  O   UNL     1       8.142   6.954  18.575  0.00  0.00    +0.000 OA
BRANCH  14  16
ATOM     16  O   UNL     1       7.770   5.434  20.190  0.00  0.00    +0.000 OA
ATOM     17  H   UNL     1       8.165   6.096  20.808  0.00  0.00    +0.000 HD
ENDBRANCH  14  16
ENDBRANCH   6  14
BRANCH   8  18
ATOM     18  O   UNL     1       6.698   3.659  14.766  0.00  0.00    +0.000 OA
ATOM     19  H   UNL     1       6.313   2.783  14.590  0.00  0.00    +0.000 HD
ENDBRANCH   8  18
TORSDOF 4
ENDMDL
MODEL 2
REMARK VINA RESULT:      -6.1      3.065      4.236
REMARK  Name = 
REMARK  4 active torsions:
REMARK  status: ('A' for Active; 'I' for Inactive)
REMARK    1  A    between atoms: N_1  and  C_2
REMARK    2  A    between atoms: C_7  and  C_8
REMARK    3  A    between atoms: C_8  and  O_10
REMARK    4  A    between atoms: C_12  and  O_13
REMARK                            x       y       z     vdW  Elec       q    Type
REMARK                         _______ _______ _______ _____ _____    ______ ____
ROOT
ATOM      1  C   UNL     1       5.419   6.003  17.144  0.00  0.00    +0.000 A 
ATOM      2  C   UNL     1       6.719   5.983  17.641  0.00  0.00    +0.000 A 
ATOM      3  C   UNL     1       7.016   5.136  18.686  0.00  0.00    +0.000 A 
ATOM      4  N   UNL     1       6.123   4.287  19.240  0.00  0.00    +0.000 NA
ATOM      5  C   UNL     1       4.862   4.249  18.742  0.00  0.00    +0.000 A 
ATOM      6  C   UNL     1       3.919   3.355  19.273  0.00  0.00    +0.000 A 
ATOM      7  C   UNL     1       2.602   3.297  18.783  0.00  0.00    +0.000 A 
ATOM      8  C   UNL     1       2.226   4.130  17.749  0.00  0.00    +0.000 A 
ATOM      9  C   UNL     1       3.138   5.012  17.193  0.00  0.00    +0.000 A 
ATOM     10  C   UNL     1       4.464   5.096  17.675  0.00  0.00    +0.000 A 
ENDROOT
BRANCH   1  11
ATOM     11  N   UNL     1       5.176   6.760  15.981  0.00  0.00    +0.000 N 
ATOM     12  H   UNL     1       5.055   7.756  16.143  0.00  0.00    +0.000 HD
ATOM     13  H   UNL     1       4.456   6.395  15.367  0.00  0.00    +0.000 HD
ENDBRANCH   1  11
BRANCH   6  14
ATOM     14  C   UNL     1       4.243   2.408  20.382  0.00  0.00    +0.000 C 
ATOM     15  O   UNL     1       3.581   2.369  21.411  0.00  0.00    +0.000 OA
BRANCH  14  16
ATOM     16  O   UNL     1       5.302   1.595  20.189  0.00  0.00    +0.000 OA
ATOM     17  H   UNL     1       5.588   1.572  19.243  0.00  0.00    +0.000 HD
ENDBRANCH  14  16
ENDBRANCH   6  14
BRANCH   8  18
ATOM     18  O   UNL     1       0.960   4.120  17.246  0.00  0.00    +0.000 OA
ATOM     19  H   UNL     1       0.426   4.792  17.706  0.00  0.00    +0.000 HD
ENDBRANCH   8  18
TORSDOF 4
ENDMDL
MODEL 3
REMARK VINA RESULT:      -6.1      1.145      3.410
REMARK  Name = 
REMARK  4 active torsions:
REMARK  status: ('A' for Active; 'I' for Inactive)
REMARK    1  A    between atoms: N_1  and  C_2
REMARK    2  A    between atoms: C_7  and  C_8
REMARK    3  A    between atoms: C_8  and  O_10
REMARK    4  A    between atoms: C_12  and  O_13
REMARK                            x       y       z     vdW  Elec       q    Type
REMARK                         _______ _______ _______ _____ _____    ______ ____
ROOT
ATOM      1  C   UNL     1       3.611   4.649  19.142  0.00  0.00    +0.000 A 
ATOM      2  C   UNL     1       2.636   4.111  18.308  0.00  0.00    +0.000 A 
ATOM      3  C   UNL     1       2.952   3.865  16.990  0.00  0.00    +0.000 A 
ATOM      4  N   UNL     1       4.175   4.083  16.461  0.00  0.00    +0.000 NA
ATOM      5  C   UNL     1       5.159   4.559  17.262  0.00  0.00    +0.000 A 
ATOM      6  C   UNL     1       6.450   4.766  16.751  0.00  0.00    +0.000 A 
ATOM      7  C   UNL     1       7.490   5.265  17.556  0.00  0.00    +0.000 A 
ATOM      8  C   UNL     1       7.243   5.552  18.883  0.00  0.00    +0.000 A 
ATOM      9  C   UNL     1       5.983   5.344  19.422  0.00  0.00    +0.000 A 
ATOM     10  C   UNL     1       4.920   4.853  18.630  0.00  0.00    +0.000 A 
ENDROOT
BRANCH   1  11
ATOM     11  N   UNL     1       3.314   4.747  20.517  0.00  0.00    +0.000 N 
ATOM     12  H   UNL     1       3.893   4.166  21.116  0.00  0.00    +0.000 HD
ATOM     13  H   UNL     1       2.333   4.665  20.756  0.00  0.00    +0.000 HD
ENDBRANCH   1  11
BRANCH   6  14
ATOM     14  C   UNL     1       6.811   4.469  15.332  0.00  0.00    +0.000 C 
ATOM     15  O   UNL     1       7.533   5.212  14.681  0.00  0.00    +0.000 OA
BRANCH  14  16
ATOM     16  O   UNL     1       6.302   3.336  14.806  0.00  0.00    +0.000 OA
ATOM     17  H   UNL     1       6.012   3.456  13.869  0.00  0.00    +0.000 HD
ENDBRANCH  14  16
ENDBRANCH   6  14
BRANCH   8  18
ATOM     18  O   UNL     1       8.212   6.047  19.702  0.00  0.00    +0.000 OA
ATOM     19  H   UNL     1       7.924   6.905  20.059  0.00  0.00    +0.000 HD
ENDBRANCH   8  18
TORSDOF 4
ENDMDL
MODEL 4
REMARK VINA RESULT:      -6.1      0.918      1.019
REMARK  Name = 
REMARK  4 active torsions:
REMARK  status: ('A' for Active; 'I' for Inactive)
REMARK    1  A    between atoms: N_1  and  C_2
REMARK    2  A    between atoms: C_7  and  C_8
REMARK    3  A    between atoms: C_8  and  O_10
REMARK    4  A    between atoms: C_12  and  O_13
REMARK                            x       y       z     vdW  Elec       q    Type
REMARK                         _______ _______ _______ _____ _____    ______ ____
ROOT
ATOM      1  C   UNL     1       3.503   3.726  17.913  0.00  0.00    +0.000 A 
ATOM      2  C   UNL     1       3.166   4.338  19.116  0.00  0.00    +0.000 A 
ATOM      3  C   UNL     1       3.998   5.315  19.618  0.00  0.00    +0.000 A 
ATOM      4  N   UNL     1       5.113   5.746  18.989  0.00  0.00    +0.000 NA
ATOM      5  C   UNL     1       5.438   5.202  17.790  0.00  0.00    +0.000 A 
ATOM      6  C   UNL     1       6.571   5.651  17.095  0.00  0.00    +0.000 A 
ATOM      7  C   UNL     1       6.938   5.103  15.853  0.00  0.00    +0.000 A 
ATOM      8  C   UNL     1       6.163   4.106  15.296  0.00  0.00    +0.000 A 
ATOM      9  C   UNL     1       5.029   3.653  15.950  0.00  0.00    +0.000 A 
ATOM     10  C   UNL     1       4.646   4.181  17.204  0.00  0.00    +0.000 A 
ENDROOT
BRANCH   1  11
ATOM     11  N   UNL     1       2.563   2.843  17.343  0.00  0.00    +0.000 N 
ATOM     12  H   UNL     1       2.959   2.160  16.704  0.00  0.00    +0.000 HD
ATOM     13  H   UNL     1       1.737   3.281  16.952  0.00  0.00    +0.000 HD
ENDBRANCH   1  11
BRANCH   6  14
ATOM     14  C   UNL     1       7.459   6.734  17.615  0.00  0.00    +0.000 C 
ATOM     15  O   UNL     1       7.667   7.759  16.979  0.00  0.00    +0.000 OA
BRANCH  14  16
ATOM     16  O   UNL     1       8.018   6.524  18.825  0.00  0.00    +0.000 OA
ATOM     17  H   UNL     1       7.607   5.760  19.299  0.00  0.00    +0.000 HD
ENDBRANCH  14  16
ENDBRANCH   6  14
BRANCH   8  18
ATOM     18  O   UNL     1       6.481   3.534  14.101  0.00  0.00    +0.000 OA
ATOM     19  H   UNL     1       6.145   2.621  14.082  0.00  0.00    +0.000 HD
ENDBRANCH   8  18
TORSDOF 4
ENDMDL
MODEL 5
REMARK VINA RESULT:      -6.1      2.394      3.759
REMARK  Name = 
REMARK  4 active torsions:
REMARK  status: ('A' for Active; 'I' for Inactive)
REMARK    1  A    between atoms: N_1  and  C_2
REMARK    2  A    between atoms: C_7  and  C_8
REMARK    3  A    between atoms: C_8  and  O_10
REMARK    4  A    between atoms: C_12  and  O_13
REMARK                            x       y       z     vdW  Elec       q    Type
REMARK                         _______ _______ _______ _____ _____    ______ ____
ROOT
ATOM      1  C   UNL     1       1.753   3.421  19.121  0.00  0.00    +0.000 A 
ATOM      2  C   UNL     1       2.170   2.114  18.887  0.00  0.00    +0.000 A 
ATOM      3  C   UNL     1       3.258   1.902  18.069  0.00  0.00    +0.000 A 
ATOM      4  N   UNL     1       3.976   2.897  17.504  0.00  0.00    +0.000 NA
ATOM      5  C   UNL     1       3.623   4.181  17.756  0.00  0.00    +0.000 A 
ATOM      6  C   UNL     1       4.368   5.239  17.211  0.00  0.00    +0.000 A 
ATOM      7  C   UNL     1       4.024   6.581  17.448  0.00  0.00    +0.000 A 
ATOM      8  C   UNL     1       2.933   6.872  18.243  0.00  0.00    +0.000 A 
ATOM      9  C   UNL     1       2.187   5.851  18.809  0.00  0.00    +0.000 A 
ATOM     10  C   UNL     1       2.508   4.493  18.576  0.00  0.00    +0.000 A 
ENDROOT
BRANCH   1  11
ATOM     11  N   UNL     1       0.739   3.622  20.079  0.00  0.00    +0.000 N 
ATOM     12  H   UNL     1       1.068   3.960  20.978  0.00  0.00    +0.000 HD
ATOM     13  H   UNL     1       0.087   2.854  20.188  0.00  0.00    +0.000 HD
ENDBRANCH   1  11
BRANCH   6  14
ATOM     14  C   UNL     1       5.570   5.018  16.352  0.00  0.00    +0.000 C 
ATOM     15  O   UNL     1       5.782   5.693  15.353  0.00  0.00    +0.000 OA
BRANCH  14  16
ATOM     16  O   UNL     1       6.413   4.037  16.737  0.00  0.00    +0.000 OA
ATOM     17  H   UNL     1       6.033   3.481  17.461  0.00  0.00    +0.000 HD
ENDBRANCH  14  16
ENDBRANCH   6  14
BRANCH   8  18
ATOM     18  O   UNL     1       2.551   8.154  18.495  0.00  0.00    +0.000 OA
ATOM     19  H   UNL     1       1.813   8.392  17.907  0.00  0.00    +0.000 HD
ENDBRANCH   8  18
TORSDOF 4
ENDMDL
MODEL 6
REMARK VINA RESULT:      -6.0      3.746      5.505
REMARK  Name = 
REMARK  4 active torsions:
REMARK  status: ('A' for Active; 'I' for Inactive)
REMARK    1  A    between atoms: N_1  and  C_2
REMARK    2  A    between atoms: C_7  and  C_8
REMARK    3  A    between atoms: C_8  and  O_10
REMARK    4  A    between atoms: C_12  and  O_13
REMARK                            x       y       z     vdW  Elec       q    Type
REMARK                         _______ _______ _______ _____ _____    ______ ____
ROOT
ATOM      1  C   UNL     1       4.186   5.429  17.421  0.00  0.00    +0.000 A 
ATOM      2  C   UNL     1       4.446   4.168  16.893  0.00  0.00    +0.000 A 
ATOM      3  C   UNL     1       3.914   3.063  17.520  0.00  0.00    +0.000 A 
ATOM      4  N   UNL     1       3.116   3.132  18.608  0.00  0.00    +0.000 NA
ATOM      5  C   UNL     1       2.804   4.351  19.114  0.00  0.00    +0.000 A 
ATOM      6  C   UNL     1       1.951   4.458  20.223  0.00  0.00    +0.000 A 
ATOM      7  C   UNL     1       1.615   5.708  20.775  0.00  0.00    +0.000 A 
ATOM      8  C   UNL     1       2.127   6.859  20.210  0.00  0.00    +0.000 A 
ATOM      9  C   UNL     1       2.958   6.787  19.105  0.00  0.00    +0.000 A 
ATOM     10  C   UNL     1       3.319   5.542  18.539  0.00  0.00    +0.000 A 
ENDROOT
BRANCH   1  11
ATOM     11  N   UNL     1       4.611   6.549  16.678  0.00  0.00    +0.000 N 
ATOM     12  H   UNL     1       3.857   7.118  16.305  0.00  0.00    +0.000 HD
ATOM     13  H   UNL     1       5.317   6.361  15.975  0.00  0.00    +0.000 HD
ENDBRANCH   1  11
BRANCH   6  14
ATOM     14  C   UNL     1       1.341   3.268  20.889  0.00  0.00    +0.000 C 
ATOM     15  O   UNL     1       1.702   2.892  21.995  0.00  0.00    +0.000 OA
BRANCH  14  16
ATOM     16  O   UNL     1       0.367   2.631  20.205  0.00  0.00    +0.000 OA
ATOM     17  H   UNL     1       0.632   2.434  19.274  0.00  0.00    +0.000 HD
ENDBRANCH  14  16
ENDBRANCH   6  14
BRANCH   8  18
ATOM     18  O   UNL     1       1.841   8.092  20.713  0.00  0.00    +0.000 OA
ATOM     19  H   UNL     1       1.089   8.022  21.328  0.00  0.00    +0.000 HD
ENDBRANCH   8  18
TORSDOF 4
ENDMDL
MODEL 7
REMARK VINA RESULT:      -6.0      2.485      3.477
REMARK  Name = 
REMARK  4 active torsions:
REMARK  status: ('A' for Active; 'I' for Inactive)
REMARK    1  A    between atoms: N_1  and  C_2
REMARK    2  A    between atoms: C_7  and  C_8
REMARK    3  A    between atoms: C_8  and  O_10
REMARK    4  A    between atoms: C_12  and  O_13
REMARK                            x       y       z     vdW  Elec       q    Type
REMARK                         _______ _______ _______ _____ _____    ______ ____
ROOT
ATOM      1  C   UNL     1       2.499   6.585  19.656  0.00  0.00    +0.000 A 
ATOM      2  C   UNL     1       2.130   7.780  19.045  0.00  0.00    +0.000 A 
ATOM      3  C   UNL     1       2.834   8.204  17.939  0.00  0.00    +0.000 A 
ATOM      4  N   UNL     1       3.848   7.506  17.384  0.00  0.00    +0.000 NA
ATOM      5  C   UNL     1       4.196   6.314  17.929  0.00  0.00    +0.000 A 
ATOM      6  C   UNL     1       5.224   5.549  17.357  0.00  0.00    +0.000 A 
ATOM      7  C   UNL     1       5.612   4.312  17.902  0.00  0.00    +0.000 A 
ATOM      8  C   UNL     1       4.964   3.831  19.023  0.00  0.00    +0.000 A 
ATOM      9  C   UNL     1       3.935   4.555  19.601  0.00  0.00    +0.000 A 
ATOM     10  C   UNL     1       3.534   5.806  19.077  0.00  0.00    +0.000 A 
ENDROOT
BRANCH   1  11
ATOM     11  N   UNL     1       1.671   6.096  20.687  0.00  0.00    +0.000 N 
ATOM     12  H   UNL     1       2.001   5.240  21.122  0.00  0.00    +0.000 HD
ATOM     13  H   UNL     1       0.685   6.042  20.463  0.00  0.00    +0.000 HD
ENDBRANCH   1  11
BRANCH   6  14
ATOM     14  C   UNL     1       5.969   5.984  16.137  0.00  0.00    +0.000 C 
ATOM     15  O   UNL     1       7.187   5.891  16.058  0.00  0.00    +0.000 OA
BRANCH  14  16
ATOM     16  O   UNL     1       5.228   6.482  15.126  0.00  0.00    +0.000 OA
ATOM     17  H   UNL     1       4.419   6.948  15.450  0.00  0.00    +0.000 HD
ENDBRANCH  14  16
ENDBRANCH   6  14
BRANCH   8  18
ATOM     18  O   UNL     1       5.309   2.645  19.596  0.00  0.00    +0.000 OA
ATOM     19  H   UNL     1       6.155   2.341  19.223  0.00  0.00    +0.000 HD
ENDBRANCH   8  18
TORSDOF 4
ENDMDL
MODEL 8
REMARK VINA RESULT:      -6.0      3.100      3.828
REMARK  Name = 
REMARK  4 active torsions:
REMARK  status: ('A' for Active; 'I' for Inactive)
REMARK    1  A    between atoms: N_1  and  C_2
REMARK    2  A    between atoms: C_7  and  C_8
REMARK    3  A    between atoms: C_8  and  O_10
REMARK    4  A    between atoms: C_12  and  O_13
REMARK                            x       y       z     vdW  Elec       q    Type
REMARK                         _______ _______ _______ _____ _____    ______ ____
ROOT
ATOM      1  C   UNL     1       2.576   2.641  18.996  0.00  0.00    +0.000 A 
ATOM      2  C   UNL     1       1.657   2.431  20.021  0.00  0.00    +0.000 A 
ATOM      3  C   UNL     1       1.159   3.522  20.699  0.00  0.00    +0.000 A 
ATOM      4  N   UNL     1       1.483   4.799  20.403  0.00  0.00    +0.000 NA
ATOM      5  C   UNL     1       2.337   5.036  19.377  0.00  0.00    +0.000 A 
ATOM      6  C   UNL     1       2.668   6.353  19.023  0.00  0.00    +0.000 A 
ATOM      7  C   UNL     1       3.556   6.631  17.968  0.00  0.00    +0.000 A 
ATOM      8  C   UNL     1       4.110   5.587  17.255  0.00  0.00    +0.000 A 
ATOM      9  C   UNL     1       3.790   4.277  17.569  0.00  0.00    +0.000 A 
ATOM     10  C   UNL     1       2.909   3.972  18.632  0.00  0.00    +0.000 A 
ENDROOT
BRANCH   1  11
ATOM     11  N   UNL     1       2.953   1.528  18.219  0.00  0.00    +0.000 N 
ATOM     12  H   UNL     1       3.845   1.629  17.743  0.00  0.00    +0.000 HD
ATOM     13  H   UNL     1       2.239   1.171  17.595  0.00  0.00    +0.000 HD
ENDBRANCH   1  11
BRANCH   6  14
ATOM     14  C   UNL     1       2.105   7.543  19.730  0.00  0.00    +0.000 C 
ATOM     15  O   UNL     1       1.733   8.538  19.121  0.00  0.00    +0.000 OA
BRANCH  14  16
ATOM     16  O   UNL     1       2.027   7.463  21.074  0.00  0.00    +0.000 OA
ATOM     17  H   UNL     1       1.283   8.001  21.438  0.00  0.00    +0.000 HD
ENDBRANCH  14  16
ENDBRANCH   6  14
BRANCH   8  18
ATOM     18  O   UNL     1       4.983   5.803  16.232  0.00  0.00    +0.000 OA
ATOM     19  H   UNL     1       4.506   5.747  15.385  0.00  0.00    +0.000 HD
ENDBRANCH   8  18
TORSDOF 4
ENDMDL
MODEL 9
REMARK VINA RESULT:      -6.0      2.860      3.891
REMARK  Name = 
REMARK  4 active torsions:
REMARK  status: ('A' for Active; 'I' for Inactive)
REMARK    1  A    between atoms: N_1  and  C_2
REMARK    2  A    between atoms: C_7  and  C_8
REMARK    3  A    between atoms: C_8  and  O_10
REMARK    4  A    between atoms: C_12  and  O_13
REMARK                            x       y       z     vdW  Elec       q    Type
REMARK                         _______ _______ _______ _____ _____    ______ ____
ROOT
ATOM      1  C   UNL     1       3.087   1.955  18.790  0.00  0.00    +0.000 A 
ATOM      2  C   UNL     1       1.705   1.792  18.819  0.00  0.00    +0.000 A 
ATOM      3  C   UNL     1       0.914   2.886  19.090  0.00  0.00    +0.000 A 
ATOM      4  N   UNL     1       1.400   4.129  19.296  0.00  0.00    +0.000 NA
ATOM      5  C   UNL     1       2.739   4.328  19.225  0.00  0.00    +0.000 A 
ATOM      6  C   UNL     1       3.274   5.613  19.401  0.00  0.00    +0.000 A 
ATOM      7  C   UNL     1       4.659   5.850  19.339  0.00  0.00    +0.000 A 
ATOM      8  C   UNL     1       5.516   4.797  19.090  0.00  0.00    +0.000 A 
ATOM      9  C   UNL     1       5.018   3.519  18.895  0.00  0.00    +0.000 A 
ATOM     10  C   UNL     1       3.631   3.255  18.963  0.00  0.00    +0.000 A 
ENDROOT
BRANCH   1  11
ATOM     11  N   UNL     1       3.865   0.861  18.361  0.00  0.00    +0.000 N 
ATOM     12  H   UNL     1       4.202   0.932  17.406  0.00  0.00    +0.000 HD
ATOM     13  H   UNL     1       3.470  -0.053  18.548  0.00  0.00    +0.000 HD
ENDBRANCH   1  11
BRANCH   6  14
ATOM     14  C   UNL     1       2.421   6.812  19.661  0.00  0.00    +0.000 C 
ATOM     15  O   UNL     1       2.288   7.701  18.830  0.00  0.00    +0.000 OA
BRANCH  14  16
ATOM     16  O   UNL     1       1.802   6.862  20.859  0.00  0.00    +0.000 OA
ATOM     17  H   UNL     1       1.432   5.985  21.125  0.00  0.00    +0.000 HD
ENDBRANCH  14  16
ENDBRANCH   6  14
BRANCH   8  18
ATOM     18  O   UNL     1       6.866   4.971  19.031  0.00  0.00    +0.000 OA
ATOM     19  H   UNL     1       7.072   5.918  19.121  0.00  0.00    +0.000 HD
ENDBRANCH   8  18
TORSDOF 4
ENDMDL
