MODEL 1
REMARK VINA RESULT:      -9.5      0.000      0.000
REMARK  Name = 
REMARK  6 active torsions:
REMARK  status: ('A' for Active; 'I' for Inactive)
REMARK    1  A    between atoms: C_1  and  O_2
REMARK    2  A    between atoms: O_2  and  C_3
REMARK    3  A    between atoms: N_5  and  C_6
REMARK    4  A    between atoms: C_6  and  C_7
REMARK    5  A    between atoms: C_13  and  S_14
REMARK    6  A    between atoms: S_14  and  C_17
REMARK                            x       y       z     vdW  Elec       q    Type
REMARK                         _______ _______ _______ _____ _____    ______ ____
ROOT
ATOM      1  C   UNL     1       1.568   4.702  18.758  0.00  0.00    +0.000 C 
ATOM      2  C   UNL     1       0.782   3.464  18.282  0.00  0.00    +0.000 C 
ATOM      3  C   UNL     1       1.648   2.211  18.322  0.00  0.00    +0.000 C 
ATOM      4  C   UNL     1       2.837   2.352  17.376  0.00  0.00    +0.000 C 
ATOM      5  C   UNL     1       3.517   3.699  17.437  0.00  0.00    +0.000 A 
ATOM      6  C   UNL     1       4.783   3.838  16.845  0.00  0.00    +0.000 A 
ATOM      7  C   UNL     1       5.424   5.079  16.831  0.00  0.00    +0.000 A 
ATOM      8  C   UNL     1       4.809   6.200  17.393  0.00  0.00    +0.000 A 
ATOM      9  C   UNL     1       3.548   6.070  17.977  0.00  0.00    +0.000 A 
ATOM     10  C   UNL     1       2.897   4.823  18.020  0.00  0.00    +0.000 A 
ENDROOT
BRANCH   7  11
ATOM     11  S   UNL     1       7.084   5.204  16.200  0.00  0.00    +0.000 S 
ATOM     12  O   UNL     1       7.490   6.592  16.326  0.00  0.00    +0.000 OA
ATOM     13  O   UNL     1       7.868   4.157  16.831  0.00  0.00    +0.000 OA
BRANCH  11  14
ATOM     14  C   UNL     1       7.016   4.829  14.465  0.00  0.00    +0.000 A 
ATOM     15  C   UNL     1       7.863   5.503  13.577  0.00  0.00    +0.000 A 
ATOM     16  C   UNL     1       7.831   5.189  12.218  0.00  0.00    +0.000 A 
ATOM     17  C   UNL     1       6.966   4.196  11.755  0.00  0.00    +0.000 A 
ATOM     18  C   UNL     1       6.150   3.515  12.655  0.00  0.00    +0.000 A 
ATOM     19  F   UNL     1       5.336   2.553  12.204  0.00  0.00    +0.000 F 
ATOM     20  C   UNL     1       6.168   3.815  14.011  0.00  0.00    +0.000 A 
ENDBRANCH  11  14
ENDBRANCH   7  11
BRANCH   1  21
ATOM     21  C   UNL     1       1.827   4.680  20.285  0.00  0.00    +0.000 C 
BRANCH  21  24
ATOM     22  C   UNL     1       2.593   2.719  21.558  0.00  0.00    +0.000 C 
ATOM     23  O   UNL     1       1.506   2.481  22.060  0.00  0.00    +0.000 OA
ATOM     24  N   UNL     1       2.845   3.731  20.684  0.00  0.00    +0.000 N 
ATOM     25  H   UNL     1       3.793   3.813  20.344  0.00  0.00    +0.000 HD
BRANCH  22  27
ATOM     26  C   UNL     1       4.591   1.949  20.651  0.00  0.00    +0.000 C 
ATOM     27  O   UNL     1       3.735   2.028  21.790  0.00  0.00    +0.000 OA
ENDBRANCH  22  27
ENDBRANCH  21  24
ENDBRANCH   1  21
TORSDOF 5
ENDMDL
MODEL 2
REMARK VINA RESULT:      -9.1      0.917      1.315
REMARK  Name = 
REMARK  6 active torsions:
REMARK  status: ('A' for Active; 'I' for Inactive)
REMARK    1  A    between atoms: C_1  and  O_2
REMARK    2  A    between atoms: O_2  and  C_3
REMARK    3  A    between atoms: N_5  and  C_6
REMARK    4  A    between atoms: C_6  and  C_7
REMARK    5  A    between atoms: C_13  and  S_14
REMARK    6  A    between atoms: S_14  and  C_17
REMARK                            x       y       z     vdW  Elec       q    Type
REMARK                         _______ _______ _______ _____ _____    ______ ____
ROOT
ATOM      1  C   UNL     1       1.576   4.761  18.851  0.00  0.00    +0.000 C 
ATOM      2  C   UNL     1       0.766   3.550  18.349  0.00  0.00    +0.000 C 
ATOM      3  C   UNL     1       1.607   2.279  18.360  0.00  0.00    +0.000 C 
ATOM      4  C   UNL     1       2.798   2.417  17.416  0.00  0.00    +0.000 C 
ATOM      5  C   UNL     1       3.504   3.748  17.506  0.00  0.00    +0.000 A 
ATOM      6  C   UNL     1       4.772   3.875  16.916  0.00  0.00    +0.000 A 
ATOM      7  C   UNL     1       5.438   5.104  16.929  0.00  0.00    +0.000 A 
ATOM      8  C   UNL     1       4.846   6.223  17.516  0.00  0.00    +0.000 A 
ATOM      9  C   UNL     1       3.583   6.106  18.099  0.00  0.00    +0.000 A 
ATOM     10  C   UNL     1       2.907   4.871  18.115  0.00  0.00    +0.000 A 
ENDROOT
BRANCH   7  11
ATOM     11  S   UNL     1       7.099   5.209  16.299  0.00  0.00    +0.000 S 
ATOM     12  O   UNL     1       7.513   6.597  16.403  0.00  0.00    +0.000 OA
ATOM     13  O   UNL     1       7.877   4.169  16.949  0.00  0.00    +0.000 OA
BRANCH  11  14
ATOM     14  C   UNL     1       7.032   4.806  14.570  0.00  0.00    +0.000 A 
ATOM     15  C   UNL     1       6.282   3.704  14.145  0.00  0.00    +0.000 A 
ATOM     16  C   UNL     1       6.205   3.403  12.785  0.00  0.00    +0.000 A 
ATOM     17  C   UNL     1       6.864   4.210  11.857  0.00  0.00    +0.000 A 
ATOM     18  C   UNL     1       7.582   5.320  12.294  0.00  0.00    +0.000 A 
ATOM     19  F   UNL     1       8.197   6.100  11.395  0.00  0.00    +0.000 F 
ATOM     20  C   UNL     1       7.671   5.634  13.644  0.00  0.00    +0.000 A 
ENDBRANCH  11  14
ENDBRANCH   7  11
BRANCH   1  21
ATOM     21  C   UNL     1       1.836   4.700  20.377  0.00  0.00    +0.000 C 
BRANCH  21  24
ATOM     22  C   UNL     1       2.636   2.696  21.560  0.00  0.00    +0.000 C 
ATOM     23  O   UNL     1       1.546   2.396  22.020  0.00  0.00    +0.000 OA
ATOM     24  N   UNL     1       2.875   3.762  20.748  0.00  0.00    +0.000 N 
ATOM     25  H   UNL     1       3.828   3.892  20.438  0.00  0.00    +0.000 HD
BRANCH  22  27
ATOM     26  C   UNL     1       4.593   1.874  20.609  0.00  0.00    +0.000 C 
ATOM     27  O   UNL     1       3.794   2.029  21.782  0.00  0.00    +0.000 OA
ENDBRANCH  22  27
ENDBRANCH  21  24
ENDBRANCH   1  21
TORSDOF 5
ENDMDL
MODEL 3
REMARK VINA RESULT:      -9.0      2.667      3.453
REMARK  Name = 
REMARK  6 active torsions:
REMARK  status: ('A' for Active; 'I' for Inactive)
REMARK    1  A    between atoms: C_1  and  O_2
REMARK    2  A    between atoms: O_2  and  C_3
REMARK    3  A    between atoms: N_5  and  C_6
REMARK    4  A    between atoms: C_6  and  C_7
REMARK    5  A    between atoms: C_13  and  S_14
REMARK    6  A    between atoms: S_14  and  C_17
REMARK                            x       y       z     vdW  Elec       q    Type
REMARK                         _______ _______ _______ _____ _____    ______ ____
ROOT
ATOM      1  C   UNL     1       1.838   4.995  19.608  0.00  0.00    +0.000 C 
ATOM      2  C   UNL     1       1.487   3.588  20.128  0.00  0.00    +0.000 C 
ATOM      3  C   UNL     1       2.676   2.949  20.837  0.00  0.00    +0.000 C 
ATOM      4  C   UNL     1       3.842   2.768  19.870  0.00  0.00    +0.000 C 
ATOM      5  C   UNL     1       4.092   3.960  18.977  0.00  0.00    +0.000 A 
ATOM      6  C   UNL     1       5.305   4.026  18.272  0.00  0.00    +0.000 A 
ATOM      7  C   UNL     1       5.555   5.083  17.394  0.00  0.00    +0.000 A 
ATOM      8  C   UNL     1       4.598   6.080  17.196  0.00  0.00    +0.000 A 
ATOM      9  C   UNL     1       3.388   6.017  17.889  0.00  0.00    +0.000 A 
ATOM     10  C   UNL     1       3.128   4.972  18.794  0.00  0.00    +0.000 A 
ENDROOT
BRANCH   7  11
ATOM     11  S   UNL     1       7.150   5.221  16.616  0.00  0.00    +0.000 S 
ATOM     12  O   UNL     1       7.526   6.623  16.648  0.00  0.00    +0.000 OA
ATOM     13  O   UNL     1       8.016   4.223  17.221  0.00  0.00    +0.000 OA
BRANCH  11  14
ATOM     14  C   UNL     1       6.945   4.767  14.911  0.00  0.00    +0.000 A 
ATOM     15  C   UNL     1       6.029   3.766  14.567  0.00  0.00    +0.000 A 
ATOM     16  C   UNL     1       5.846   3.428  13.225  0.00  0.00    +0.000 A 
ATOM     17  C   UNL     1       6.565   4.100  12.236  0.00  0.00    +0.000 A 
ATOM     18  C   UNL     1       7.450   5.114  12.593  0.00  0.00    +0.000 A 
ATOM     19  F   UNL     1       8.122   5.765  11.636  0.00  0.00    +0.000 F 
ATOM     20  C   UNL     1       7.646   5.463  13.924  0.00  0.00    +0.000 A 
ENDBRANCH  11  14
ENDBRANCH   7  11
BRANCH   1  21
ATOM     21  C   UNL     1       1.971   6.027  20.755  0.00  0.00    +0.000 C 
BRANCH  21  24
ATOM     22  C   UNL     1       1.077   8.319  20.722  0.00  0.00    +0.000 C 
ATOM     23  O   UNL     1       0.198   8.107  21.541  0.00  0.00    +0.000 OA
ATOM     24  N   UNL     1       1.987   7.401  20.296  0.00  0.00    +0.000 N 
ATOM     25  H   UNL     1       2.662   7.713  19.612  0.00  0.00    +0.000 HD
BRANCH  22  27
ATOM     26  C   UNL     1       0.652  10.606  20.719  0.00  0.00    +0.000 C 
ATOM     27  O   UNL     1       1.294   9.497  20.089  0.00  0.00    +0.000 OA
ENDBRANCH  22  27
ENDBRANCH  21  24
ENDBRANCH   1  21
TORSDOF 5
ENDMDL
MODEL 4
REMARK VINA RESULT:      -8.9      2.247      2.828
REMARK  Name = 
REMARK  6 active torsions:
REMARK  status: ('A' for Active; 'I' for Inactive)
REMARK    1  A    between atoms: C_1  and  O_2
REMARK    2  A    between atoms: O_2  and  C_3
REMARK    3  A    between atoms: N_5  and  C_6
REMARK    4  A    between atoms: C_6  and  C_7
REMARK    5  A    between atoms: C_13  and  S_14
REMARK    6  A    between atoms: S_14  and  C_17
REMARK                            x       y       z     vdW  Elec       q    Type
REMARK                         _______ _______ _______ _____ _____    ______ ____
ROOT
ATOM      1  C   UNL     1       1.890   5.063  19.108  0.00  0.00    +0.000 C 
ATOM      2  C   UNL     1       1.219   3.676  19.077  0.00  0.00    +0.000 C 
ATOM      3  C   UNL     1       2.208   2.575  19.438  0.00  0.00    +0.000 C 
ATOM      4  C   UNL     1       3.345   2.523  18.421  0.00  0.00    +0.000 C 
ATOM      5  C   UNL     1       3.887   3.877  18.032  0.00  0.00    +0.000 A 
ATOM      6  C   UNL     1       5.112   3.938  17.349  0.00  0.00    +0.000 A 
ATOM      7  C   UNL     1       5.623   5.166  16.923  0.00  0.00    +0.000 A 
ATOM      8  C   UNL     1       4.917   6.347  17.159  0.00  0.00    +0.000 A 
ATOM      9  C   UNL     1       3.695   6.293  17.832  0.00  0.00    +0.000 A 
ATOM     10  C   UNL     1       3.176   5.067  18.288  0.00  0.00    +0.000 A 
ENDROOT
BRANCH   7  11
ATOM     11  S   UNL     1       7.241   5.235  16.182  0.00  0.00    +0.000 S 
ATOM     12  O   UNL     1       7.688   6.615  16.251  0.00  0.00    +0.000 OA
ATOM     13  O   UNL     1       8.039   4.181  16.783  0.00  0.00    +0.000 OA
BRANCH  11  14
ATOM     14  C   UNL     1       7.049   4.828  14.463  0.00  0.00    +0.000 A 
ATOM     15  C   UNL     1       7.865   5.448  13.510  0.00  0.00    +0.000 A 
ATOM     16  C   UNL     1       7.736   5.108  12.163  0.00  0.00    +0.000 A 
ATOM     17  C   UNL     1       6.805   4.142  11.777  0.00  0.00    +0.000 A 
ATOM     18  C   UNL     1       6.022   3.513  12.742  0.00  0.00    +0.000 A 
ATOM     19  F   UNL     1       5.144   2.575  12.364  0.00  0.00    +0.000 F 
ATOM     20  C   UNL     1       6.136   3.840  14.087  0.00  0.00    +0.000 A 
ENDBRANCH  11  14
ENDBRANCH   7  11
BRANCH   1  21
ATOM     21  C   UNL     1       2.200   5.531  20.553  0.00  0.00    +0.000 C 
BRANCH  21  24
ATOM     22  C   UNL     1       1.342   7.836  20.581  0.00  0.00    +0.000 C 
ATOM     23  O   UNL     1       2.100   8.248  19.718  0.00  0.00    +0.000 OA
ATOM     24  N   UNL     1       1.295   6.554  21.034  0.00  0.00    +0.000 N 
ATOM     25  H   UNL     1       0.615   6.351  21.753  0.00  0.00    +0.000 HD
BRANCH  22  27
ATOM     26  C   UNL     1       0.926   9.158  22.449  0.00  0.00    +0.000 C 
ATOM     27  O   UNL     1       0.425   8.583  21.243  0.00  0.00    +0.000 OA
ENDBRANCH  22  27
ENDBRANCH  21  24
ENDBRANCH   1  21
TORSDOF 5
ENDMDL
MODEL 5
REMARK VINA RESULT:      -8.9      2.376      3.055
REMARK  Name = 
REMARK  6 active torsions:
REMARK  status: ('A' for Active; 'I' for Inactive)
REMARK    1  A    between atoms: C_1  and  O_2
REMARK    2  A    between atoms: O_2  and  C_3
REMARK    3  A    between atoms: N_5  and  C_6
REMARK    4  A    between atoms: C_6  and  C_7
REMARK    5  A    between atoms: C_13  and  S_14
REMARK    6  A    between atoms: S_14  and  C_17
REMARK                            x       y       z     vdW  Elec       q    Type
REMARK                         _______ _______ _______ _____ _____    ______ ____
ROOT
ATOM      1  C   UNL     1       1.880   5.128  19.377  0.00  0.00    +0.000 C 
ATOM      2  C   UNL     1       1.463   3.711  19.816  0.00  0.00    +0.000 C 
ATOM      3  C   UNL     1       2.620   2.976  20.483  0.00  0.00    +0.000 C 
ATOM      4  C   UNL     1       3.776   2.798  19.503  0.00  0.00    +0.000 C 
ATOM      5  C   UNL     1       4.083   4.027  18.682  0.00  0.00    +0.000 A 
ATOM      6  C   UNL     1       5.297   4.077  17.978  0.00  0.00    +0.000 A 
ATOM      7  C   UNL     1       5.597   5.172  17.163  0.00  0.00    +0.000 A 
ATOM      8  C   UNL     1       4.688   6.222  17.026  0.00  0.00    +0.000 A 
ATOM      9  C   UNL     1       3.476   6.176  17.718  0.00  0.00    +0.000 A 
ATOM     10  C   UNL     1       3.167   5.092  18.561  0.00  0.00    +0.000 A 
ENDROOT
BRANCH   7  11
ATOM     11  S   UNL     1       7.197   5.279  16.390  0.00  0.00    +0.000 S 
ATOM     12  O   UNL     1       7.609   6.671  16.444  0.00  0.00    +0.000 OA
ATOM     13  O   UNL     1       8.035   4.251  16.982  0.00  0.00    +0.000 OA
BRANCH  11  14
ATOM     14  C   UNL     1       6.984   4.856  14.678  0.00  0.00    +0.000 A 
ATOM     15  C   UNL     1       7.883   5.352  13.726  0.00  0.00    +0.000 A 
ATOM     16  C   UNL     1       7.733   4.997  12.385  0.00  0.00    +0.000 A 
ATOM     17  C   UNL     1       6.699   4.140  12.004  0.00  0.00    +0.000 A 
ATOM     18  C   UNL     1       5.832   3.633  12.968  0.00  0.00    +0.000 A 
ATOM     19  F   UNL     1       4.854   2.797  12.596  0.00  0.00    +0.000 F 
ATOM     20  C   UNL     1       5.965   3.976  14.308  0.00  0.00    +0.000 A 
ENDBRANCH  11  14
ENDBRANCH   7  11
BRANCH   1  21
ATOM     21  C   UNL     1       2.062   6.084  20.583  0.00  0.00    +0.000 C 
BRANCH  21  24
ATOM     22  C   UNL     1       1.090   8.339  20.742  0.00  0.00    +0.000 C 
ATOM     23  O   UNL     1       0.251   8.040  21.575  0.00  0.00    +0.000 OA
ATOM     24  N   UNL     1       2.013   7.485  20.221  0.00  0.00    +0.000 N 
ATOM     25  H   UNL     1       2.651   7.868  19.537  0.00  0.00    +0.000 HD
BRANCH  22  27
ATOM     26  C   UNL     1       1.336   9.532  18.760  0.00  0.00    +0.000 C 
ATOM     27  O   UNL     1       1.244   9.564  20.185  0.00  0.00    +0.000 OA
ENDBRANCH  22  27
ENDBRANCH  21  24
ENDBRANCH   1  21
TORSDOF 5
ENDMDL
MODEL 6
REMARK VINA RESULT:      -8.4      4.402      5.889
REMARK  Name = 
REMARK  6 active torsions:
REMARK  status: ('A' for Active; 'I' for Inactive)
REMARK    1  A    between atoms: C_1  and  O_2
REMARK    2  A    between atoms: O_2  and  C_3
REMARK    3  A    between atoms: N_5  and  C_6
REMARK    4  A    between atoms: C_6  and  C_7
REMARK    5  A    between atoms: C_13  and  S_14
REMARK    6  A    between atoms: S_14  and  C_17
REMARK                            x       y       z     vdW  Elec       q    Type
REMARK                         _______ _______ _______ _____ _____    ______ ____
ROOT
ATOM      1  C   UNL     1       1.269   8.903  20.797  0.00  0.00    +0.000 C 
ATOM      2  C   UNL     1       1.421  10.169  19.932  0.00  0.00    +0.000 C 
ATOM      3  C   UNL     1       0.903   9.938  18.517  0.00  0.00    +0.000 C 
ATOM      4  C   UNL     1       1.713   8.847  17.823  0.00  0.00    +0.000 C 
ATOM      5  C   UNL     1       1.998   7.645  18.691  0.00  0.00    +0.000 A 
ATOM      6  C   UNL     1       2.464   6.471  18.076  0.00  0.00    +0.000 A 
ATOM      7  C   UNL     1       2.791   5.352  18.847  0.00  0.00    +0.000 A 
ATOM      8  C   UNL     1       2.673   5.391  20.237  0.00  0.00    +0.000 A 
ATOM      9  C   UNL     1       2.216   6.557  20.855  0.00  0.00    +0.000 A 
ATOM     10  C   UNL     1       1.861   7.686  20.093  0.00  0.00    +0.000 A 
ENDROOT
BRANCH   7  11
ATOM     11  S   UNL     1       3.248   3.833  18.040  0.00  0.00    +0.000 S 
ATOM     12  O   UNL     1       3.467   2.842  19.079  0.00  0.00    +0.000 OA
ATOM     13  O   UNL     1       2.270   3.585  16.995  0.00  0.00    +0.000 OA
BRANCH  11  14
ATOM     14  C   UNL     1       4.808   4.112  17.237  0.00  0.00    +0.000 A 
ATOM     15  C   UNL     1       5.922   4.484  18.000  0.00  0.00    +0.000 A 
ATOM     16  C   UNL     1       7.154   4.676  17.375  0.00  0.00    +0.000 A 
ATOM     17  C   UNL     1       7.272   4.481  15.997  0.00  0.00    +0.000 A 
ATOM     18  C   UNL     1       6.161   4.082  15.259  0.00  0.00    +0.000 A 
ATOM     19  F   UNL     1       6.288   3.880  13.941  0.00  0.00    +0.000 F 
ATOM     20  C   UNL     1       4.926   3.888  15.864  0.00  0.00    +0.000 A 
ENDBRANCH  11  14
ENDBRANCH   7  11
BRANCH   1  21
ATOM     21  C   UNL     1      -0.209   8.618  21.163  0.00  0.00    +0.000 C 
BRANCH  21  24
ATOM     22  C   UNL     1      -0.619  10.176  23.022  0.00  0.00    +0.000 C 
ATOM     23  O   UNL     1       0.219   9.689  23.763  0.00  0.00    +0.000 OA
ATOM     24  N   UNL     1      -0.885   9.753  21.757  0.00  0.00    +0.000 N 
ATOM     25  H   UNL     1      -1.607  10.249  21.254  0.00  0.00    +0.000 HD
BRANCH  22  27
ATOM     26  C   UNL     1      -1.034  12.446  22.734  0.00  0.00    +0.000 C 
ATOM     27  O   UNL     1      -1.434  11.213  23.332  0.00  0.00    +0.000 OA
ENDBRANCH  22  27
ENDBRANCH  21  24
ENDBRANCH   1  21
TORSDOF 5
ENDMDL
MODEL 7
REMARK VINA RESULT:      -8.3      5.278      8.096
REMARK  Name = 
REMARK  6 active torsions:
REMARK  status: ('A' for Active; 'I' for Inactive)
REMARK    1  A    between atoms: C_1  and  O_2
REMARK    2  A    between atoms: O_2  and  C_3
REMARK    3  A    between atoms: N_5  and  C_6
REMARK    4  A    between atoms: C_6  and  C_7
REMARK    5  A    between atoms: C_13  and  S_14
REMARK    6  A    between atoms: S_14  and  C_17
REMARK                            x       y       z     vdW  Elec       q    Type
REMARK                         _______ _______ _______ _____ _____    ______ ____
ROOT
ATOM      1  C   UNL     1       3.442   4.557  18.598  0.00  0.00    +0.000 C 
ATOM      2  C   UNL     1       3.796   4.903  17.139  0.00  0.00    +0.000 C 
ATOM      3  C   UNL     1       4.455   6.273  17.040  0.00  0.00    +0.000 C 
ATOM      4  C   UNL     1       3.499   7.362  17.517  0.00  0.00    +0.000 C 
ATOM      5  C   UNL     1       2.749   7.014  18.780  0.00  0.00    +0.000 A 
ATOM      6  C   UNL     1       2.081   8.041  19.467  0.00  0.00    +0.000 A 
ATOM      7  C   UNL     1       1.331   7.753  20.610  0.00  0.00    +0.000 A 
ATOM      8  C   UNL     1       1.224   6.442  21.076  0.00  0.00    +0.000 A 
ATOM      9  C   UNL     1       1.879   5.416  20.394  0.00  0.00    +0.000 A 
ATOM     10  C   UNL     1       2.658   5.689  19.253  0.00  0.00    +0.000 A 
ENDROOT
BRANCH   7  11
ATOM     11  S   UNL     1       0.607   9.086  21.543  0.00  0.00    +0.000 S 
ATOM     12  O   UNL     1      -0.657   8.605  22.072  0.00  0.00    +0.000 OA
ATOM     13  O   UNL     1       1.628   9.588  22.446  0.00  0.00    +0.000 OA
BRANCH  11  14
ATOM     14  C   UNL     1       0.238  10.391  20.396  0.00  0.00    +0.000 A 
ATOM     15  C   UNL     1      -0.839  10.252  19.512  0.00  0.00    +0.000 A 
ATOM     16  C   UNL     1      -1.147  11.288  18.631  0.00  0.00    +0.000 A 
ATOM     17  C   UNL     1      -0.391  12.461  18.646  0.00  0.00    +0.000 A 
ATOM     18  C   UNL     1       0.658  12.595  19.552  0.00  0.00    +0.000 A 
ATOM     19  F   UNL     1       1.367  13.731  19.571  0.00  0.00    +0.000 F 
ATOM     20  C   UNL     1       0.981  11.573  20.436  0.00  0.00    +0.000 A 
ENDBRANCH  11  14
ENDBRANCH   7  11
BRANCH   1  21
ATOM     21  C   UNL     1       4.699   4.242  19.447  0.00  0.00    +0.000 C 
BRANCH  21  24
ATOM     22  C   UNL     1       7.062   4.709  18.950  0.00  0.00    +0.000 C 
ATOM     23  O   UNL     1       7.232   5.451  19.903  0.00  0.00    +0.000 OA
ATOM     24  N   UNL     1       5.899   4.066  18.656  0.00  0.00    +0.000 N 
ATOM     25  H   UNL     1       5.899   3.479  17.834  0.00  0.00    +0.000 HD
BRANCH  22  27
ATOM     26  C   UNL     1       7.501   4.471  16.678  0.00  0.00    +0.000 C 
ATOM     27  O   UNL     1       7.995   4.403  18.016  0.00  0.00    +0.000 OA
ENDBRANCH  22  27
ENDBRANCH  21  24
ENDBRANCH   1  21
TORSDOF 5
ENDMDL
MODEL 8
REMARK VINA RESULT:      -8.2      5.080      6.698
REMARK  Name = 
REMARK  6 active torsions:
REMARK  status: ('A' for Active; 'I' for Inactive)
REMARK    1  A    between atoms: C_1  and  O_2
REMARK    2  A    between atoms: O_2  and  C_3
REMARK    3  A    between atoms: N_5  and  C_6
REMARK    4  A    between atoms: C_6  and  C_7
REMARK    5  A    between atoms: C_13  and  S_14
REMARK    6  A    between atoms: S_14  and  C_17
REMARK                            x       y       z     vdW  Elec       q    Type
REMARK                         _______ _______ _______ _____ _____    ______ ____
ROOT
ATOM      1  C   UNL     1       1.093   9.777  20.616  0.00  0.00    +0.000 C 
ATOM      2  C   UNL     1       1.549  10.943  19.718  0.00  0.00    +0.000 C 
ATOM      3  C   UNL     1       1.208  10.682  18.256  0.00  0.00    +0.000 C 
ATOM      4  C   UNL     1       1.938   9.441  17.750  0.00  0.00    +0.000 C 
ATOM      5  C   UNL     1       1.918   8.278  18.712  0.00  0.00    +0.000 A 
ATOM      6  C   UNL     1       2.288   7.009  18.237  0.00  0.00    +0.000 A 
ATOM      7  C   UNL     1       2.335   5.916  19.106  0.00  0.00    +0.000 A 
ATOM      8  C   UNL     1       2.028   6.073  20.459  0.00  0.00    +0.000 A 
ATOM      9  C   UNL     1       1.666   7.333  20.938  0.00  0.00    +0.000 A 
ATOM     10  C   UNL     1       1.592   8.441  20.074  0.00  0.00    +0.000 A 
ENDROOT
BRANCH   7  11
ATOM     11  S   UNL     1       2.672   4.293  18.458  0.00  0.00    +0.000 S 
ATOM     12  O   UNL     1       2.697   3.376  19.583  0.00  0.00    +0.000 OA
ATOM     13  O   UNL     1       1.752   4.066  17.356  0.00  0.00    +0.000 OA
BRANCH  11  14
ATOM     14  C   UNL     1       4.309   4.331  17.770  0.00  0.00    +0.000 A 
ATOM     15  C   UNL     1       4.498   4.029  16.416  0.00  0.00    +0.000 A 
ATOM     16  C   UNL     1       5.780   4.086  15.867  0.00  0.00    +0.000 A 
ATOM     17  C   UNL     1       6.861   4.458  16.667  0.00  0.00    +0.000 A 
ATOM     18  C   UNL     1       6.652   4.783  18.005  0.00  0.00    +0.000 A 
ATOM     19  F   UNL     1       7.693   5.156  18.760  0.00  0.00    +0.000 F 
ATOM     20  C   UNL     1       5.383   4.731  18.568  0.00  0.00    +0.000 A 
ENDBRANCH  11  14
ENDBRANCH   7  11
BRANCH   1  21
ATOM     21  C   UNL     1      -0.448   9.726  20.771  0.00  0.00    +0.000 C 
BRANCH  21  24
ATOM     22  C   UNL     1      -0.878  11.103  22.763  0.00  0.00    +0.000 C 
ATOM     23  O   UNL     1      -0.275  10.375  23.534  0.00  0.00    +0.000 OA
ATOM     24  N   UNL     1      -1.001  10.894  21.424  0.00  0.00    +0.000 N 
ATOM     25  H   UNL     1      -1.529  11.580  20.904  0.00  0.00    +0.000 HD
BRANCH  22  27
ATOM     26  C   UNL     1      -2.929  12.035  23.343  0.00  0.00    +0.000 C 
ATOM     27  O   UNL     1      -1.535  12.237  23.105  0.00  0.00    +0.000 OA
ENDBRANCH  22  27
ENDBRANCH  21  24
ENDBRANCH   1  21
TORSDOF 5
ENDMDL
MODEL 9
REMARK VINA RESULT:      -8.2      5.527      7.539
REMARK  Name = 
REMARK  6 active torsions:
REMARK  status: ('A' for Active; 'I' for Inactive)
REMARK    1  A    between atoms: C_1  and  O_2
REMARK    2  A    between atoms: O_2  and  C_3
REMARK    3  A    between atoms: N_5  and  C_6
REMARK    4  A    between atoms: C_6  and  C_7
REMARK    5  A    between atoms: C_13  and  S_14
REMARK    6  A    between atoms: S_14  and  C_17
REMARK                            x       y       z     vdW  Elec       q    Type
REMARK                         _______ _______ _______ _____ _____    ______ ____
ROOT
ATOM      1  C   UNL     1       0.359  10.556  19.399  0.00  0.00    +0.000 C 
ATOM      2  C   UNL     1      -0.501  10.365  20.664  0.00  0.00    +0.000 C 
ATOM      3  C   UNL     1       0.339   9.868  21.834  0.00  0.00    +0.000 C 
ATOM      4  C   UNL     1       0.943   8.503  21.518  0.00  0.00    +0.000 C 
ATOM      5  C   UNL     1       1.512   8.389  20.124  0.00  0.00    +0.000 A 
ATOM      6  C   UNL     1       2.350   7.301  19.829  0.00  0.00    +0.000 A 
ATOM      7  C   UNL     1       2.855   7.128  18.538  0.00  0.00    +0.000 A 
ATOM      8  C   UNL     1       2.523   8.025  17.521  0.00  0.00    +0.000 A 
ATOM      9  C   UNL     1       1.685   9.105  17.806  0.00  0.00    +0.000 A 
ATOM     10  C   UNL     1       1.186   9.308  19.106  0.00  0.00    +0.000 A 
ENDROOT
BRANCH   7  11
ATOM     11  S   UNL     1       4.022   5.822  18.219  0.00  0.00    +0.000 S 
ATOM     12  O   UNL     1       4.451   5.954  16.838  0.00  0.00    +0.000 OA
ATOM     13  O   UNL     1       5.004   5.847  19.289  0.00  0.00    +0.000 OA
BRANCH  11  14
ATOM     14  C   UNL     1       3.143   4.285  18.355  0.00  0.00    +0.000 A 
ATOM     15  C   UNL     1       1.743   4.289  18.389  0.00  0.00    +0.000 A 
ATOM     16  C   UNL     1       1.050   3.080  18.467  0.00  0.00    +0.000 A 
ATOM     17  C   UNL     1       1.755   1.876  18.496  0.00  0.00    +0.000 A 
ATOM     18  C   UNL     1       3.146   1.889  18.431  0.00  0.00    +0.000 A 
ATOM     19  F   UNL     1       3.813   0.727  18.441  0.00  0.00    +0.000 F 
ATOM     20  C   UNL     1       3.853   3.082  18.355  0.00  0.00    +0.000 A 
ENDBRANCH  11  14
ENDBRANCH   7  11
BRANCH   1  21
ATOM     21  C   UNL     1       1.300  11.782  19.511  0.00  0.00    +0.000 C 
BRANCH  21  24
ATOM     22  C   UNL     1       1.460  13.616  21.143  0.00  0.00    +0.000 C 
ATOM     23  O   UNL     1       2.650  13.464  21.365  0.00  0.00    +0.000 OA
ATOM     24  N   UNL     1       0.729  12.881  20.262  0.00  0.00    +0.000 N 
ATOM     25  H   UNL     1      -0.250  13.115  20.177  0.00  0.00    +0.000 HD
BRANCH  22  27
ATOM     26  C   UNL     1      -0.462  13.956  22.409  0.00  0.00    +0.000 C 
ATOM     27  O   UNL     1       0.660  14.533  21.739  0.00  0.00    +0.000 OA
ENDBRANCH  22  27
ENDBRANCH  21  24
ENDBRANCH   1  21
TORSDOF 5
ENDMDL
