MODEL 1
REMARK VINA RESULT:      -7.3      0.000      0.000
REMARK  Name = 
REMARK  7 active torsions:
REMARK  status: ('A' for Active; 'I' for Inactive)
REMARK    1  A    between atoms: C_1  and  O_2
REMARK    2  A    between atoms: O_2  and  C_3
REMARK    3  A    between atoms: C_3  and  C_5
REMARK    4  A    between atoms: C_8  and  C_9
REMARK    5  A    between atoms: C_11  and  C_12
REMARK    6  A    between atoms: C_18  and  C_19
REMARK    7  A    between atoms: C_24  and  O_25
REMARK                            x       y       z     vdW  Elec       q    Type
REMARK                         _______ _______ _______ _____ _____    ______ ____
ROOT
ATOM      1  C   UNL     1       0.843  11.290  18.819  0.00  0.00    +0.000 C 
ATOM      2  N   UNL     1      -0.277  11.475  19.713  0.00  0.00    +0.000 NA
ATOM      3  C   UNL     1      -0.302  12.404  20.597  0.00  0.00    +0.000 C 
ATOM      4  C   UNL     1       0.804  13.397  20.806  0.00  0.00    +0.000 C 
ATOM      5  C   UNL     1       1.938  13.312  19.801  0.00  0.00    +0.000 C 
ATOM      6  N   UNL     1       1.942  12.209  18.873  0.00  0.00    +0.000 NA
ATOM      7  H   UNL     1       2.849  11.761  18.794  0.00  0.00    +0.000 HD
ENDROOT
BRANCH   1  11
ATOM      8  C   UNL     1       2.372   7.246  19.176  0.00  0.00    +0.000 A 
ATOM      9  C   UNL     1       2.552   7.964  17.989  0.00  0.00    +0.000 A 
ATOM     10  C   UNL     1       2.055   9.265  17.869  0.00  0.00    +0.000 A 
ATOM     11  C   UNL     1       1.368   9.866  18.935  0.00  0.00    +0.000 A 
ATOM     12  C   UNL     1       1.201   9.143  20.127  0.00  0.00    +0.000 A 
ATOM     13  C   UNL     1       1.697   7.844  20.248  0.00  0.00    +0.000 A 
BRANCH   8  14
ATOM     14  C   UNL     1       2.912   5.862  19.254  0.00  0.00    +0.000 C 
ATOM     15  O   UNL     1       4.100   5.602  19.352  0.00  0.00    +0.000 OA
BRANCH  14  17
ATOM     16  C   UNL     1       1.766   4.318  17.923  0.00  0.00    +0.000 C 
ATOM     17  O   UNL     1       1.902   4.957  19.192  0.00  0.00    +0.000 OA
ENDBRANCH  14  17
ENDBRANCH   8  14
ENDBRANCH   1  11
BRANCH   5  18
ATOM     18  C   UNL     1       2.074  14.623  19.036  0.00  0.00    +0.000 A 
ATOM     19  C   UNL     1       1.157  15.671  19.245  0.00  0.00    +0.000 A 
ATOM     20  C   UNL     1       1.249  16.861  18.525  0.00  0.00    +0.000 A 
ATOM     21  C   UNL     1       2.271  17.032  17.596  0.00  0.00    +0.000 A 
ATOM     22  C   UNL     1       3.216  16.025  17.403  0.00  0.00    +0.000 A 
ATOM     23  C   UNL     1       3.120  14.836  18.128  0.00  0.00    +0.000 A 
BRANCH  23  24
ATOM     24  O   UNL     1       4.065  13.861  17.962  0.00  0.00    +0.000 OA
ATOM     25  H   UNL     1       4.626  14.099  17.206  0.00  0.00    +0.000 HD
ENDBRANCH  23  24
ENDBRANCH   5  18
BRANCH   3  26
ATOM     26  C   UNL     1      -1.464  12.436  21.490  0.00  0.00    +0.000 A 
ATOM     27  C   UNL     1      -1.583  11.853  22.741  0.00  0.00    +0.000 A 
ATOM     28  C   UNL     1      -2.829  12.139  23.372  0.00  0.00    +0.000 A 
ATOM     29  C   UNL     1      -3.638  12.914  22.576  0.00  0.00    +0.000 A 
ATOM     30  S   UNL     1      -2.900  13.285  21.084  0.00  0.00    +0.000 S 
ENDBRANCH   3  26
TORSDOF 6
ENDMDL
MODEL 2
REMARK VINA RESULT:      -7.2      2.659      5.102
REMARK  Name = 
REMARK  7 active torsions:
REMARK  status: ('A' for Active; 'I' for Inactive)
REMARK    1  A    between atoms: C_1  and  O_2
REMARK    2  A    between atoms: O_2  and  C_3
REMARK    3  A    between atoms: C_3  and  C_5
REMARK    4  A    between atoms: C_8  and  C_9
REMARK    5  A    between atoms: C_11  and  C_12
REMARK    6  A    between atoms: C_18  and  C_19
REMARK    7  A    between atoms: C_24  and  O_25
REMARK                            x       y       z     vdW  Elec       q    Type
REMARK                         _______ _______ _______ _____ _____    ______ ____
ROOT
ATOM      1  C   UNL     1       0.221  10.526  19.835  0.00  0.00    +0.000 C 
ATOM      2  N   UNL     1       0.984  11.732  19.610  0.00  0.00    +0.000 NA
ATOM      3  C   UNL     1       0.563  12.677  18.852  0.00  0.00    +0.000 C 
ATOM      4  C   UNL     1      -0.748  12.649  18.121  0.00  0.00    +0.000 C 
ATOM      5  C   UNL     1      -1.630  11.455  18.436  0.00  0.00    +0.000 C 
ATOM      6  N   UNL     1      -1.078  10.396  19.243  0.00  0.00    +0.000 NA
ATOM      7  H   UNL     1      -1.261   9.472  18.865  0.00  0.00    +0.000 HD
ENDROOT
BRANCH   1  11
ATOM      8  C   UNL     1       2.655   7.073  18.846  0.00  0.00    +0.000 A 
ATOM      9  C   UNL     1       2.407   8.058  17.883  0.00  0.00    +0.000 A 
ATOM     10  C   UNL     1       1.617   9.168  18.198  0.00  0.00    +0.000 A 
ATOM     11  C   UNL     1       1.063   9.308  19.479  0.00  0.00    +0.000 A 
ATOM     12  C   UNL     1       1.326   8.321  20.443  0.00  0.00    +0.000 A 
ATOM     13  C   UNL     1       2.114   7.212  20.130  0.00  0.00    +0.000 A 
BRANCH   8  14
ATOM     14  C   UNL     1       3.493   5.906  18.462  0.00  0.00    +0.000 C 
ATOM     15  O   UNL     1       3.382   5.310  17.402  0.00  0.00    +0.000 OA
BRANCH  14  17
ATOM     16  C   UNL     1       5.302   4.578  19.119  0.00  0.00    +0.000 C 
ATOM     17  O   UNL     1       4.374   5.610  19.451  0.00  0.00    +0.000 OA
ENDBRANCH  14  17
ENDBRANCH   8  14
ENDBRANCH   1  11
BRANCH   5  18
ATOM     18  C   UNL     1      -2.957  11.912  19.030  0.00  0.00    +0.000 A 
ATOM     19  C   UNL     1      -2.986  12.652  20.227  0.00  0.00    +0.000 A 
ATOM     20  C   UNL     1      -4.195  13.044  20.800  0.00  0.00    +0.000 A 
ATOM     21  C   UNL     1      -5.396  12.718  20.177  0.00  0.00    +0.000 A 
ATOM     22  C   UNL     1      -5.390  12.022  18.969  0.00  0.00    +0.000 A 
ATOM     23  C   UNL     1      -4.177  11.633  18.398  0.00  0.00    +0.000 A 
BRANCH  23  24
ATOM     24  O   UNL     1      -4.169  10.978  17.198  0.00  0.00    +0.000 OA
ATOM     25  H   UNL     1      -4.722  10.183  17.276  0.00  0.00    +0.000 HD
ENDBRANCH  23  24
ENDBRANCH   5  18
BRANCH   3  26
ATOM     26  C   UNL     1       1.466  13.813  18.649  0.00  0.00    +0.000 A 
ATOM     27  C   UNL     1       2.763  13.784  18.162  0.00  0.00    +0.000 A 
ATOM     28  C   UNL     1       3.334  15.083  18.024  0.00  0.00    +0.000 A 
ATOM     29  C   UNL     1       2.466  16.069  18.430  0.00  0.00    +0.000 A 
ATOM     30  S   UNL     1       0.984  15.428  18.976  0.00  0.00    +0.000 S 
ENDBRANCH   3  26
TORSDOF 6
ENDMDL
MODEL 3
REMARK VINA RESULT:      -7.2      2.560      5.184
REMARK  Name = 
REMARK  7 active torsions:
REMARK  status: ('A' for Active; 'I' for Inactive)
REMARK    1  A    between atoms: C_1  and  O_2
REMARK    2  A    between atoms: O_2  and  C_3
REMARK    3  A    between atoms: C_3  and  C_5
REMARK    4  A    between atoms: C_8  and  C_9
REMARK    5  A    between atoms: C_11  and  C_12
REMARK    6  A    between atoms: C_18  and  C_19
REMARK    7  A    between atoms: C_24  and  O_25
REMARK                            x       y       z     vdW  Elec       q    Type
REMARK                         _______ _______ _______ _____ _____    ______ ____
ROOT
ATOM      1  C   UNL     1       0.372  10.596  19.820  0.00  0.00    +0.000 C 
ATOM      2  N   UNL     1       1.116  11.809  19.570  0.00  0.00    +0.000 NA
ATOM      3  C   UNL     1       0.641  12.773  18.870  0.00  0.00    +0.000 C 
ATOM      4  C   UNL     1      -0.721  12.763  18.239  0.00  0.00    +0.000 C 
ATOM      5  C   UNL     1      -1.579  11.560  18.588  0.00  0.00    +0.000 C 
ATOM      6  N   UNL     1      -0.968  10.481  19.324  0.00  0.00    +0.000 NA
ATOM      7  H   UNL     1      -1.180   9.567  18.936  0.00  0.00    +0.000 HD
ENDROOT
BRANCH   1  11
ATOM      8  C   UNL     1       2.648   7.142  18.512  0.00  0.00    +0.000 A 
ATOM      9  C   UNL     1       2.148   7.202  19.817  0.00  0.00    +0.000 A 
ATOM     10  C   UNL     1       1.420   8.317  20.243  0.00  0.00    +0.000 A 
ATOM     11  C   UNL     1       1.183   9.389  19.369  0.00  0.00    +0.000 A 
ATOM     12  C   UNL     1       1.679   9.316  18.057  0.00  0.00    +0.000 A 
ATOM     13  C   UNL     1       2.406   8.203  17.631  0.00  0.00    +0.000 A 
BRANCH   8  14
ATOM     14  C   UNL     1       3.424   5.939  18.108  0.00  0.00    +0.000 C 
ATOM     15  O   UNL     1       2.914   4.913  17.688  0.00  0.00    +0.000 OA
BRANCH  14  17
ATOM     16  C   UNL     1       5.399   5.184  19.105  0.00  0.00    +0.000 C 
ATOM     17  O   UNL     1       4.753   6.153  18.281  0.00  0.00    +0.000 OA
ENDBRANCH  14  17
ENDBRANCH   8  14
ENDBRANCH   1  11
BRANCH   5  18
ATOM     18  C   UNL     1      -2.857  12.000  19.291  0.00  0.00    +0.000 A 
ATOM     19  C   UNL     1      -2.800  12.610  20.559  0.00  0.00    +0.000 A 
ATOM     20  C   UNL     1      -3.965  12.983  21.230  0.00  0.00    +0.000 A 
ATOM     21  C   UNL     1      -5.205  12.769  20.636  0.00  0.00    +0.000 A 
ATOM     22  C   UNL     1      -5.283  12.205  19.364  0.00  0.00    +0.000 A 
ATOM     23  C   UNL     1      -4.115  11.835  18.696  0.00  0.00    +0.000 A 
BRANCH  23  24
ATOM     24  O   UNL     1      -4.189  11.310  17.435  0.00  0.00    +0.000 OA
ATOM     25  H   UNL     1      -4.632  11.954  16.858  0.00  0.00    +0.000 HD
ENDBRANCH  23  24
ENDBRANCH   5  18
BRANCH   3  26
ATOM     26  C   UNL     1       1.527  13.915  18.630  0.00  0.00    +0.000 A 
ATOM     27  C   UNL     1       2.807  13.893  18.101  0.00  0.00    +0.000 A 
ATOM     28  C   UNL     1       3.363  15.196  17.935  0.00  0.00    +0.000 A 
ATOM     29  C   UNL     1       2.501  16.177  18.363  0.00  0.00    +0.000 A 
ATOM     30  S   UNL     1       1.042  15.528  18.962  0.00  0.00    +0.000 S 
ENDBRANCH   3  26
TORSDOF 6
ENDMDL
MODEL 4
REMARK VINA RESULT:      -7.1      2.381      5.008
REMARK  Name = 
REMARK  7 active torsions:
REMARK  status: ('A' for Active; 'I' for Inactive)
REMARK    1  A    between atoms: C_1  and  O_2
REMARK    2  A    between atoms: O_2  and  C_3
REMARK    3  A    between atoms: C_3  and  C_5
REMARK    4  A    between atoms: C_8  and  C_9
REMARK    5  A    between atoms: C_11  and  C_12
REMARK    6  A    between atoms: C_18  and  C_19
REMARK    7  A    between atoms: C_24  and  O_25
REMARK                            x       y       z     vdW  Elec       q    Type
REMARK                         _______ _______ _______ _____ _____    ______ ____
ROOT
ATOM      1  C   UNL     1       0.424  10.720  20.025  0.00  0.00    +0.000 C 
ATOM      2  N   UNL     1       1.169  11.911  19.690  0.00  0.00    +0.000 NA
ATOM      3  C   UNL     1       0.650  12.882  19.033  0.00  0.00    +0.000 C 
ATOM      4  C   UNL     1      -0.769  12.904  18.543  0.00  0.00    +0.000 C 
ATOM      5  C   UNL     1      -1.617  11.725  18.988  0.00  0.00    +0.000 C 
ATOM      6  N   UNL     1      -0.962  10.636  19.669  0.00  0.00    +0.000 NA
ATOM      7  H   UNL     1      -1.235   9.725  19.314  0.00  0.00    +0.000 HD
ENDROOT
BRANCH   1  11
ATOM      8  C   UNL     1       2.544   7.225  18.571  0.00  0.00    +0.000 A 
ATOM      9  C   UNL     1       2.281   8.297  17.711  0.00  0.00    +0.000 A 
ATOM     10  C   UNL     1       1.592   9.421  18.176  0.00  0.00    +0.000 A 
ATOM     11  C   UNL     1       1.155   9.489  19.507  0.00  0.00    +0.000 A 
ATOM     12  C   UNL     1       1.433   8.414  20.367  0.00  0.00    +0.000 A 
ATOM     13  C   UNL     1       2.121   7.291  19.905  0.00  0.00    +0.000 A 
BRANCH   8  14
ATOM     14  C   UNL     1       3.273   6.047  18.029  0.00  0.00    +0.000 C 
ATOM     15  O   UNL     1       4.483   6.010  17.877  0.00  0.00    +0.000 OA
BRANCH  14  17
ATOM     16  C   UNL     1       2.727   3.794  18.329  0.00  0.00    +0.000 C 
ATOM     17  O   UNL     1       2.403   5.049  17.732  0.00  0.00    +0.000 OA
ENDBRANCH  14  17
ENDBRANCH   8  14
ENDBRANCH   1  11
BRANCH   5  18
ATOM     18  C   UNL     1      -2.806  12.203  19.814  0.00  0.00    +0.000 A 
ATOM     19  C   UNL     1      -2.639  12.561  21.165  0.00  0.00    +0.000 A 
ATOM     20  C   UNL     1      -3.725  12.964  21.941  0.00  0.00    +0.000 A 
ATOM     21  C   UNL     1      -4.994  13.034  21.374  0.00  0.00    +0.000 A 
ATOM     22  C   UNL     1      -5.176  12.724  20.027  0.00  0.00    +0.000 A 
ATOM     23  C   UNL     1      -4.085  12.323  19.254  0.00  0.00    +0.000 A 
BRANCH  23  24
ATOM     24  O   UNL     1      -4.257  12.049  17.925  0.00  0.00    +0.000 OA
ATOM     25  H   UNL     1      -4.165  12.877  17.425  0.00  0.00    +0.000 HD
ENDBRANCH  23  24
ENDBRANCH   5  18
BRANCH   3  26
ATOM     26  C   UNL     1       1.535  13.999  18.693  0.00  0.00    +0.000 A 
ATOM     27  C   UNL     1       2.792  13.934  18.112  0.00  0.00    +0.000 A 
ATOM     28  C   UNL     1       3.351  15.219  17.852  0.00  0.00    +0.000 A 
ATOM     29  C   UNL     1       2.517  16.232  18.261  0.00  0.00    +0.000 A 
ATOM     30  S   UNL     1       1.080  15.633  18.956  0.00  0.00    +0.000 S 
ENDBRANCH   3  26
TORSDOF 6
ENDMDL
MODEL 5
REMARK VINA RESULT:      -7.1      2.411      4.992
REMARK  Name = 
REMARK  7 active torsions:
REMARK  status: ('A' for Active; 'I' for Inactive)
REMARK    1  A    between atoms: C_1  and  O_2
REMARK    2  A    between atoms: O_2  and  C_3
REMARK    3  A    between atoms: C_3  and  C_5
REMARK    4  A    between atoms: C_8  and  C_9
REMARK    5  A    between atoms: C_11  and  C_12
REMARK    6  A    between atoms: C_18  and  C_19
REMARK    7  A    between atoms: C_24  and  O_25
REMARK                            x       y       z     vdW  Elec       q    Type
REMARK                         _______ _______ _______ _____ _____    ______ ____
ROOT
ATOM      1  C   UNL     1       0.208  10.577  19.907  0.00  0.00    +0.000 C 
ATOM      2  N   UNL     1       0.974  11.780  19.680  0.00  0.00    +0.000 NA
ATOM      3  C   UNL     1       0.572  12.711  18.894  0.00  0.00    +0.000 C 
ATOM      4  C   UNL     1      -0.721  12.668  18.132  0.00  0.00    +0.000 C 
ATOM      5  C   UNL     1      -1.609  11.478  18.446  0.00  0.00    +0.000 C 
ATOM      6  N   UNL     1      -1.076  10.435  19.286  0.00  0.00    +0.000 NA
ATOM      7  H   UNL     1      -1.249   9.504  18.920  0.00  0.00    +0.000 HD
ENDROOT
BRANCH   1  11
ATOM      8  C   UNL     1       2.600   7.076  18.990  0.00  0.00    +0.000 A 
ATOM      9  C   UNL     1       2.051   7.238  20.267  0.00  0.00    +0.000 A 
ATOM     10  C   UNL     1       1.285   8.368  20.567  0.00  0.00    +0.000 A 
ATOM     11  C   UNL     1       1.059   9.354  19.594  0.00  0.00    +0.000 A 
ATOM     12  C   UNL     1       1.604   9.178  18.312  0.00  0.00    +0.000 A 
ATOM     13  C   UNL     1       2.369   8.050  18.011  0.00  0.00    +0.000 A 
BRANCH   8  14
ATOM     14  C   UNL     1       3.414   5.860  18.721  0.00  0.00    +0.000 C 
ATOM     15  O   UNL     1       4.397   5.545  19.373  0.00  0.00    +0.000 OA
BRANCH  14  17
ATOM     16  C   UNL     1       1.801   4.340  17.979  0.00  0.00    +0.000 C 
ATOM     17  O   UNL     1       2.911   5.179  17.661  0.00  0.00    +0.000 OA
ENDBRANCH  14  17
ENDBRANCH   8  14
ENDBRANCH   1  11
BRANCH   5  18
ATOM     18  C   UNL     1      -2.951  11.944  18.999  0.00  0.00    +0.000 A 
ATOM     19  C   UNL     1      -4.130  11.776  18.247  0.00  0.00    +0.000 A 
ATOM     20  C   UNL     1      -5.358  12.231  18.726  0.00  0.00    +0.000 A 
ATOM     21  C   UNL     1      -5.432  12.845  19.973  0.00  0.00    +0.000 A 
ATOM     22  C   UNL     1      -4.284  12.985  20.752  0.00  0.00    +0.000 A 
ATOM     23  C   UNL     1      -3.058  12.526  20.269  0.00  0.00    +0.000 A 
BRANCH  23  24
ATOM     24  O   UNL     1      -1.937  12.634  21.046  0.00  0.00    +0.000 OA
ATOM     25  H   UNL     1      -1.747  13.576  21.185  0.00  0.00    +0.000 HD
ENDBRANCH  23  24
ENDBRANCH   5  18
BRANCH   3  26
ATOM     26  C   UNL     1       1.478  13.845  18.693  0.00  0.00    +0.000 A 
ATOM     27  C   UNL     1       2.775  13.812  18.208  0.00  0.00    +0.000 A 
ATOM     28  C   UNL     1       3.350  15.110  18.071  0.00  0.00    +0.000 A 
ATOM     29  C   UNL     1       2.485  16.097  18.477  0.00  0.00    +0.000 A 
ATOM     30  S   UNL     1       1.000  15.460  19.021  0.00  0.00    +0.000 S 
ENDBRANCH   3  26
TORSDOF 6
ENDMDL
MODEL 6
REMARK VINA RESULT:      -7.1      2.472      5.013
REMARK  Name = 
REMARK  7 active torsions:
REMARK  status: ('A' for Active; 'I' for Inactive)
REMARK    1  A    between atoms: C_1  and  O_2
REMARK    2  A    between atoms: O_2  and  C_3
REMARK    3  A    between atoms: C_3  and  C_5
REMARK    4  A    between atoms: C_8  and  C_9
REMARK    5  A    between atoms: C_11  and  C_12
REMARK    6  A    between atoms: C_18  and  C_19
REMARK    7  A    between atoms: C_24  and  O_25
REMARK                            x       y       z     vdW  Elec       q    Type
REMARK                         _______ _______ _______ _____ _____    ______ ____
ROOT
ATOM      1  C   UNL     1       0.213  10.529  19.828  0.00  0.00    +0.000 C 
ATOM      2  N   UNL     1       0.973  11.738  19.609  0.00  0.00    +0.000 NA
ATOM      3  C   UNL     1       0.555  12.680  18.846  0.00  0.00    +0.000 C 
ATOM      4  C   UNL     1      -0.750  12.647  18.103  0.00  0.00    +0.000 C 
ATOM      5  C   UNL     1      -1.630  11.449  18.411  0.00  0.00    +0.000 C 
ATOM      6  N   UNL     1      -1.080  10.393  19.225  0.00  0.00    +0.000 NA
ATOM      7  H   UNL     1      -1.256   9.468  18.846  0.00  0.00    +0.000 HD
ENDROOT
BRANCH   1  11
ATOM      8  C   UNL     1       2.669   7.085  18.863  0.00  0.00    +0.000 A 
ATOM      9  C   UNL     1       2.426   8.068  17.898  0.00  0.00    +0.000 A 
ATOM     10  C   UNL     1       1.630   9.175  18.205  0.00  0.00    +0.000 A 
ATOM     11  C   UNL     1       1.063   9.314  19.481  0.00  0.00    +0.000 A 
ATOM     12  C   UNL     1       1.321   8.329  20.447  0.00  0.00    +0.000 A 
ATOM     13  C   UNL     1       2.117   7.223  20.143  0.00  0.00    +0.000 A 
BRANCH   8  14
ATOM     14  C   UNL     1       3.516   5.921  18.488  0.00  0.00    +0.000 C 
ATOM     15  O   UNL     1       3.501   5.400  17.385  0.00  0.00    +0.000 OA
BRANCH  14  17
ATOM     16  C   UNL     1       5.629   5.209  19.193  0.00  0.00    +0.000 C 
ATOM     17  O   UNL     1       4.283   5.535  19.539  0.00  0.00    +0.000 OA
ENDBRANCH  14  17
ENDBRANCH   8  14
ENDBRANCH   1  11
BRANCH   5  18
ATOM     18  C   UNL     1      -2.964  11.901  18.993  0.00  0.00    +0.000 A 
ATOM     19  C   UNL     1      -4.158  11.710  18.272  0.00  0.00    +0.000 A 
ATOM     20  C   UNL     1      -5.381  12.153  18.777  0.00  0.00    +0.000 A 
ATOM     21  C   UNL     1      -5.432  12.777  20.020  0.00  0.00    +0.000 A 
ATOM     22  C   UNL     1      -4.268  12.939  20.769  0.00  0.00    +0.000 A 
ATOM     23  C   UNL     1      -3.047  12.493  20.260  0.00  0.00    +0.000 A 
BRANCH  23  24
ATOM     24  O   UNL     1      -1.909  12.623  21.009  0.00  0.00    +0.000 OA
ATOM     25  H   UNL     1      -2.070  12.234  21.885  0.00  0.00    +0.000 HD
ENDBRANCH  23  24
ENDBRANCH   5  18
BRANCH   3  26
ATOM     26  C   UNL     1       1.455  13.820  18.649  0.00  0.00    +0.000 A 
ATOM     27  C   UNL     1       2.755  13.797  18.170  0.00  0.00    +0.000 A 
ATOM     28  C   UNL     1       3.322  15.098  18.038  0.00  0.00    +0.000 A 
ATOM     29  C   UNL     1       2.448  16.080  18.440  0.00  0.00    +0.000 A 
ATOM     30  S   UNL     1       0.965  15.433  18.977  0.00  0.00    +0.000 S 
ENDBRANCH   3  26
TORSDOF 6
ENDMDL
MODEL 7
REMARK VINA RESULT:      -7.1      2.812      5.187
REMARK  Name = 
REMARK  7 active torsions:
REMARK  status: ('A' for Active; 'I' for Inactive)
REMARK    1  A    between atoms: C_1  and  O_2
REMARK    2  A    between atoms: O_2  and  C_3
REMARK    3  A    between atoms: C_3  and  C_5
REMARK    4  A    between atoms: C_8  and  C_9
REMARK    5  A    between atoms: C_11  and  C_12
REMARK    6  A    between atoms: C_18  and  C_19
REMARK    7  A    between atoms: C_24  and  O_25
REMARK                            x       y       z     vdW  Elec       q    Type
REMARK                         _______ _______ _______ _____ _____    ______ ____
ROOT
ATOM      1  C   UNL     1       0.160  10.586  19.753  0.00  0.00    +0.000 C 
ATOM      2  N   UNL     1       0.882  11.827  19.599  0.00  0.00    +0.000 NA
ATOM      3  C   UNL     1       0.441  12.792  18.878  0.00  0.00    +0.000 C 
ATOM      4  C   UNL     1      -0.855  12.752  18.121  0.00  0.00    +0.000 C 
ATOM      5  C   UNL     1      -1.699  11.514  18.363  0.00  0.00    +0.000 C 
ATOM      6  N   UNL     1      -1.123  10.438  19.131  0.00  0.00    +0.000 NA
ATOM      7  H   UNL     1      -1.266   9.527  18.707  0.00  0.00    +0.000 HD
ENDROOT
BRANCH   1  11
ATOM      8  C   UNL     1       2.666   7.236  18.602  0.00  0.00    +0.000 A 
ATOM      9  C   UNL     1       2.184   7.337  19.912  0.00  0.00    +0.000 A 
ATOM     10  C   UNL     1       1.382   8.419  20.287  0.00  0.00    +0.000 A 
ATOM     11  C   UNL     1       1.052   9.416  19.357  0.00  0.00    +0.000 A 
ATOM     12  C   UNL     1       1.530   9.302  18.042  0.00  0.00    +0.000 A 
ATOM     13  C   UNL     1       2.331   8.223  17.666  0.00  0.00    +0.000 A 
BRANCH   8  14
ATOM     14  C   UNL     1       3.523   6.072  18.252  0.00  0.00    +0.000 C 
ATOM     15  O   UNL     1       4.172   5.993  17.222  0.00  0.00    +0.000 OA
BRANCH  14  17
ATOM     16  C   UNL     1       4.445   4.101  19.108  0.00  0.00    +0.000 C 
ATOM     17  O   UNL     1       3.465   5.132  19.230  0.00  0.00    +0.000 OA
ENDBRANCH  14  17
ENDBRANCH   8  14
ENDBRANCH   1  11
BRANCH   5  18
ATOM     18  C   UNL     1      -3.052  11.895  18.951  0.00  0.00    +0.000 A 
ATOM     19  C   UNL     1      -3.127  12.631  20.149  0.00  0.00    +0.000 A 
ATOM     20  C   UNL     1      -4.359  12.954  20.718  0.00  0.00    +0.000 A 
ATOM     21  C   UNL     1      -5.537  12.562  20.088  0.00  0.00    +0.000 A 
ATOM     22  C   UNL     1      -5.487  11.868  18.880  0.00  0.00    +0.000 A 
ATOM     23  C   UNL     1      -4.251  11.549  18.314  0.00  0.00    +0.000 A 
BRANCH  23  24
ATOM     24  O   UNL     1      -4.201  10.897  17.113  0.00  0.00    +0.000 OA
ATOM     25  H   UNL     1      -3.320  11.029  16.726  0.00  0.00    +0.000 HD
ENDBRANCH  23  24
ENDBRANCH   5  18
BRANCH   3  26
ATOM     26  C   UNL     1       1.306  13.968  18.745  0.00  0.00    +0.000 A 
ATOM     27  C   UNL     1       0.946  15.299  18.883  0.00  0.00    +0.000 A 
ATOM     28  C   UNL     1       2.053  16.189  18.759  0.00  0.00    +0.000 A 
ATOM     29  C   UNL     1       3.225  15.516  18.508  0.00  0.00    +0.000 A 
ATOM     30  S   UNL     1       2.985  13.830  18.417  0.00  0.00    +0.000 S 
ENDBRANCH   3  26
TORSDOF 6
ENDMDL
MODEL 8
REMARK VINA RESULT:      -7.0      2.920      4.344
REMARK  Name = 
REMARK  7 active torsions:
REMARK  status: ('A' for Active; 'I' for Inactive)
REMARK    1  A    between atoms: C_1  and  O_2
REMARK    2  A    between atoms: O_2  and  C_3
REMARK    3  A    between atoms: C_3  and  C_5
REMARK    4  A    between atoms: C_8  and  C_9
REMARK    5  A    between atoms: C_11  and  C_12
REMARK    6  A    between atoms: C_18  and  C_19
REMARK    7  A    between atoms: C_24  and  O_25
REMARK                            x       y       z     vdW  Elec       q    Type
REMARK                         _______ _______ _______ _____ _____    ______ ____
ROOT
ATOM      1  C   UNL     1       0.935  10.386  19.349  0.00  0.00    +0.000 C 
ATOM      2  N   UNL     1      -0.134  10.500  18.384  0.00  0.00    +0.000 NA
ATOM      3  C   UNL     1      -1.329  10.821  18.720  0.00  0.00    +0.000 C 
ATOM      4  C   UNL     1      -1.758  11.114  20.128  0.00  0.00    +0.000 C 
ATOM      5  C   UNL     1      -0.634  11.128  21.148  0.00  0.00    +0.000 C 
ATOM      6  N   UNL     1       0.675  10.698  20.724  0.00  0.00    +0.000 NA
ATOM      7  H   UNL     1       1.111  10.054  21.375  0.00  0.00    +0.000 HD
ENDROOT
BRANCH   1  11
ATOM      8  C   UNL     1       2.783   6.468  19.109  0.00  0.00    +0.000 A 
ATOM      9  C   UNL     1       2.847   7.344  18.020  0.00  0.00    +0.000 A 
ATOM     10  C   UNL     1       2.247   8.605  18.093  0.00  0.00    +0.000 A 
ATOM     11  C   UNL     1       1.572   9.006  19.255  0.00  0.00    +0.000 A 
ATOM     12  C   UNL     1       1.521   8.126  20.348  0.00  0.00    +0.000 A 
ATOM     13  C   UNL     1       2.120   6.867  20.277  0.00  0.00    +0.000 A 
BRANCH   8  14
ATOM     14  C   UNL     1       3.429   5.134  18.982  0.00  0.00    +0.000 C 
ATOM     15  O   UNL     1       2.950   4.104  19.425  0.00  0.00    +0.000 OA
BRANCH  14  17
ATOM     16  C   UNL     1       5.760   5.199  19.162  0.00  0.00    +0.000 C 
ATOM     17  O   UNL     1       4.609   5.242  18.319  0.00  0.00    +0.000 OA
ENDBRANCH  14  17
ENDBRANCH   8  14
ENDBRANCH   1  11
BRANCH   5  18
ATOM     18  C   UNL     1      -0.532  12.496  21.813  0.00  0.00    +0.000 A 
ATOM     19  C   UNL     1       0.357  13.468  21.313  0.00  0.00    +0.000 A 
ATOM     20  C   UNL     1       0.487  14.710  21.934  0.00  0.00    +0.000 A 
ATOM     21  C   UNL     1      -0.283  15.008  23.055  0.00  0.00    +0.000 A 
ATOM     22  C   UNL     1      -1.199  14.077  23.541  0.00  0.00    +0.000 A 
ATOM     23  C   UNL     1      -1.327  12.836  22.915  0.00  0.00    +0.000 A 
BRANCH  23  24
ATOM     24  O   UNL     1      -2.248  11.935  23.373  0.00  0.00    +0.000 OA
ATOM     25  H   UNL     1      -2.988  11.902  22.743  0.00  0.00    +0.000 HD
ENDBRANCH  23  24
ENDBRANCH   5  18
BRANCH   3  26
ATOM     26  C   UNL     1      -2.336  10.828  17.655  0.00  0.00    +0.000 A 
ATOM     27  C   UNL     1      -2.229  10.276  16.388  0.00  0.00    +0.000 A 
ATOM     28  C   UNL     1      -3.426  10.402  15.625  0.00  0.00    +0.000 A 
ATOM     29  C   UNL     1      -4.408  11.068  16.319  0.00  0.00    +0.000 A 
ATOM     30  S   UNL     1      -3.884  11.538  17.872  0.00  0.00    +0.000 S 
ENDBRANCH   3  26
TORSDOF 6
ENDMDL
MODEL 9
REMARK VINA RESULT:      -7.0      2.468      2.852
REMARK  Name = 
REMARK  7 active torsions:
REMARK  status: ('A' for Active; 'I' for Inactive)
REMARK    1  A    between atoms: C_1  and  O_2
REMARK    2  A    between atoms: O_2  and  C_3
REMARK    3  A    between atoms: C_3  and  C_5
REMARK    4  A    between atoms: C_8  and  C_9
REMARK    5  A    between atoms: C_11  and  C_12
REMARK    6  A    between atoms: C_18  and  C_19
REMARK    7  A    between atoms: C_24  and  O_25
REMARK                            x       y       z     vdW  Elec       q    Type
REMARK                         _______ _______ _______ _____ _____    ______ ____
ROOT
ATOM      1  C   UNL     1       1.143  10.672  18.559  0.00  0.00    +0.000 C 
ATOM      2  N   UNL     1      -0.197  10.692  18.020  0.00  0.00    +0.000 NA
ATOM      3  C   UNL     1      -1.110  11.466  18.480  0.00  0.00    +0.000 C 
ATOM      4  C   UNL     1      -0.903  12.432  19.611  0.00  0.00    +0.000 C 
ATOM      5  C   UNL     1       0.525  12.529  20.116  0.00  0.00    +0.000 C 
ATOM      6  N   UNL     1       1.491  11.589  19.605  0.00  0.00    +0.000 NA
ATOM      7  H   UNL     1       2.065  11.175  20.332  0.00  0.00    +0.000 HD
ENDROOT
BRANCH   1  11
ATOM      8  C   UNL     1       2.219   6.656  19.797  0.00  0.00    +0.000 A 
ATOM      9  C   UNL     1       2.515   7.096  18.501  0.00  0.00    +0.000 A 
ATOM     10  C   UNL     1       2.163   8.387  18.099  0.00  0.00    +0.000 A 
ATOM     11  C   UNL     1       1.509   9.256  18.985  0.00  0.00    +0.000 A 
ATOM     12  C   UNL     1       1.226   8.811  20.286  0.00  0.00    +0.000 A 
ATOM     13  C   UNL     1       1.577   7.522  20.690  0.00  0.00    +0.000 A 
BRANCH   8  14
ATOM     14  C   UNL     1       2.606   5.270  20.177  0.00  0.00    +0.000 C 
ATOM     15  O   UNL     1       3.627   4.723  19.795  0.00  0.00    +0.000 OA
BRANCH  14  17
ATOM     16  C   UNL     1       1.975   3.403  21.434  0.00  0.00    +0.000 C 
ATOM     17  O   UNL     1       1.665   4.723  20.988  0.00  0.00    +0.000 OA
ENDBRANCH  14  17
ENDBRANCH   8  14
ENDBRANCH   1  11
BRANCH   5  18
ATOM     18  C   UNL     1       1.056  13.948  19.951  0.00  0.00    +0.000 A 
ATOM     19  C   UNL     1       0.376  14.874  19.137  0.00  0.00    +0.000 A 
ATOM     20  C   UNL     1       0.871  16.164  18.948  0.00  0.00    +0.000 A 
ATOM     21  C   UNL     1       2.045  16.556  19.584  0.00  0.00    +0.000 A 
ATOM     22  C   UNL     1       2.712  15.669  20.428  0.00  0.00    +0.000 A 
ATOM     23  C   UNL     1       2.212  14.379  20.615  0.00  0.00    +0.000 A 
BRANCH  23  24
ATOM     24  O   UNL     1       2.848  13.519  21.467  0.00  0.00    +0.000 OA
ATOM     25  H   UNL     1       2.200  12.876  21.798  0.00  0.00    +0.000 HD
ENDBRANCH  23  24
ENDBRANCH   5  18
BRANCH   3  26
ATOM     26  C   UNL     1      -2.447  11.335  17.894  0.00  0.00    +0.000 A 
ATOM     27  C   UNL     1      -3.663  11.609  18.498  0.00  0.00    +0.000 A 
ATOM     28  C   UNL     1      -4.771  11.439  17.617  0.00  0.00    +0.000 A 
ATOM     29  C   UNL     1      -4.374  11.018  16.370  0.00  0.00    +0.000 A 
ATOM     30  S   UNL     1      -2.682  10.825  16.272  0.00  0.00    +0.000 S 
ENDBRANCH   3  26
TORSDOF 6
ENDMDL
