MODEL 1
REMARK VINA RESULT:      -8.0      0.000      0.000
REMARK  Name = 
REMARK  5 active torsions:
REMARK  status: ('A' for Active; 'I' for Inactive)
REMARK    1  A    between atoms: C_2  and  C_3
REMARK    2  A    between atoms: C_5  and  C_6
REMARK    3  A    between atoms: C_12  and  N_13
REMARK    4  A    between atoms: C_20  and  S_21
REMARK    5  A    between atoms: S_21  and  N_24
REMARK                            x       y       z     vdW  Elec       q    Type
REMARK                         _______ _______ _______ _____ _____    ______ ____
ROOT
ATOM      1  N   UNL     1       3.572   4.284  19.053  0.00  0.00    +0.000 N 
ATOM      2  C   UNL     1       3.484   3.074  19.744  0.00  0.00    +0.000 C 
ATOM      3  O   UNL     1       3.947   2.007  19.334  0.00  0.00    +0.000 OA
ATOM      4  C   UNL     1       2.799   3.161  21.099  0.00  0.00    +0.000 C 
ATOM      5  O   UNL     1       1.814   4.152  21.305  0.00  0.00    +0.000 OA
ATOM      6  C   UNL     1       2.075   5.332  20.667  0.00  0.00    +0.000 A 
ATOM      7  C   UNL     1       1.395   6.438  21.183  0.00  0.00    +0.000 A 
ATOM      8  C   UNL     1       1.573   7.691  20.601  0.00  0.00    +0.000 A 
ATOM      9  C   UNL     1       2.396   7.840  19.487  0.00  0.00    +0.000 A 
ATOM     10  C   UNL     1       3.071   6.724  18.974  0.00  0.00    +0.000 A 
ATOM     11  C   UNL     1       2.911   5.448  19.546  0.00  0.00    +0.000 A 
ENDROOT
BRANCH   1  17
ATOM     12  C   UNL     1       5.649   4.617  17.738  0.00  0.00    +0.000 A 
ATOM     13  C   UNL     1       6.310   4.587  16.498  0.00  0.00    +0.000 A 
ATOM     14  C   UNL     1       5.625   4.260  15.320  0.00  0.00    +0.000 A 
ATOM     15  C   UNL     1       4.256   3.960  15.396  0.00  0.00    +0.000 A 
ATOM     16  C   UNL     1       3.588   3.989  16.627  0.00  0.00    +0.000 A 
ATOM     17  C   UNL     1       4.271   4.322  17.808  0.00  0.00    +0.000 A 
BRANCH  14  18
ATOM     18  C   UNL     1       6.335   4.213  13.985  0.00  0.00    +0.000 C 
ATOM     19  F   UNL     1       7.427   5.024  13.928  0.00  0.00    +0.000 F 
ATOM     20  F   UNL     1       6.771   2.966  13.671  0.00  0.00    +0.000 F 
ATOM     21  F   UNL     1       5.526   4.602  12.960  0.00  0.00    +0.000 F 
ENDBRANCH  14  18
BRANCH  12  23
ATOM     22  N   UNL     1       7.015   5.403  19.802  0.00  0.00    +0.000 NA
ATOM     23  C   UNL     1       6.393   5.034  18.893  0.00  0.00    +0.000 C 
ENDBRANCH  12  23
ENDBRANCH   1  17
BRANCH   8  24
ATOM     24  S   UNL     1       0.651   9.075  21.230  0.00  0.00    +0.000 S 
ATOM     25  O   UNL     1      -0.749   8.702  21.197  0.00  0.00    +0.000 OA
ATOM     26  O   UNL     1       1.282   9.495  22.461  0.00  0.00    +0.000 OA
BRANCH  24  27
ATOM     27  N   UNL     1       0.854  10.215  19.998  0.00  0.00    +0.000 N 
ATOM     28  C   UNL     1      -0.381  10.634  19.458  0.00  0.00    +0.000 A 
ATOM     29  N   UNL     1      -0.758  10.159  18.299  0.00  0.00    +0.000 NA
ATOM     30  C   UNL     1      -1.995  10.691  17.983  0.00  0.00    +0.000 A 
ATOM     31  C   UNL     1      -2.473  11.649  18.853  0.00  0.00    +0.000 A 
ATOM     32  S   UNL     1      -1.364  11.850  20.147  0.00  0.00    +0.000 S 
ATOM     33  H   UNL     1       1.386   9.746  19.263  0.00  0.00    +0.000 HD
ENDBRANCH  24  27
ENDBRANCH   8  24
TORSDOF 5
ENDMDL
MODEL 2
REMARK VINA RESULT:      -8.0      1.005      1.245
REMARK  Name = 
REMARK  5 active torsions:
REMARK  status: ('A' for Active; 'I' for Inactive)
REMARK    1  A    between atoms: C_2  and  C_3
REMARK    2  A    between atoms: C_5  and  C_6
REMARK    3  A    between atoms: C_12  and  N_13
REMARK    4  A    between atoms: C_20  and  S_21
REMARK    5  A    between atoms: S_21  and  N_24
REMARK                            x       y       z     vdW  Elec       q    Type
REMARK                         _______ _______ _______ _____ _____    ______ ____
ROOT
ATOM      1  N   UNL     1       3.720   4.240  19.109  0.00  0.00    +0.000 N 
ATOM      2  C   UNL     1       3.668   3.005  19.756  0.00  0.00    +0.000 C 
ATOM      3  O   UNL     1       4.204   1.978  19.333  0.00  0.00    +0.000 OA
ATOM      4  C   UNL     1       2.925   3.010  21.084  0.00  0.00    +0.000 C 
ATOM      5  O   UNL     1       1.881   3.942  21.279  0.00  0.00    +0.000 OA
ATOM      6  C   UNL     1       2.106   5.155  20.690  0.00  0.00    +0.000 A 
ATOM      7  C   UNL     1       1.347   6.205  21.211  0.00  0.00    +0.000 A 
ATOM      8  C   UNL     1       1.482   7.486  20.678  0.00  0.00    +0.000 A 
ATOM      9  C   UNL     1       2.341   7.714  19.606  0.00  0.00    +0.000 A 
ATOM     10  C   UNL     1       3.094   6.652  19.086  0.00  0.00    +0.000 A 
ATOM     11  C   UNL     1       2.978   5.351  19.610  0.00  0.00    +0.000 A 
ENDROOT
BRANCH   1  17
ATOM     12  C   UNL     1       5.834   4.702  17.896  0.00  0.00    +0.000 A 
ATOM     13  C   UNL     1       6.545   4.749  16.684  0.00  0.00    +0.000 A 
ATOM     14  C   UNL     1       5.919   4.450  15.466  0.00  0.00    +0.000 A 
ATOM     15  C   UNL     1       4.560   4.099  15.473  0.00  0.00    +0.000 A 
ATOM     16  C   UNL     1       3.843   4.052  16.675  0.00  0.00    +0.000 A 
ATOM     17  C   UNL     1       4.466   4.357  17.896  0.00  0.00    +0.000 A 
BRANCH  14  18
ATOM     18  C   UNL     1       6.683   4.486  14.161  0.00  0.00    +0.000 C 
ATOM     19  F   UNL     1       6.215   5.419  13.289  0.00  0.00    +0.000 F 
ATOM     20  F   UNL     1       8.002   4.758  14.338  0.00  0.00    +0.000 F 
ATOM     21  F   UNL     1       6.627   3.295  13.501  0.00  0.00    +0.000 F 
ENDBRANCH  14  18
BRANCH  12  23
ATOM     22  N   UNL     1       7.100   5.382  20.059  0.00  0.00    +0.000 NA
ATOM     23  C   UNL     1       6.516   5.094  19.097  0.00  0.00    +0.000 C 
ENDBRANCH  12  23
ENDBRANCH   1  17
BRANCH   8  24
ATOM     24  S   UNL     1       0.463   8.797  21.311  0.00  0.00    +0.000 S 
ATOM     25  O   UNL     1      -0.787   8.198  21.734  0.00  0.00    +0.000 OA
ATOM     26  O   UNL     1       1.269   9.569  22.231  0.00  0.00    +0.000 OA
BRANCH  24  27
ATOM     27  N   UNL     1       0.106   9.667  19.905  0.00  0.00    +0.000 N 
ATOM     28  C   UNL     1      -0.106  11.037  20.172  0.00  0.00    +0.000 A 
ATOM     29  N   UNL     1      -1.331  11.495  20.190  0.00  0.00    +0.000 NA
ATOM     30  C   UNL     1      -1.295  12.845  20.487  0.00  0.00    +0.000 A 
ATOM     31  C   UNL     1      -0.037  13.405  20.568  0.00  0.00    +0.000 A 
ATOM     32  S   UNL     1       1.148  12.188  20.325  0.00  0.00    +0.000 S 
ATOM     33  H   UNL     1      -0.761   9.270  19.540  0.00  0.00    +0.000 HD
ENDBRANCH  24  27
ENDBRANCH   8  24
TORSDOF 5
ENDMDL
MODEL 3
REMARK VINA RESULT:      -8.0      5.415      9.420
REMARK  Name = 
REMARK  5 active torsions:
REMARK  status: ('A' for Active; 'I' for Inactive)
REMARK    1  A    between atoms: C_2  and  C_3
REMARK    2  A    between atoms: C_5  and  C_6
REMARK    3  A    between atoms: C_12  and  N_13
REMARK    4  A    between atoms: C_20  and  S_21
REMARK    5  A    between atoms: S_21  and  N_24
REMARK                            x       y       z     vdW  Elec       q    Type
REMARK                         _______ _______ _______ _____ _____    ______ ____
ROOT
ATOM      1  N   UNL     1       0.342  11.317  20.935  0.00  0.00    +0.000 N 
ATOM      2  C   UNL     1      -0.211  11.208  22.212  0.00  0.00    +0.000 C 
ATOM      3  O   UNL     1      -0.657  12.159  22.857  0.00  0.00    +0.000 OA
ATOM      4  C   UNL     1      -0.276   9.791  22.761  0.00  0.00    +0.000 C 
ATOM      5  O   UNL     1       0.688   8.849  22.339  0.00  0.00    +0.000 OA
ATOM      6  C   UNL     1       1.063   8.990  21.033  0.00  0.00    +0.000 A 
ATOM      7  C   UNL     1       1.649   7.854  20.468  0.00  0.00    +0.000 A 
ATOM      8  C   UNL     1       2.084   7.886  19.145  0.00  0.00    +0.000 A 
ATOM      9  C   UNL     1       1.971   9.055  18.396  0.00  0.00    +0.000 A 
ATOM     10  C   UNL     1       1.386  10.191  18.972  0.00  0.00    +0.000 A 
ATOM     11  C   UNL     1       0.936  10.182  20.305  0.00  0.00    +0.000 A 
ENDROOT
BRANCH   1  17
ATOM     12  C   UNL     1      -0.692  13.045  19.486  0.00  0.00    +0.000 A 
ATOM     13  C   UNL     1      -0.648  14.333  18.926  0.00  0.00    +0.000 A 
ATOM     14  C   UNL     1       0.434  15.190  19.165  0.00  0.00    +0.000 A 
ATOM     15  C   UNL     1       1.485  14.741  19.979  0.00  0.00    +0.000 A 
ATOM     16  C   UNL     1       1.452  13.458  20.541  0.00  0.00    +0.000 A 
ATOM     17  C   UNL     1       0.371  12.595  20.298  0.00  0.00    +0.000 A 
BRANCH  14  18
ATOM     18  C   UNL     1       0.479  16.583  18.575  0.00  0.00    +0.000 C 
ATOM     19  F   UNL     1       0.467  17.567  19.515  0.00  0.00    +0.000 F 
ATOM     20  F   UNL     1       1.588  16.793  17.820  0.00  0.00    +0.000 F 
ATOM     21  F   UNL     1      -0.586  16.830  17.762  0.00  0.00    +0.000 F 
ENDBRANCH  14  18
BRANCH  12  23
ATOM     22  N   UNL     1      -2.695  11.531  18.826  0.00  0.00    +0.000 NA
ATOM     23  C   UNL     1      -1.793  12.191  19.139  0.00  0.00    +0.000 C 
ENDBRANCH  12  23
ENDBRANCH   1  17
BRANCH   8  24
ATOM     24  S   UNL     1       2.883   6.453  18.463  0.00  0.00    +0.000 S 
ATOM     25  O   UNL     1       1.839   5.588  17.952  0.00  0.00    +0.000 OA
ATOM     26  O   UNL     1       3.953   6.917  17.608  0.00  0.00    +0.000 OA
BRANCH  24  27
ATOM     27  N   UNL     1       3.474   5.692  19.853  0.00  0.00    +0.000 N 
ATOM     28  C   UNL     1       2.826   4.461  20.096  0.00  0.00    +0.000 A 
ATOM     29  N   UNL     1       1.915   4.401  21.034  0.00  0.00    +0.000 NA
ATOM     30  C   UNL     1       1.410   3.115  21.079  0.00  0.00    +0.000 A 
ATOM     31  C   UNL     1       2.034   2.199  20.257  0.00  0.00    +0.000 A 
ATOM     32  S   UNL     1       3.257   2.987  19.348  0.00  0.00    +0.000 S 
ATOM     33  H   UNL     1       3.272   6.323  20.629  0.00  0.00    +0.000 HD
ENDBRANCH  24  27
ENDBRANCH   8  24
TORSDOF 5
ENDMDL
MODEL 4
REMARK VINA RESULT:      -7.9      5.399      9.264
REMARK  Name = 
REMARK  5 active torsions:
REMARK  status: ('A' for Active; 'I' for Inactive)
REMARK    1  A    between atoms: C_2  and  C_3
REMARK    2  A    between atoms: C_5  and  C_6
REMARK    3  A    between atoms: C_12  and  N_13
REMARK    4  A    between atoms: C_20  and  S_21
REMARK    5  A    between atoms: S_21  and  N_24
REMARK                            x       y       z     vdW  Elec       q    Type
REMARK                         _______ _______ _______ _____ _____    ______ ____
ROOT
ATOM      1  N   UNL     1       0.415  11.043  20.829  0.00  0.00    +0.000 N 
ATOM      2  C   UNL     1      -0.167  10.889  22.088  0.00  0.00    +0.000 C 
ATOM      3  O   UNL     1      -0.656  11.812  22.743  0.00  0.00    +0.000 OA
ATOM      4  C   UNL     1      -0.207   9.458  22.603  0.00  0.00    +0.000 C 
ATOM      5  O   UNL     1       0.794   8.554  22.185  0.00  0.00    +0.000 OA
ATOM      6  C   UNL     1       1.199   8.736  20.892  0.00  0.00    +0.000 A 
ATOM      7  C   UNL     1       1.830   7.630  20.317  0.00  0.00    +0.000 A 
ATOM      8  C   UNL     1       2.298   7.706  19.007  0.00  0.00    +0.000 A 
ATOM      9  C   UNL     1       2.172   8.889  18.282  0.00  0.00    +0.000 A 
ATOM     10  C   UNL     1       1.541   9.994  18.869  0.00  0.00    +0.000 A 
ATOM     11  C   UNL     1       1.057   9.941  20.189  0.00  0.00    +0.000 A 
ENDROOT
BRANCH   1  17
ATOM     12  C   UNL     1      -0.615  12.766  19.372  0.00  0.00    +0.000 A 
ATOM     13  C   UNL     1      -0.595  14.069  18.843  0.00  0.00    +0.000 A 
ATOM     14  C   UNL     1       0.442  14.959  19.152  0.00  0.00    +0.000 A 
ATOM     15  C   UNL     1       1.470  14.530  20.005  0.00  0.00    +0.000 A 
ATOM     16  C   UNL     1       1.460  13.233  20.536  0.00  0.00    +0.000 A 
ATOM     17  C   UNL     1       0.425  12.337  20.223  0.00  0.00    +0.000 A 
BRANCH  14  18
ATOM     18  C   UNL     1       0.460  16.366  18.596  0.00  0.00    +0.000 C 
ATOM     19  F   UNL     1       1.564  16.634  17.846  0.00  0.00    +0.000 F 
ATOM     20  F   UNL     1      -0.611  16.626  17.803  0.00  0.00    +0.000 F 
ATOM     21  F   UNL     1       0.440  17.307  19.581  0.00  0.00    +0.000 F 
ENDBRANCH  14  18
BRANCH  12  23
ATOM     22  N   UNL     1      -2.484  11.140  18.594  0.00  0.00    +0.000 NA
ATOM     23  C   UNL     1      -1.665  11.881  18.954  0.00  0.00    +0.000 C 
ENDBRANCH  12  23
ENDBRANCH   1  17
BRANCH   8  24
ATOM     24  S   UNL     1       3.154   6.311  18.313  0.00  0.00    +0.000 S 
ATOM     25  O   UNL     1       3.754   6.757  17.071  0.00  0.00    +0.000 OA
ATOM     26  O   UNL     1       3.959   5.728  19.363  0.00  0.00    +0.000 OA
BRANCH  24  27
ATOM     27  N   UNL     1       1.871   5.303  17.870  0.00  0.00    +0.000 N 
ATOM     28  C   UNL     1       1.829   4.128  18.652  0.00  0.00    +0.000 A 
ATOM     29  N   UNL     1       2.258   3.007  18.131  0.00  0.00    +0.000 NA
ATOM     30  C   UNL     1       2.139   2.005  19.077  0.00  0.00    +0.000 A 
ATOM     31  C   UNL     1       1.511   2.365  20.252  0.00  0.00    +0.000 A 
ATOM     32  S   UNL     1       1.108   4.032  20.197  0.00  0.00    +0.000 S 
ATOM     33  H   UNL     1       2.041   5.039  16.898  0.00  0.00    +0.000 HD
ENDBRANCH  24  27
ENDBRANCH   8  24
TORSDOF 5
ENDMDL
MODEL 5
REMARK VINA RESULT:      -7.9      5.292      9.436
REMARK  Name = 
REMARK  5 active torsions:
REMARK  status: ('A' for Active; 'I' for Inactive)
REMARK    1  A    between atoms: C_2  and  C_3
REMARK    2  A    between atoms: C_5  and  C_6
REMARK    3  A    between atoms: C_12  and  N_13
REMARK    4  A    between atoms: C_20  and  S_21
REMARK    5  A    between atoms: S_21  and  N_24
REMARK                            x       y       z     vdW  Elec       q    Type
REMARK                         _______ _______ _______ _____ _____    ______ ____
ROOT
ATOM      1  N   UNL     1       0.426  11.039  20.920  0.00  0.00    +0.000 N 
ATOM      2  C   UNL     1      -0.147  10.916  22.187  0.00  0.00    +0.000 C 
ATOM      3  O   UNL     1      -0.598  11.862  22.837  0.00  0.00    +0.000 OA
ATOM      4  C   UNL     1      -0.228   9.492  22.716  0.00  0.00    +0.000 C 
ATOM      5  O   UNL     1       0.739   8.552  22.296  0.00  0.00    +0.000 OA
ATOM      6  C   UNL     1       1.135   8.708  20.998  0.00  0.00    +0.000 A 
ATOM      7  C   UNL     1       1.724   7.577  20.427  0.00  0.00    +0.000 A 
ATOM      8  C   UNL     1       2.179   7.624  19.111  0.00  0.00    +0.000 A 
ATOM      9  C   UNL     1       2.084   8.804  18.376  0.00  0.00    +0.000 A 
ATOM     10  C   UNL     1       1.496   9.935  18.958  0.00  0.00    +0.000 A 
ATOM     11  C   UNL     1       1.025   9.911  20.284  0.00  0.00    +0.000 A 
ENDROOT
BRANCH   1  17
ATOM     12  C   UNL     1      -0.563  12.781  19.456  0.00  0.00    +0.000 A 
ATOM     13  C   UNL     1      -0.507  14.076  18.913  0.00  0.00    +0.000 A 
ATOM     14  C   UNL     1       0.561  14.936  19.204  0.00  0.00    +0.000 A 
ATOM     15  C   UNL     1       1.584  14.482  20.051  0.00  0.00    +0.000 A 
ATOM     16  C   UNL     1       1.537  13.192  20.594  0.00  0.00    +0.000 A 
ATOM     17  C   UNL     1       0.471  12.326  20.301  0.00  0.00    +0.000 A 
BRANCH  14  18
ATOM     18  C   UNL     1       0.620  16.336  18.633  0.00  0.00    +0.000 C 
ATOM     19  F   UNL     1       1.713  16.555  17.853  0.00  0.00    +0.000 F 
ATOM     20  F   UNL     1      -0.460  16.630  17.864  0.00  0.00    +0.000 F 
ATOM     21  F   UNL     1       0.661  17.286  19.609  0.00  0.00    +0.000 F 
ENDBRANCH  14  18
BRANCH  12  23
ATOM     22  N   UNL     1      -2.505  11.234  18.692  0.00  0.00    +0.000 NA
ATOM     23  C   UNL     1      -1.646  11.926  19.057  0.00  0.00    +0.000 C 
ENDBRANCH  12  23
ENDBRANCH   1  17
BRANCH   8  24
ATOM     24  S   UNL     1       2.982   6.197  18.422  0.00  0.00    +0.000 S 
ATOM     25  O   UNL     1       3.833   5.647  19.459  0.00  0.00    +0.000 OA
ATOM     26  O   UNL     1       1.965   5.390  17.786  0.00  0.00    +0.000 OA
BRANCH  24  27
ATOM     27  N   UNL     1       4.027   6.898  17.292  0.00  0.00    +0.000 N 
ATOM     28  C   UNL     1       5.198   6.132  17.109  0.00  0.00    +0.000 A 
ATOM     29  N   UNL     1       6.310   6.533  17.669  0.00  0.00    +0.000 NA
ATOM     30  C   UNL     1       7.310   5.626  17.370  0.00  0.00    +0.000 A 
ATOM     31  C   UNL     1       6.960   4.621  16.491  0.00  0.00    +0.000 A 
ATOM     32  S   UNL     1       5.305   4.780  16.070  0.00  0.00    +0.000 S 
ATOM     33  H   UNL     1       4.291   7.806  17.677  0.00  0.00    +0.000 HD
ENDBRANCH  24  27
ENDBRANCH   8  24
TORSDOF 5
ENDMDL
MODEL 6
REMARK VINA RESULT:      -7.6      1.497      1.824
REMARK  Name = 
REMARK  5 active torsions:
REMARK  status: ('A' for Active; 'I' for Inactive)
REMARK    1  A    between atoms: C_2  and  C_3
REMARK    2  A    between atoms: C_5  and  C_6
REMARK    3  A    between atoms: C_12  and  N_13
REMARK    4  A    between atoms: C_20  and  S_21
REMARK    5  A    between atoms: S_21  and  N_24
REMARK                            x       y       z     vdW  Elec       q    Type
REMARK                         _______ _______ _______ _____ _____    ______ ____
ROOT
ATOM      1  N   UNL     1       4.360   5.176  18.093  0.00  0.00    +0.000 N 
ATOM      2  C   UNL     1       4.508   4.174  19.054  0.00  0.00    +0.000 C 
ATOM      3  O   UNL     1       5.127   3.124  18.870  0.00  0.00    +0.000 OA
ATOM      4  C   UNL     1       3.877   4.485  20.403  0.00  0.00    +0.000 C 
ATOM      5  O   UNL     1       2.749   5.333  20.451  0.00  0.00    +0.000 OA
ATOM      6  C   UNL     1       2.779   6.345  19.534  0.00  0.00    +0.000 A 
ATOM      7  C   UNL     1       1.944   7.425  19.830  0.00  0.00    +0.000 A 
ATOM      8  C   UNL     1       1.882   8.510  18.957  0.00  0.00    +0.000 A 
ATOM      9  C   UNL     1       2.620   8.505  17.775  0.00  0.00    +0.000 A 
ATOM     10  C   UNL     1       3.451   7.415  17.485  0.00  0.00    +0.000 A 
ATOM     11  C   UNL     1       3.533   6.310  18.352  0.00  0.00    +0.000 A 
ENDROOT
BRANCH   1  17
ATOM     12  C   UNL     1       6.317   5.430  16.590  0.00  0.00    +0.000 A 
ATOM     13  C   UNL     1       6.916   5.200  15.339  0.00  0.00    +0.000 A 
ATOM     14  C   UNL     1       6.217   4.552  14.311  0.00  0.00    +0.000 A 
ATOM     15  C   UNL     1       4.899   4.134  14.548  0.00  0.00    +0.000 A 
ATOM     16  C   UNL     1       4.293   4.361  15.790  0.00  0.00    +0.000 A 
ATOM     17  C   UNL     1       4.988   5.014  16.821  0.00  0.00    +0.000 A 
BRANCH  14  18
ATOM     18  C   UNL     1       6.863   4.290  12.968  0.00  0.00    +0.000 C 
ATOM     19  F   UNL     1       5.984   4.337  11.930  0.00  0.00    +0.000 F 
ATOM     20  F   UNL     1       7.842   5.185  12.677  0.00  0.00    +0.000 F 
ATOM     21  F   UNL     1       7.444   3.059  12.910  0.00  0.00    +0.000 F 
ENDBRANCH  14  18
BRANCH  12  23
ATOM     22  N   UNL     1       7.702   6.745  18.349  0.00  0.00    +0.000 NA
ATOM     23  C   UNL     1       7.061   6.166  17.572  0.00  0.00    +0.000 C 
ENDBRANCH  12  23
ENDBRANCH   1  17
BRANCH   8  24
ATOM     24  S   UNL     1       0.768   9.847  19.317  0.00  0.00    +0.000 S 
ATOM     25  O   UNL     1      -0.322   9.293  20.096  0.00  0.00    +0.000 OA
ATOM     26  O   UNL     1       1.558  10.949  19.818  0.00  0.00    +0.000 OA
BRANCH  24  27
ATOM     27  N   UNL     1       0.120  10.179  17.790  0.00  0.00    +0.000 N 
ATOM     28  C   UNL     1      -1.251  10.509  17.859  0.00  0.00    +0.000 A 
ATOM     29  N   UNL     1      -2.135   9.611  17.507  0.00  0.00    +0.000 NA
ATOM     30  C   UNL     1      -3.399  10.145  17.672  0.00  0.00    +0.000 A 
ATOM     31  C   UNL     1      -3.442  11.477  18.030  0.00  0.00    +0.000 A 
ATOM     32  S   UNL     1      -1.843  12.068  18.228  0.00  0.00    +0.000 S 
ATOM     33  H   UNL     1       0.220   9.320  17.248  0.00  0.00    +0.000 HD
ENDBRANCH  24  27
ENDBRANCH   8  24
TORSDOF 5
ENDMDL
MODEL 7
REMARK VINA RESULT:      -7.5      4.505      7.273
REMARK  Name = 
REMARK  5 active torsions:
REMARK  status: ('A' for Active; 'I' for Inactive)
REMARK    1  A    between atoms: C_2  and  C_3
REMARK    2  A    between atoms: C_5  and  C_6
REMARK    3  A    between atoms: C_12  and  N_13
REMARK    4  A    between atoms: C_20  and  S_21
REMARK    5  A    between atoms: S_21  and  N_24
REMARK                            x       y       z     vdW  Elec       q    Type
REMARK                         _______ _______ _______ _____ _____    ______ ____
ROOT
ATOM      1  N   UNL     1       0.493  11.090  19.318  0.00  0.00    +0.000 N 
ATOM      2  C   UNL     1       1.186  12.195  19.815  0.00  0.00    +0.000 C 
ATOM      3  O   UNL     1       2.357  12.163  20.198  0.00  0.00    +0.000 OA
ATOM      4  C   UNL     1       0.398  13.497  19.812  0.00  0.00    +0.000 C 
ATOM      5  O   UNL     1      -1.008  13.445  19.935  0.00  0.00    +0.000 OA
ATOM      6  C   UNL     1      -1.579  12.375  19.305  0.00  0.00    +0.000 A 
ATOM      7  C   UNL     1      -2.940  12.520  19.027  0.00  0.00    +0.000 A 
ATOM      8  C   UNL     1      -3.631  11.485  18.400  0.00  0.00    +0.000 A 
ATOM      9  C   UNL     1      -2.980  10.295  18.083  0.00  0.00    +0.000 A 
ATOM     10  C   UNL     1      -1.615  10.157  18.371  0.00  0.00    +0.000 A 
ATOM     11  C   UNL     1      -0.895  11.189  19.000  0.00  0.00    +0.000 A 
ENDROOT
BRANCH   1  17
ATOM     12  C   UNL     1       1.200   8.907  20.260  0.00  0.00    +0.000 A 
ATOM     13  C   UNL     1       1.832   7.664  20.083  0.00  0.00    +0.000 A 
ATOM     14  C   UNL     1       2.435   7.326  18.864  0.00  0.00    +0.000 A 
ATOM     15  C   UNL     1       2.400   8.254  17.812  0.00  0.00    +0.000 A 
ATOM     16  C   UNL     1       1.774   9.496  17.980  0.00  0.00    +0.000 A 
ATOM     17  C   UNL     1       1.174   9.839  19.202  0.00  0.00    +0.000 A 
BRANCH  14  18
ATOM     18  C   UNL     1       3.105   5.984  18.664  0.00  0.00    +0.000 C 
ATOM     19  F   UNL     1       3.730   5.523  19.782  0.00  0.00    +0.000 F 
ATOM     20  F   UNL     1       2.229   5.016  18.293  0.00  0.00    +0.000 F 
ATOM     21  F   UNL     1       4.059   6.026  17.693  0.00  0.00    +0.000 F 
ENDBRANCH  14  18
BRANCH  12  23
ATOM     22  N   UNL     1       0.208   9.496  22.586  0.00  0.00    +0.000 NA
ATOM     23  C   UNL     1       0.669   9.218  21.557  0.00  0.00    +0.000 C 
ENDBRANCH  12  23
ENDBRANCH   1  17
BRANCH   8  24
ATOM     24  S   UNL     1      -5.376  11.661  18.111  0.00  0.00    +0.000 S 
ATOM     25  O   UNL     1      -5.548  11.904  16.692  0.00  0.00    +0.000 OA
ATOM     26  O   UNL     1      -6.039  10.556  18.765  0.00  0.00    +0.000 OA
BRANCH  24  27
ATOM     27  N   UNL     1      -5.706  13.135  18.873  0.00  0.00    +0.000 N 
ATOM     28  C   UNL     1      -6.283  12.951  20.149  0.00  0.00    +0.000 A 
ATOM     29  N   UNL     1      -7.569  13.138  20.293  0.00  0.00    +0.000 NA
ATOM     30  C   UNL     1      -7.909  12.886  21.609  0.00  0.00    +0.000 A 
ATOM     31  C   UNL     1      -6.853  12.630  22.460  0.00  0.00    +0.000 A 
ATOM     32  S   UNL     1      -5.386  12.645  21.570  0.00  0.00    +0.000 S 
ATOM     33  H   UNL     1      -6.382  13.616  18.278  0.00  0.00    +0.000 HD
ENDBRANCH  24  27
ENDBRANCH   8  24
TORSDOF 5
ENDMDL
MODEL 8
REMARK VINA RESULT:      -7.5      4.689      7.566
REMARK  Name = 
REMARK  5 active torsions:
REMARK  status: ('A' for Active; 'I' for Inactive)
REMARK    1  A    between atoms: C_2  and  C_3
REMARK    2  A    between atoms: C_5  and  C_6
REMARK    3  A    between atoms: C_12  and  N_13
REMARK    4  A    between atoms: C_20  and  S_21
REMARK    5  A    between atoms: S_21  and  N_24
REMARK                            x       y       z     vdW  Elec       q    Type
REMARK                         _______ _______ _______ _____ _____    ______ ____
ROOT
ATOM      1  N   UNL     1       0.230  11.465  19.971  0.00  0.00    +0.000 N 
ATOM      2  C   UNL     1       0.887  12.438  20.728  0.00  0.00    +0.000 C 
ATOM      3  O   UNL     1       2.044  12.331  21.138  0.00  0.00    +0.000 OA
ATOM      4  C   UNL     1       0.077  13.700  20.986  0.00  0.00    +0.000 C 
ATOM      5  O   UNL     1      -1.331  13.609  21.041  0.00  0.00    +0.000 OA
ATOM      6  C   UNL     1      -1.862  12.702  20.168  0.00  0.00    +0.000 A 
ATOM      7  C   UNL     1      -3.215  12.893  19.878  0.00  0.00    +0.000 A 
ATOM      8  C   UNL     1      -3.866  12.019  19.010  0.00  0.00    +0.000 A 
ATOM      9  C   UNL     1      -3.183  10.936  18.461  0.00  0.00    +0.000 A 
ATOM     10  C   UNL     1      -1.827  10.749  18.761  0.00  0.00    +0.000 A 
ATOM     11  C   UNL     1      -1.147  11.621  19.632  0.00  0.00    +0.000 A 
ENDROOT
BRANCH   1  17
ATOM     12  C   UNL     1       1.023   9.168  20.470  0.00  0.00    +0.000 A 
ATOM     13  C   UNL     1       1.678   7.999  20.047  0.00  0.00    +0.000 A 
ATOM     14  C   UNL     1       2.244   7.909  18.768  0.00  0.00    +0.000 A 
ATOM     15  C   UNL     1       2.148   9.014  17.908  0.00  0.00    +0.000 A 
ATOM     16  C   UNL     1       1.500  10.184  18.322  0.00  0.00    +0.000 A 
ATOM     17  C   UNL     1       0.936  10.279  19.604  0.00  0.00    +0.000 A 
BRANCH  14  18
ATOM     18  C   UNL     1       2.938   6.648  18.303  0.00  0.00    +0.000 C 
ATOM     19  F   UNL     1       3.741   6.094  19.252  0.00  0.00    +0.000 F 
ATOM     20  F   UNL     1       2.062   5.678  17.934  0.00  0.00    +0.000 F 
ATOM     21  F   UNL     1       3.736   6.871  17.222  0.00  0.00    +0.000 F 
ENDBRANCH  14  18
BRANCH  12  23
ATOM     22  N   UNL     1       0.142   9.307  22.909  0.00  0.00    +0.000 NA
ATOM     23  C   UNL     1       0.532   9.220  21.819  0.00  0.00    +0.000 C 
ENDBRANCH  12  23
ENDBRANCH   1  17
BRANCH   8  24
ATOM     24  S   UNL     1      -5.602  12.240  18.702  0.00  0.00    +0.000 S 
ATOM     25  O   UNL     1      -5.903  13.635  18.952  0.00  0.00    +0.000 OA
ATOM     26  O   UNL     1      -5.899  11.629  17.426  0.00  0.00    +0.000 OA
BRANCH  24  27
ATOM     27  N   UNL     1      -6.293  11.382  19.986  0.00  0.00    +0.000 N 
ATOM     28  C   UNL     1      -6.532  12.209  21.105  0.00  0.00    +0.000 A 
ATOM     29  N   UNL     1      -5.720  12.139  22.128  0.00  0.00    +0.000 NA
ATOM     30  C   UNL     1      -6.136  13.044  23.087  0.00  0.00    +0.000 A 
ATOM     31  C   UNL     1      -7.325  13.693  22.820  0.00  0.00    +0.000 A 
ATOM     32  S   UNL     1      -7.913  13.199  21.285  0.00  0.00    +0.000 S 
ATOM     33  H   UNL     1      -5.611  10.670  20.250  0.00  0.00    +0.000 HD
ENDBRANCH  24  27
ENDBRANCH   8  24
TORSDOF 5
ENDMDL
MODEL 9
REMARK VINA RESULT:      -7.5      1.368      1.562
REMARK  Name = 
REMARK  5 active torsions:
REMARK  status: ('A' for Active; 'I' for Inactive)
REMARK    1  A    between atoms: C_2  and  C_3
REMARK    2  A    between atoms: C_5  and  C_6
REMARK    3  A    between atoms: C_12  and  N_13
REMARK    4  A    between atoms: C_20  and  S_21
REMARK    5  A    between atoms: S_21  and  N_24
REMARK                            x       y       z     vdW  Elec       q    Type
REMARK                         _______ _______ _______ _____ _____    ______ ____
ROOT
ATOM      1  N   UNL     1       3.666   4.498  19.133  0.00  0.00    +0.000 N 
ATOM      2  C   UNL     1       3.639   3.308  19.863  0.00  0.00    +0.000 C 
ATOM      3  O   UNL     1       4.217   2.274  19.522  0.00  0.00    +0.000 OA
ATOM      4  C   UNL     1       2.867   3.379  21.172  0.00  0.00    +0.000 C 
ATOM      5  O   UNL     1       1.790   4.285  21.281  0.00  0.00    +0.000 OA
ATOM      6  C   UNL     1       1.988   5.462  20.616  0.00  0.00    +0.000 A 
ATOM      7  C   UNL     1       1.184   6.520  21.048  0.00  0.00    +0.000 A 
ATOM      8  C   UNL     1       1.289   7.765  20.431  0.00  0.00    +0.000 A 
ATOM      9  C   UNL     1       2.164   7.948  19.363  0.00  0.00    +0.000 A 
ATOM     10  C   UNL     1       2.963   6.880  18.933  0.00  0.00    +0.000 A 
ATOM     11  C   UNL     1       2.878   5.615  19.542  0.00  0.00    +0.000 A 
ENDROOT
BRANCH   1  17
ATOM     12  C   UNL     1       5.822   4.811  17.948  0.00  0.00    +0.000 A 
ATOM     13  C   UNL     1       6.551   4.804  16.746  0.00  0.00    +0.000 A 
ATOM     14  C   UNL     1       5.924   4.538  15.522  0.00  0.00    +0.000 A 
ATOM     15  C   UNL     1       4.546   4.278  15.511  0.00  0.00    +0.000 A 
ATOM     16  C   UNL     1       3.810   4.286  16.703  0.00  0.00    +0.000 A 
ATOM     17  C   UNL     1       4.435   4.557  17.931  0.00  0.00    +0.000 A 
BRANCH  14  18
ATOM     18  C   UNL     1       6.707   4.515  14.227  0.00  0.00    +0.000 C 
ATOM     19  F   UNL     1       6.651   3.317  13.585  0.00  0.00    +0.000 F 
ATOM     20  F   UNL     1       6.270   5.444  13.338  0.00  0.00    +0.000 F 
ATOM     21  F   UNL     1       8.031   4.771  14.424  0.00  0.00    +0.000 F 
ENDBRANCH  14  18
BRANCH  12  23
ATOM     22  N   UNL     1       7.099   5.476  20.110  0.00  0.00    +0.000 NA
ATOM     23  C   UNL     1       6.512   5.166  19.157  0.00  0.00    +0.000 C 
ENDBRANCH  12  23
ENDBRANCH   1  17
BRANCH   8  24
ATOM     24  S   UNL     1       0.215   9.081  20.952  0.00  0.00    +0.000 S 
ATOM     25  O   UNL     1      -0.506   9.531  19.778  0.00  0.00    +0.000 OA
ATOM     26  O   UNL     1      -0.489   8.628  22.132  0.00  0.00    +0.000 OA
BRANCH  24  27
ATOM     27  N   UNL     1       1.321  10.309  21.313  0.00  0.00    +0.000 N 
ATOM     28  C   UNL     1       0.907  11.558  20.802  0.00  0.00    +0.000 A 
ATOM     29  N   UNL     1       1.480  12.020  19.720  0.00  0.00    +0.000 NA
ATOM     30  C   UNL     1       0.907  13.237  19.400  0.00  0.00    +0.000 A 
ATOM     31  C   UNL     1      -0.004  13.727  20.314  0.00  0.00    +0.000 A 
ATOM     32  S   UNL     1      -0.196  12.596  21.591  0.00  0.00    +0.000 S 
ATOM     33  H   UNL     1       2.195  10.045  20.855  0.00  0.00    +0.000 HD
ENDBRANCH  24  27
ENDBRANCH   8  24
TORSDOF 5
ENDMDL
