MODEL 1
REMARK VINA RESULT:      -8.3      0.000      0.000
REMARK  Name = 
REMARK  7 active torsions:
REMARK  status: ('A' for Active; 'I' for Inactive)
REMARK    1  A    between atoms: C_1  and  O_2
REMARK    2  A    between atoms: O_2  and  C_3
REMARK    3  A    between atoms: C_3  and  C_5
REMARK    4  A    between atoms: C_8  and  N_9
REMARK    5  A    between atoms: N_9  and  S_10
REMARK    6  A    between atoms: S_10  and  N_13
REMARK    7  A    between atoms: C_14  and  C_16
REMARK                            x       y       z     vdW  Elec       q    Type
REMARK                         _______ _______ _______ _____ _____    ______ ____
ROOT
ATOM      1  S   UNL     1       7.271   5.727  17.878  0.00  0.00    +0.000 S 
ATOM      2  O   UNL     1       7.739   4.372  17.755  0.00  0.00    +0.000 OA
ATOM      3  O   UNL     1       8.059   6.743  18.553  0.00  0.00    +0.000 OA
ENDROOT
BRANCH   1   4
ATOM      4  N   UNL     1       5.823   5.682  18.699  0.00  0.00    +0.000 N 
ATOM      5  C   UNL     1       4.602   6.310  18.328  0.00  0.00    +0.000 C 
ATOM      6  O   UNL     1       4.571   7.266  17.568  0.00  0.00    +0.000 OA
ATOM      7  H   UNL     1       5.743   4.771  19.133  0.00  0.00    +0.000 HD
BRANCH   5   8
ATOM      8  C   UNL     1       3.381   5.681  18.910  0.00  0.00    +0.000 A 
ATOM      9  C   UNL     1       2.462   6.352  19.713  0.00  0.00    +0.000 A 
ATOM     10  N   UNL     1       1.766   5.402  20.407  0.00  0.00    +0.000 N 
ATOM     11  C   UNL     1       1.705   4.275  19.637  0.00  0.00    +0.000 A 
ATOM     12  C   UNL     1       0.796   3.206  19.715  0.00  0.00    +0.000 A 
ATOM     13  C   UNL     1       0.960   2.159  18.816  0.00  0.00    +0.000 A 
ATOM     14  C   UNL     1       2.046   2.148  17.944  0.00  0.00    +0.000 A 
ATOM     15  C   UNL     1       2.976   3.221  17.912  0.00  0.00    +0.000 A 
ATOM     16  C   UNL     1       2.778   4.352  18.743  0.00  0.00    +0.000 A 
ATOM     17  H   UNL     1       1.241   5.554  21.259  0.00  0.00    +0.000 HD
ENDBRANCH   5   8
ENDBRANCH   1   4
BRANCH   1  18
ATOM     18  N   UNL     1       6.845   6.290  16.338  0.00  0.00    +0.000 N 
ATOM     19  H   UNL     1       5.995   6.843  16.468  0.00  0.00    +0.000 HD
BRANCH  18  23
ATOM     20  C   UNL     1       5.986   3.651  13.044  0.00  0.00    +0.000 A 
ATOM     21  C   UNL     1       5.141   3.726  14.160  0.00  0.00    +0.000 A 
ATOM     22  C   UNL     1       5.464   4.536  15.267  0.00  0.00    +0.000 A 
ATOM     23  C   UNL     1       6.631   5.303  15.282  0.00  0.00    +0.000 A 
ATOM     24  C   UNL     1       7.517   5.174  14.207  0.00  0.00    +0.000 A 
ATOM     25  C   UNL     1       7.192   4.364  13.089  0.00  0.00    +0.000 A 
BRANCH  20  26
ATOM     26  C   UNL     1       5.527   2.848  11.858  0.00  0.00    +0.000 C 
ATOM     27  O   UNL     1       4.393   2.917  11.408  0.00  0.00    +0.000 OA
BRANCH  26  29
ATOM     28  C   UNL     1       6.192   0.692  11.188  0.00  0.00    +0.000 C 
ATOM     29  O   UNL     1       6.523   2.079  11.349  0.00  0.00    +0.000 OA
ENDBRANCH  26  29
ENDBRANCH  20  26
ENDBRANCH  18  23
ENDBRANCH   1  18
TORSDOF 6
ENDMDL
MODEL 2
REMARK VINA RESULT:      -8.1      1.153      1.805
REMARK  Name = 
REMARK  7 active torsions:
REMARK  status: ('A' for Active; 'I' for Inactive)
REMARK    1  A    between atoms: C_1  and  O_2
REMARK    2  A    between atoms: O_2  and  C_3
REMARK    3  A    between atoms: C_3  and  C_5
REMARK    4  A    between atoms: C_8  and  N_9
REMARK    5  A    between atoms: N_9  and  S_10
REMARK    6  A    between atoms: S_10  and  N_13
REMARK    7  A    between atoms: C_14  and  C_16
REMARK                            x       y       z     vdW  Elec       q    Type
REMARK                         _______ _______ _______ _____ _____    ______ ____
ROOT
ATOM      1  S   UNL     1       7.452   5.406  17.682  0.00  0.00    +0.000 S 
ATOM      2  O   UNL     1       8.193   4.184  17.519  0.00  0.00    +0.000 OA
ATOM      3  O   UNL     1       7.931   6.474  18.542  0.00  0.00    +0.000 OA
ENDROOT
BRANCH   1   4
ATOM      4  N   UNL     1       5.952   5.005  18.281  0.00  0.00    +0.000 N 
ATOM      5  C   UNL     1       4.722   5.679  18.048  0.00  0.00    +0.000 C 
ATOM      6  O   UNL     1       4.682   6.848  17.692  0.00  0.00    +0.000 OA
ATOM      7  H   UNL     1       5.904   3.995  18.340  0.00  0.00    +0.000 HD
BRANCH   5   8
ATOM      8  C   UNL     1       3.507   4.834  18.234  0.00  0.00    +0.000 A 
ATOM      9  C   UNL     1       2.804   4.234  17.192  0.00  0.00    +0.000 A 
ATOM     10  N   UNL     1       1.555   3.942  17.667  0.00  0.00    +0.000 N 
ATOM     11  C   UNL     1       1.659   3.692  19.006  0.00  0.00    +0.000 A 
ATOM     12  C   UNL     1       0.778   2.979  19.838  0.00  0.00    +0.000 A 
ATOM     13  C   UNL     1       1.107   2.879  21.184  0.00  0.00    +0.000 A 
ATOM     14  C   UNL     1       2.224   3.547  21.683  0.00  0.00    +0.000 A 
ATOM     15  C   UNL     1       3.077   4.297  20.830  0.00  0.00    +0.000 A 
ATOM     16  C   UNL     1       2.827   4.332  19.435  0.00  0.00    +0.000 A 
ATOM     17  H   UNL     1       0.731   3.771  17.105  0.00  0.00    +0.000 HD
ENDBRANCH   5   8
ENDBRANCH   1   4
BRANCH   1  18
ATOM     18  N   UNL     1       7.118   6.040  16.147  0.00  0.00    +0.000 N 
ATOM     19  H   UNL     1       6.350   6.702  16.280  0.00  0.00    +0.000 HD
BRANCH  18  23
ATOM     20  C   UNL     1       5.863   3.552  12.863  0.00  0.00    +0.000 A 
ATOM     21  C   UNL     1       5.191   3.532  14.094  0.00  0.00    +0.000 A 
ATOM     22  C   UNL     1       5.650   4.293  15.188  0.00  0.00    +0.000 A 
ATOM     23  C   UNL     1       6.781   5.105  15.077  0.00  0.00    +0.000 A 
ATOM     24  C   UNL     1       7.500   5.071  13.877  0.00  0.00    +0.000 A 
ATOM     25  C   UNL     1       7.038   4.310  12.773  0.00  0.00    +0.000 A 
BRANCH  20  26
ATOM     26  C   UNL     1       5.258   2.797  11.712  0.00  0.00    +0.000 C 
ATOM     27  O   UNL     1       5.881   1.975  11.056  0.00  0.00    +0.000 OA
BRANCH  26  29
ATOM     28  C   UNL     1       3.642   3.632  10.218  0.00  0.00    +0.000 C 
ATOM     29  O   UNL     1       3.953   3.119  11.522  0.00  0.00    +0.000 OA
ENDBRANCH  26  29
ENDBRANCH  20  26
ENDBRANCH  18  23
ENDBRANCH   1  18
TORSDOF 6
ENDMDL
MODEL 3
REMARK VINA RESULT:      -8.0      1.087      1.541
REMARK  Name = 
REMARK  7 active torsions:
REMARK  status: ('A' for Active; 'I' for Inactive)
REMARK    1  A    between atoms: C_1  and  O_2
REMARK    2  A    between atoms: O_2  and  C_3
REMARK    3  A    between atoms: C_3  and  C_5
REMARK    4  A    between atoms: C_8  and  N_9
REMARK    5  A    between atoms: N_9  and  S_10
REMARK    6  A    between atoms: S_10  and  N_13
REMARK    7  A    between atoms: C_14  and  C_16
REMARK                            x       y       z     vdW  Elec       q    Type
REMARK                         _______ _______ _______ _____ _____    ______ ____
ROOT
ATOM      1  S   UNL     1       7.434   5.366  17.601  0.00  0.00    +0.000 S 
ATOM      2  O   UNL     1       8.174   4.147  17.414  0.00  0.00    +0.000 OA
ATOM      3  O   UNL     1       7.925   6.428  18.461  0.00  0.00    +0.000 OA
ENDROOT
BRANCH   1   4
ATOM      4  N   UNL     1       5.945   4.955  18.223  0.00  0.00    +0.000 N 
ATOM      5  C   UNL     1       4.712   5.636  18.030  0.00  0.00    +0.000 C 
ATOM      6  O   UNL     1       4.668   6.813  17.700  0.00  0.00    +0.000 OA
ATOM      7  H   UNL     1       5.896   3.944  18.261  0.00  0.00    +0.000 HD
BRANCH   5   8
ATOM      8  C   UNL     1       3.500   4.789  18.224  0.00  0.00    +0.000 A 
ATOM      9  C   UNL     1       2.798   4.178  17.188  0.00  0.00    +0.000 A 
ATOM     10  N   UNL     1       1.550   3.888  17.665  0.00  0.00    +0.000 N 
ATOM     11  C   UNL     1       1.654   3.650  19.006  0.00  0.00    +0.000 A 
ATOM     12  C   UNL     1       0.775   2.943  19.844  0.00  0.00    +0.000 A 
ATOM     13  C   UNL     1       1.104   2.857  21.191  0.00  0.00    +0.000 A 
ATOM     14  C   UNL     1       2.219   3.532  21.685  0.00  0.00    +0.000 A 
ATOM     15  C   UNL     1       3.070   4.276  20.825  0.00  0.00    +0.000 A 
ATOM     16  C   UNL     1       2.821   4.297  19.430  0.00  0.00    +0.000 A 
ATOM     17  H   UNL     1       0.726   3.709  17.104  0.00  0.00    +0.000 HD
ENDBRANCH   5   8
ENDBRANCH   1   4
BRANCH   1  18
ATOM     18  N   UNL     1       7.071   6.012  16.077  0.00  0.00    +0.000 N 
ATOM     19  H   UNL     1       6.299   6.666  16.228  0.00  0.00    +0.000 HD
BRANCH  18  23
ATOM     20  C   UNL     1       5.792   3.548  12.785  0.00  0.00    +0.000 A 
ATOM     21  C   UNL     1       5.129   3.519  14.020  0.00  0.00    +0.000 A 
ATOM     22  C   UNL     1       5.595   4.273  15.116  0.00  0.00    +0.000 A 
ATOM     23  C   UNL     1       6.726   5.085  15.003  0.00  0.00    +0.000 A 
ATOM     24  C   UNL     1       7.436   5.059  13.798  0.00  0.00    +0.000 A 
ATOM     25  C   UNL     1       6.967   4.306  12.692  0.00  0.00    +0.000 A 
BRANCH  20  26
ATOM     26  C   UNL     1       5.179   2.801  11.632  0.00  0.00    +0.000 C 
ATOM     27  O   UNL     1       4.301   3.275  10.925  0.00  0.00    +0.000 OA
BRANCH  26  29
ATOM     28  C   UNL     1       7.075   1.585  10.948  0.00  0.00    +0.000 C 
ATOM     29  O   UNL     1       5.737   1.575  11.467  0.00  0.00    +0.000 OA
ENDBRANCH  26  29
ENDBRANCH  20  26
ENDBRANCH  18  23
ENDBRANCH   1  18
TORSDOF 6
ENDMDL
MODEL 4
REMARK VINA RESULT:      -7.9      0.786      1.281
REMARK  Name = 
REMARK  7 active torsions:
REMARK  status: ('A' for Active; 'I' for Inactive)
REMARK    1  A    between atoms: C_1  and  O_2
REMARK    2  A    between atoms: O_2  and  C_3
REMARK    3  A    between atoms: C_3  and  C_5
REMARK    4  A    between atoms: C_8  and  N_9
REMARK    5  A    between atoms: N_9  and  S_10
REMARK    6  A    between atoms: S_10  and  N_13
REMARK    7  A    between atoms: C_14  and  C_16
REMARK                            x       y       z     vdW  Elec       q    Type
REMARK                         _______ _______ _______ _____ _____    ______ ____
ROOT
ATOM      1  S   UNL     1       7.326   6.447  17.854  0.00  0.00    +0.000 S 
ATOM      2  O   UNL     1       8.279   6.621  18.918  0.00  0.00    +0.000 OA
ATOM      3  O   UNL     1       7.202   7.417  16.780  0.00  0.00    +0.000 OA
ENDROOT
BRANCH   1   4
ATOM      4  N   UNL     1       5.814   6.368  18.546  0.00  0.00    +0.000 N 
ATOM      5  C   UNL     1       4.558   6.480  17.889  0.00  0.00    +0.000 C 
ATOM      6  O   UNL     1       4.443   7.026  16.801  0.00  0.00    +0.000 OA
ATOM      7  H   UNL     1       5.860   5.707  19.312  0.00  0.00    +0.000 HD
BRANCH   5   8
ATOM      8  C   UNL     1       3.420   5.846  18.615  0.00  0.00    +0.000 A 
ATOM      9  C   UNL     1       2.552   6.532  19.461  0.00  0.00    +0.000 A 
ATOM     10  N   UNL     1       1.959   5.601  20.269  0.00  0.00    +0.000 N 
ATOM     11  C   UNL     1       1.873   4.430  19.572  0.00  0.00    +0.000 A 
ATOM     12  C   UNL     1       1.017   3.336  19.792  0.00  0.00    +0.000 A 
ATOM     13  C   UNL     1       1.139   2.245  18.942  0.00  0.00    +0.000 A 
ATOM     14  C   UNL     1       2.141   2.219  17.974  0.00  0.00    +0.000 A 
ATOM     15  C   UNL     1       3.022   3.319  17.797  0.00  0.00    +0.000 A 
ATOM     16  C   UNL     1       2.857   4.490  18.578  0.00  0.00    +0.000 A 
ATOM     17  H   UNL     1       1.509   5.785  21.156  0.00  0.00    +0.000 HD
ENDBRANCH   5   8
ENDBRANCH   1   4
BRANCH   1  18
ATOM     18  N   UNL     1       7.545   4.906  17.184  0.00  0.00    +0.000 N 
ATOM     19  H   UNL     1       8.556   4.782  17.094  0.00  0.00    +0.000 HD
BRANCH  18  23
ATOM     20  C   UNL     1       5.874   3.729  13.393  0.00  0.00    +0.000 A 
ATOM     21  C   UNL     1       7.022   4.531  13.469  0.00  0.00    +0.000 A 
ATOM     22  C   UNL     1       7.522   4.973  14.710  0.00  0.00    +0.000 A 
ATOM     23  C   UNL     1       6.899   4.615  15.907  0.00  0.00    +0.000 A 
ATOM     24  C   UNL     1       5.711   3.880  15.836  0.00  0.00    +0.000 A 
ATOM     25  C   UNL     1       5.207   3.429  14.589  0.00  0.00    +0.000 A 
BRANCH  20  26
ATOM     26  C   UNL     1       5.458   3.209  12.045  0.00  0.00    +0.000 C 
ATOM     27  O   UNL     1       4.345   3.394  11.576  0.00  0.00    +0.000 OA
BRANCH  26  29
ATOM     28  C   UNL     1       6.257   1.140  11.257  0.00  0.00    +0.000 C 
ATOM     29  O   UNL     1       6.468   2.550  11.421  0.00  0.00    +0.000 OA
ENDBRANCH  26  29
ENDBRANCH  20  26
ENDBRANCH  18  23
ENDBRANCH   1  18
TORSDOF 6
ENDMDL
MODEL 5
REMARK VINA RESULT:      -7.8      3.993      5.730
REMARK  Name = 
REMARK  7 active torsions:
REMARK  status: ('A' for Active; 'I' for Inactive)
REMARK    1  A    between atoms: C_1  and  O_2
REMARK    2  A    between atoms: O_2  and  C_3
REMARK    3  A    between atoms: C_3  and  C_5
REMARK    4  A    between atoms: C_8  and  N_9
REMARK    5  A    between atoms: N_9  and  S_10
REMARK    6  A    between atoms: S_10  and  N_13
REMARK    7  A    between atoms: C_14  and  C_16
REMARK                            x       y       z     vdW  Elec       q    Type
REMARK                         _______ _______ _______ _____ _____    ______ ____
ROOT
ATOM      1  S   UNL     1       2.274   5.384  19.987  0.00  0.00    +0.000 S 
ATOM      2  O   UNL     1       1.138   4.526  20.194  0.00  0.00    +0.000 OA
ATOM      3  O   UNL     1       3.614   4.975  20.371  0.00  0.00    +0.000 OA
ENDROOT
BRANCH   1   4
ATOM      4  N   UNL     1       1.994   6.795  20.823  0.00  0.00    +0.000 N 
ATOM      5  C   UNL     1       1.659   8.067  20.281  0.00  0.00    +0.000 C 
ATOM      6  O   UNL     1       1.910   8.363  19.122  0.00  0.00    +0.000 OA
ATOM      7  H   UNL     1       1.547   6.551  21.699  0.00  0.00    +0.000 HD
BRANCH   5   8
ATOM      8  C   UNL     1       0.949   8.975  21.228  0.00  0.00    +0.000 A 
ATOM      9  C   UNL     1       1.231   9.064  22.589  0.00  0.00    +0.000 A 
ATOM     10  N   UNL     1       0.136   9.619  23.191  0.00  0.00    +0.000 N 
ATOM     11  C   UNL     1      -0.462  10.456  22.293  0.00  0.00    +0.000 A 
ATOM     12  C   UNL     1      -1.340  11.526  22.539  0.00  0.00    +0.000 A 
ATOM     13  C   UNL     1      -1.828  12.219  21.438  0.00  0.00    +0.000 A 
ATOM     14  C   UNL     1      -1.519  11.793  20.148  0.00  0.00    +0.000 A 
ATOM     15  C   UNL     1      -0.663  10.683  19.924  0.00  0.00    +0.000 A 
ATOM     16  C   UNL     1      -0.065  10.019  21.024  0.00  0.00    +0.000 A 
ATOM     17  H   UNL     1      -0.094   9.559  24.175  0.00  0.00    +0.000 HD
ENDBRANCH   5   8
ENDBRANCH   1   4
BRANCH   1  18
ATOM     18  N   UNL     1       2.289   5.872  18.364  0.00  0.00    +0.000 N 
ATOM     19  H   UNL     1       1.483   5.417  17.929  0.00  0.00    +0.000 HD
BRANCH  18  23
ATOM     20  C   UNL     1       5.597   5.080  15.722  0.00  0.00    +0.000 A 
ATOM     21  C   UNL     1       4.799   4.043  16.226  0.00  0.00    +0.000 A 
ATOM     22  C   UNL     1       3.764   4.299  17.147  0.00  0.00    +0.000 A 
ATOM     23  C   UNL     1       3.490   5.600  17.577  0.00  0.00    +0.000 A 
ATOM     24  C   UNL     1       4.330   6.629  17.139  0.00  0.00    +0.000 A 
ATOM     25  C   UNL     1       5.369   6.374  16.209  0.00  0.00    +0.000 A 
BRANCH  20  26
ATOM     26  C   UNL     1       6.614   4.745  14.665  0.00  0.00    +0.000 C 
ATOM     27  O   UNL     1       7.637   5.392  14.500  0.00  0.00    +0.000 OA
BRANCH  26  29
ATOM     28  C   UNL     1       6.539   3.714  12.551  0.00  0.00    +0.000 C 
ATOM     29  O   UNL     1       6.266   3.640  13.958  0.00  0.00    +0.000 OA
ENDBRANCH  26  29
ENDBRANCH  20  26
ENDBRANCH  18  23
ENDBRANCH   1  18
TORSDOF 6
ENDMDL
MODEL 6
REMARK VINA RESULT:      -7.7      3.365      5.490
REMARK  Name = 
REMARK  7 active torsions:
REMARK  status: ('A' for Active; 'I' for Inactive)
REMARK    1  A    between atoms: C_1  and  O_2
REMARK    2  A    between atoms: O_2  and  C_3
REMARK    3  A    between atoms: C_3  and  C_5
REMARK    4  A    between atoms: C_8  and  N_9
REMARK    5  A    between atoms: N_9  and  S_10
REMARK    6  A    between atoms: S_10  and  N_13
REMARK    7  A    between atoms: C_14  and  C_16
REMARK                            x       y       z     vdW  Elec       q    Type
REMARK                         _______ _______ _______ _____ _____    ______ ____
ROOT
ATOM      1  S   UNL     1       1.804   2.667  19.965  0.00  0.00    +0.000 S 
ATOM      2  O   UNL     1       1.267   1.849  18.911  0.00  0.00    +0.000 OA
ATOM      3  O   UNL     1       1.327   2.552  21.332  0.00  0.00    +0.000 OA
ENDROOT
BRANCH   1   4
ATOM      4  N   UNL     1       1.543   4.257  19.546  0.00  0.00    +0.000 N 
ATOM      5  C   UNL     1       2.085   5.414  20.171  0.00  0.00    +0.000 C 
ATOM      6  O   UNL     1       2.499   5.393  21.320  0.00  0.00    +0.000 OA
ATOM      7  H   UNL     1       1.446   4.298  18.538  0.00  0.00    +0.000 HD
BRANCH   5   8
ATOM      8  C   UNL     1       2.138   6.622  19.297  0.00  0.00    +0.000 A 
ATOM      9  C   UNL     1       2.505   6.601  17.954  0.00  0.00    +0.000 A 
ATOM     10  N   UNL     1       2.872   7.875  17.618  0.00  0.00    +0.000 N 
ATOM     11  C   UNL     1       2.147   8.740  18.387  0.00  0.00    +0.000 A 
ATOM     12  C   UNL     1       1.863  10.097  18.154  0.00  0.00    +0.000 A 
ATOM     13  C   UNL     1       1.109  10.767  19.110  0.00  0.00    +0.000 A 
ATOM     14  C   UNL     1       0.740  10.123  20.289  0.00  0.00    +0.000 A 
ATOM     15  C   UNL     1       1.075   8.763  20.521  0.00  0.00    +0.000 A 
ATOM     16  C   UNL     1       1.752   8.021  19.521  0.00  0.00    +0.000 A 
ATOM     17  H   UNL     1       3.444   8.139  16.826  0.00  0.00    +0.000 HD
ENDBRANCH   5   8
ENDBRANCH   1   4
BRANCH   1  18
ATOM     18  N   UNL     1       3.492   2.517  19.953  0.00  0.00    +0.000 N 
ATOM     19  H   UNL     1       3.803   2.805  20.884  0.00  0.00    +0.000 HD
BRANCH  18  23
ATOM     20  C   UNL     1       5.398   4.951  16.954  0.00  0.00    +0.000 A 
ATOM     21  C   UNL     1       4.472   3.956  16.609  0.00  0.00    +0.000 A 
ATOM     22  C   UNL     1       3.906   3.114  17.587  0.00  0.00    +0.000 A 
ATOM     23  C   UNL     1       4.239   3.253  18.936  0.00  0.00    +0.000 A 
ATOM     24  C   UNL     1       5.218   4.191  19.279  0.00  0.00    +0.000 A 
ATOM     25  C   UNL     1       5.786   5.043  18.298  0.00  0.00    +0.000 A 
BRANCH  20  26
ATOM     26  C   UNL     1       5.880   5.878  15.874  0.00  0.00    +0.000 C 
ATOM     27  O   UNL     1       5.204   6.798  15.437  0.00  0.00    +0.000 OA
BRANCH  26  29
ATOM     28  C   UNL     1       7.236   4.776  14.296  0.00  0.00    +0.000 C 
ATOM     29  O   UNL     1       7.145   5.584  15.479  0.00  0.00    +0.000 OA
ENDBRANCH  26  29
ENDBRANCH  20  26
ENDBRANCH  18  23
ENDBRANCH   1  18
TORSDOF 6
ENDMDL
MODEL 7
REMARK VINA RESULT:      -7.7      3.948      6.040
REMARK  Name = 
REMARK  7 active torsions:
REMARK  status: ('A' for Active; 'I' for Inactive)
REMARK    1  A    between atoms: C_1  and  O_2
REMARK    2  A    between atoms: O_2  and  C_3
REMARK    3  A    between atoms: C_3  and  C_5
REMARK    4  A    between atoms: C_8  and  N_9
REMARK    5  A    between atoms: N_9  and  S_10
REMARK    6  A    between atoms: S_10  and  N_13
REMARK    7  A    between atoms: C_14  and  C_16
REMARK                            x       y       z     vdW  Elec       q    Type
REMARK                         _______ _______ _______ _____ _____    ______ ____
ROOT
ATOM      1  S   UNL     1       1.977   5.147  20.146  0.00  0.00    +0.000 S 
ATOM      2  O   UNL     1       0.799   4.352  20.370  0.00  0.00    +0.000 OA
ATOM      3  O   UNL     1       3.295   4.677  20.535  0.00  0.00    +0.000 OA
ENDROOT
BRANCH   1   4
ATOM      4  N   UNL     1       1.771   6.585  20.958  0.00  0.00    +0.000 N 
ATOM      5  C   UNL     1       1.641   7.884  20.394  0.00  0.00    +0.000 C 
ATOM      6  O   UNL     1       2.045   8.144  19.270  0.00  0.00    +0.000 OA
ATOM      7  H   UNL     1       1.210   6.397  21.780  0.00  0.00    +0.000 HD
BRANCH   5   8
ATOM      8  C   UNL     1       0.942   8.871  21.266  0.00  0.00    +0.000 A 
ATOM      9  C   UNL     1       1.222   9.057  22.618  0.00  0.00    +0.000 A 
ATOM     10  N   UNL     1       0.133   9.672  23.172  0.00  0.00    +0.000 N 
ATOM     11  C   UNL     1      -0.449  10.448  22.211  0.00  0.00    +0.000 A 
ATOM     12  C   UNL     1      -1.312  11.547  22.372  0.00  0.00    +0.000 A 
ATOM     13  C   UNL     1      -1.787  12.162  21.221  0.00  0.00    +0.000 A 
ATOM     14  C   UNL     1      -1.481  11.636  19.968  0.00  0.00    +0.000 A 
ATOM     15  C   UNL     1      -0.641  10.499  19.831  0.00  0.00    +0.000 A 
ATOM     16  C   UNL     1      -0.056   9.911  20.981  0.00  0.00    +0.000 A 
ATOM     17  H   UNL     1      -0.101   9.690  24.157  0.00  0.00    +0.000 HD
ENDBRANCH   5   8
ENDBRANCH   1   4
BRANCH   1  18
ATOM     18  N   UNL     1       2.014   5.605  18.515  0.00  0.00    +0.000 N 
ATOM     19  H   UNL     1       1.251   5.094  18.065  0.00  0.00    +0.000 HD
BRANCH  18  23
ATOM     20  C   UNL     1       5.850   4.945  16.673  0.00  0.00    +0.000 A 
ATOM     21  C   UNL     1       5.440   6.226  17.067  0.00  0.00    +0.000 A 
ATOM     22  C   UNL     1       4.155   6.448  17.603  0.00  0.00    +0.000 A 
ATOM     23  C   UNL     1       3.253   5.395  17.771  0.00  0.00    +0.000 A 
ATOM     24  C   UNL     1       3.627   4.128  17.310  0.00  0.00    +0.000 A 
ATOM     25  C   UNL     1       4.920   3.901  16.775  0.00  0.00    +0.000 A 
BRANCH  20  26
ATOM     26  C   UNL     1       7.269   4.765  16.208  0.00  0.00    +0.000 C 
ATOM     27  O   UNL     1       8.120   4.196  16.876  0.00  0.00    +0.000 OA
BRANCH  26  29
ATOM     28  C   UNL     1       6.776   4.591  13.913  0.00  0.00    +0.000 C 
ATOM     29  O   UNL     1       7.466   5.279  14.967  0.00  0.00    +0.000 OA
ENDBRANCH  26  29
ENDBRANCH  20  26
ENDBRANCH  18  23
ENDBRANCH   1  18
TORSDOF 6
ENDMDL
MODEL 8
REMARK VINA RESULT:      -7.7      2.782      8.135
REMARK  Name = 
REMARK  7 active torsions:
REMARK  status: ('A' for Active; 'I' for Inactive)
REMARK    1  A    between atoms: C_1  and  O_2
REMARK    2  A    between atoms: O_2  and  C_3
REMARK    3  A    between atoms: C_3  and  C_5
REMARK    4  A    between atoms: C_8  and  N_9
REMARK    5  A    between atoms: N_9  and  S_10
REMARK    6  A    between atoms: S_10  and  N_13
REMARK    7  A    between atoms: C_14  and  C_16
REMARK                            x       y       z     vdW  Elec       q    Type
REMARK                         _______ _______ _______ _____ _____    ______ ____
ROOT
ATOM      1  S   UNL     1       4.726   3.910  19.383  0.00  0.00    +0.000 S 
ATOM      2  O   UNL     1       5.195   5.092  20.054  0.00  0.00    +0.000 OA
ATOM      3  O   UNL     1       4.843   2.596  19.990  0.00  0.00    +0.000 OA
ENDROOT
BRANCH   1   4
ATOM      4  N   UNL     1       5.544   3.796  17.938  0.00  0.00    +0.000 N 
ATOM      5  C   UNL     1       5.013   3.966  16.630  0.00  0.00    +0.000 C 
ATOM      6  O   UNL     1       3.821   3.838  16.395  0.00  0.00    +0.000 OA
ATOM      7  H   UNL     1       6.483   4.146  18.088  0.00  0.00    +0.000 HD
BRANCH   5   8
ATOM      8  C   UNL     1       6.020   4.347  15.598  0.00  0.00    +0.000 A 
ATOM      9  C   UNL     1       7.245   4.946  15.883  0.00  0.00    +0.000 A 
ATOM     10  N   UNL     1       7.677   5.544  14.731  0.00  0.00    +0.000 N 
ATOM     11  C   UNL     1       7.201   4.821  13.675  0.00  0.00    +0.000 A 
ATOM     12  C   UNL     1       7.676   4.778  12.352  0.00  0.00    +0.000 A 
ATOM     13  C   UNL     1       6.998   3.965  11.453  0.00  0.00    +0.000 A 
ATOM     14  C   UNL     1       5.838   3.301  11.847  0.00  0.00    +0.000 A 
ATOM     15  C   UNL     1       5.352   3.392  13.178  0.00  0.00    +0.000 A 
ATOM     16  C   UNL     1       6.080   4.128  14.146  0.00  0.00    +0.000 A 
ATOM     17  H   UNL     1       8.366   6.283  14.668  0.00  0.00    +0.000 HD
ENDBRANCH   5   8
ENDBRANCH   1   4
BRANCH   1  18
ATOM     18  N   UNL     1       3.116   4.161  18.917  0.00  0.00    +0.000 N 
ATOM     19  H   UNL     1       3.109   4.101  17.896  0.00  0.00    +0.000 HD
BRANCH  18  23
ATOM     20  C   UNL     1       1.516   7.879  20.388  0.00  0.00    +0.000 A 
ATOM     21  C   UNL     1       1.333   6.677  21.087  0.00  0.00    +0.000 A 
ATOM     22  C   UNL     1       1.795   5.453  20.565  0.00  0.00    +0.000 A 
ATOM     23  C   UNL     1       2.464   5.398  19.340  0.00  0.00    +0.000 A 
ATOM     24  C   UNL     1       2.583   6.580  18.602  0.00  0.00    +0.000 A 
ATOM     25  C   UNL     1       2.123   7.815  19.127  0.00  0.00    +0.000 A 
BRANCH  20  26
ATOM     26  C   UNL     1       1.090   9.159  21.053  0.00  0.00    +0.000 C 
ATOM     27  O   UNL     1       0.843  10.181  20.430  0.00  0.00    +0.000 OA
BRANCH  26  29
ATOM     28  C   UNL     1      -0.088   9.755  23.002  0.00  0.00    +0.000 C 
ATOM     29  O   UNL     1       0.990   9.023  22.400  0.00  0.00    +0.000 OA
ENDBRANCH  26  29
ENDBRANCH  20  26
ENDBRANCH  18  23
ENDBRANCH   1  18
TORSDOF 6
ENDMDL
MODEL 9
REMARK VINA RESULT:      -7.6      3.453      8.169
REMARK  Name = 
REMARK  7 active torsions:
REMARK  status: ('A' for Active; 'I' for Inactive)
REMARK    1  A    between atoms: C_1  and  O_2
REMARK    2  A    between atoms: O_2  and  C_3
REMARK    3  A    between atoms: C_3  and  C_5
REMARK    4  A    between atoms: C_8  and  N_9
REMARK    5  A    between atoms: N_9  and  S_10
REMARK    6  A    between atoms: S_10  and  N_13
REMARK    7  A    between atoms: C_14  and  C_16
REMARK                            x       y       z     vdW  Elec       q    Type
REMARK                         _______ _______ _______ _____ _____    ______ ____
ROOT
ATOM      1  S   UNL     1       2.984   5.026  18.950  0.00  0.00    +0.000 S 
ATOM      2  O   UNL     1       2.942   3.934  19.885  0.00  0.00    +0.000 OA
ATOM      3  O   UNL     1       1.961   5.195  17.933  0.00  0.00    +0.000 OA
ENDROOT
BRANCH   1   4
ATOM      4  N   UNL     1       4.417   4.910  18.111  0.00  0.00    +0.000 N 
ATOM      5  C   UNL     1       4.760   3.951  17.118  0.00  0.00    +0.000 C 
ATOM      6  O   UNL     1       4.191   2.873  17.037  0.00  0.00    +0.000 OA
ATOM      7  H   UNL     1       4.764   5.850  17.963  0.00  0.00    +0.000 HD
BRANCH   5   8
ATOM      8  C   UNL     1       5.831   4.391  16.177  0.00  0.00    +0.000 A 
ATOM      9  C   UNL     1       7.027   4.982  16.574  0.00  0.00    +0.000 A 
ATOM     10  N   UNL     1       7.531   5.640  15.486  0.00  0.00    +0.000 N 
ATOM     11  C   UNL     1       7.133   4.969  14.365  0.00  0.00    +0.000 A 
ATOM     12  C   UNL     1       7.697   4.997  13.077  0.00  0.00    +0.000 A 
ATOM     13  C   UNL     1       7.089   4.227  12.094  0.00  0.00    +0.000 A 
ATOM     14  C   UNL     1       5.912   3.536  12.374  0.00  0.00    +0.000 A 
ATOM     15  C   UNL     1       5.337   3.556  13.673  0.00  0.00    +0.000 A 
ATOM     16  C   UNL     1       5.990   4.246  14.724  0.00  0.00    +0.000 A 
ATOM     17  H   UNL     1       8.215   6.386  15.507  0.00  0.00    +0.000 HD
ENDBRANCH   5   8
ENDBRANCH   1   4
BRANCH   1  18
ATOM     18  N   UNL     1       3.142   6.471  19.821  0.00  0.00    +0.000 N 
ATOM     19  H   UNL     1       3.030   6.217  20.805  0.00  0.00    +0.000 HD
BRANCH  18  23
ATOM     20  C   UNL     1       0.756   9.962  18.999  0.00  0.00    +0.000 A 
ATOM     21  C   UNL     1       0.703   9.317  20.243  0.00  0.00    +0.000 A 
ATOM     22  C   UNL     1       1.430   8.134  20.482  0.00  0.00    +0.000 A 
ATOM     23  C   UNL     1       2.239   7.572  19.492  0.00  0.00    +0.000 A 
ATOM     24  C   UNL     1       2.237   8.167  18.226  0.00  0.00    +0.000 A 
ATOM     25  C   UNL     1       1.511   9.360  17.983  0.00  0.00    +0.000 A 
BRANCH  20  26
ATOM     26  C   UNL     1       0.038  11.274  18.848  0.00  0.00    +0.000 C 
ATOM     27  O   UNL     1       0.621  12.333  18.665  0.00  0.00    +0.000 OA
BRANCH  26  29
ATOM     28  C   UNL     1      -1.987  11.214  17.650  0.00  0.00    +0.000 C 
ATOM     29  O   UNL     1      -1.310  11.126  18.913  0.00  0.00    +0.000 OA
ENDBRANCH  26  29
ENDBRANCH  20  26
ENDBRANCH  18  23
ENDBRANCH   1  18
TORSDOF 6
ENDMDL
