MODEL 1
REMARK VINA RESULT:      -8.1      0.000      0.000
REMARK  Name = 
REMARK  5 active torsions:
REMARK  status: ('A' for Active; 'I' for Inactive)
REMARK    1  A    between atoms: C_2  and  C_3
REMARK    2  A    between atoms: C_3  and  S_4
REMARK    3  A    between atoms: S_4  and  C_5
REMARK    4  A    between atoms: C_7  and  O_8
REMARK    5  A    between atoms: N_12  and  C_13
REMARK                            x       y       z     vdW  Elec       q    Type
REMARK                         _______ _______ _______ _____ _____    ______ ____
ROOT
ATOM      1  C   UNL     1       5.821   5.237  18.789  0.00  0.00    +0.000 A 
ATOM      2  N   UNL     1       5.843   3.913  19.072  0.00  0.00    +0.000 NA
ATOM      3  C   UNL     1       4.746   3.378  19.627  0.00  0.00    +0.000 A 
ATOM      4  C   UNL     1       3.632   4.142  19.901  0.00  0.00    +0.000 A 
ATOM      5  C   UNL     1       2.358   3.973  20.455  0.00  0.00    +0.000 A 
ATOM      6  N   UNL     1       1.683   5.117  20.536  0.00  0.00    +0.000 NA
ATOM      7  N   UNL     1       2.491   6.032  19.919  0.00  0.00    +0.000 N 
ATOM      8  C   UNL     1       3.715   5.476  19.560  0.00  0.00    +0.000 A 
ATOM      9  N   UNL     1       4.785   6.075  18.985  0.00  0.00    +0.000 NA
ENDROOT
BRANCH   7  10
ATOM     10  C   UNL     1       2.006   7.350  19.699  0.00  0.00    +0.000 A 
ATOM     11  C   UNL     1       1.402   8.042  20.763  0.00  0.00    +0.000 A 
ATOM     12  C   UNL     1       0.906   9.330  20.563  0.00  0.00    +0.000 A 
ATOM     13  C   UNL     1       0.986   9.901  19.302  0.00  0.00    +0.000 A 
ATOM     14  F   UNL     1       0.490  11.131  19.101  0.00  0.00    +0.000 F 
ATOM     15  C   UNL     1       1.564   9.223  18.236  0.00  0.00    +0.000 A 
ATOM     16  C   UNL     1       2.091   7.948  18.436  0.00  0.00    +0.000 A 
ENDBRANCH   7  10
BRANCH   3  17
ATOM     17  O   UNL     1       4.790   2.037  19.877  0.00  0.00    +0.000 OA
ATOM     18  H   UNL     1       5.746   1.896  19.991  0.00  0.00    +0.000 HD
ENDBRANCH   3  17
BRANCH   1  19
ATOM     19  S   UNL     1       7.206   5.859  17.836  0.00  0.00    +0.000 S 
BRANCH  19  20
ATOM     20  C   UNL     1       6.407   6.306  16.244  0.00  0.00    +0.000 C 
BRANCH  20  22
ATOM     21  O   UNL     1       4.710   4.622  15.892  0.00  0.00    +0.000 OA
ATOM     22  C   UNL     1       5.800   5.100  15.539  0.00  0.00    +0.000 C 
ATOM     23  N   UNL     1       6.496   4.539  14.476  0.00  0.00    +0.000 N 
ATOM     24  C   UNL     1       7.795   4.976  13.971  0.00  0.00    +0.000 C 
ATOM     25  C   UNL     1       7.719   5.274  12.475  0.00  0.00    +0.000 C 
ATOM     26  C   UNL     1       7.123   4.102  11.689  0.00  0.00    +0.000 C 
ATOM     27  C   UNL     1       5.813   3.610  12.309  0.00  0.00    +0.000 C 
ATOM     28  C   UNL     1       5.961   3.355  13.806  0.00  0.00    +0.000 C 
ENDBRANCH  20  22
ENDBRANCH  19  20
ENDBRANCH   1  19
TORSDOF 5
ENDMDL
MODEL 2
REMARK VINA RESULT:      -7.9      3.606      8.285
REMARK  Name = 
REMARK  5 active torsions:
REMARK  status: ('A' for Active; 'I' for Inactive)
REMARK    1  A    between atoms: C_2  and  C_3
REMARK    2  A    between atoms: C_3  and  S_4
REMARK    3  A    between atoms: S_4  and  C_5
REMARK    4  A    between atoms: C_7  and  O_8
REMARK    5  A    between atoms: N_12  and  C_13
REMARK                            x       y       z     vdW  Elec       q    Type
REMARK                         _______ _______ _______ _____ _____    ______ ____
ROOT
ATOM      1  C   UNL     1       2.696   7.487  18.351  0.00  0.00    +0.000 A 
ATOM      2  N   UNL     1       2.236   7.108  19.567  0.00  0.00    +0.000 NA
ATOM      3  C   UNL     1       2.620   5.909  20.029  0.00  0.00    +0.000 A 
ATOM      4  C   UNL     1       3.453   5.089  19.298  0.00  0.00    +0.000 A 
ATOM      5  C   UNL     1       4.046   3.827  19.418  0.00  0.00    +0.000 A 
ATOM      6  N   UNL     1       4.741   3.487  18.336  0.00  0.00    +0.000 NA
ATOM      7  N   UNL     1       4.693   4.598  17.539  0.00  0.00    +0.000 N 
ATOM      8  C   UNL     1       3.871   5.582  18.080  0.00  0.00    +0.000 A 
ATOM      9  N   UNL     1       3.532   6.787  17.563  0.00  0.00    +0.000 NA
ENDROOT
BRANCH   7  10
ATOM     10  C   UNL     1       5.464   4.631  16.346  0.00  0.00    +0.000 A 
ATOM     11  C   UNL     1       6.722   5.258  16.362  0.00  0.00    +0.000 A 
ATOM     12  C   UNL     1       7.487   5.314  15.198  0.00  0.00    +0.000 A 
ATOM     13  C   UNL     1       6.980   4.777  14.024  0.00  0.00    +0.000 A 
ATOM     14  F   UNL     1       7.704   4.849  12.897  0.00  0.00    +0.000 F 
ATOM     15  C   UNL     1       5.731   4.170  13.987  0.00  0.00    +0.000 A 
ATOM     16  C   UNL     1       4.974   4.081  15.155  0.00  0.00    +0.000 A 
ENDBRANCH   7  10
BRANCH   3  17
ATOM     17  O   UNL     1       2.160   5.565  21.267  0.00  0.00    +0.000 OA
ATOM     18  H   UNL     1       2.575   4.693  21.388  0.00  0.00    +0.000 HD
ENDBRANCH   3  17
BRANCH   1  19
ATOM     19  S   UNL     1       2.356   9.183  17.878  0.00  0.00    +0.000 S 
BRANCH  19  20
ATOM     20  C   UNL     1       0.593   9.368  18.360  0.00  0.00    +0.000 C 
BRANCH  20  22
ATOM     21  O   UNL     1       0.112  11.722  18.625  0.00  0.00    +0.000 OA
ATOM     22  C   UNL     1       0.342  10.632  19.173  0.00  0.00    +0.000 C 
ATOM     23  N   UNL     1       0.370  10.540  20.559  0.00  0.00    +0.000 N 
ATOM     24  C   UNL     1       0.653   9.336  21.336  0.00  0.00    +0.000 C 
ATOM     25  C   UNL     1      -0.473   9.060  22.330  0.00  0.00    +0.000 C 
ATOM     26  C   UNL     1      -0.784  10.285  23.195  0.00  0.00    +0.000 C 
ATOM     27  C   UNL     1      -0.976  11.545  22.349  0.00  0.00    +0.000 C 
ATOM     28  C   UNL     1       0.175  11.742  21.367  0.00  0.00    +0.000 C 
ENDBRANCH  20  22
ENDBRANCH  19  20
ENDBRANCH   1  19
TORSDOF 5
ENDMDL
MODEL 3
REMARK VINA RESULT:      -7.8      3.600      8.076
REMARK  Name = 
REMARK  5 active torsions:
REMARK  status: ('A' for Active; 'I' for Inactive)
REMARK    1  A    between atoms: C_2  and  C_3
REMARK    2  A    between atoms: C_3  and  S_4
REMARK    3  A    between atoms: S_4  and  C_5
REMARK    4  A    between atoms: C_7  and  O_8
REMARK    5  A    between atoms: N_12  and  C_13
REMARK                            x       y       z     vdW  Elec       q    Type
REMARK                         _______ _______ _______ _____ _____    ______ ____
ROOT
ATOM      1  C   UNL     1       2.165   6.081  19.699  0.00  0.00    +0.000 A 
ATOM      2  N   UNL     1       1.448   5.276  20.518  0.00  0.00    +0.000 NA
ATOM      3  C   UNL     1       1.626   3.952  20.400  0.00  0.00    +0.000 A 
ATOM      4  C   UNL     1       2.506   3.424  19.479  0.00  0.00    +0.000 A 
ATOM      5  C   UNL     1       2.949   2.164  19.059  0.00  0.00    +0.000 A 
ATOM      6  N   UNL     1       3.805   2.239  18.043  0.00  0.00    +0.000 NA
ATOM      7  N   UNL     1       4.010   3.580  17.872  0.00  0.00    +0.000 N 
ATOM      8  C   UNL     1       3.193   4.336  18.706  0.00  0.00    +0.000 A 
ATOM      9  N   UNL     1       3.070   5.683  18.785  0.00  0.00    +0.000 NA
ENDROOT
BRANCH   7  10
ATOM     10  C   UNL     1       4.996   4.019  16.946  0.00  0.00    +0.000 A 
ATOM     11  C   UNL     1       4.702   3.994  15.572  0.00  0.00    +0.000 A 
ATOM     12  C   UNL     1       5.661   4.406  14.647  0.00  0.00    +0.000 A 
ATOM     13  C   UNL     1       6.911   4.805  15.096  0.00  0.00    +0.000 A 
ATOM     14  F   UNL     1       7.843   5.180  14.207  0.00  0.00    +0.000 F 
ATOM     15  C   UNL     1       7.223   4.818  16.449  0.00  0.00    +0.000 A 
ATOM     16  C   UNL     1       6.259   4.439  17.382  0.00  0.00    +0.000 A 
ENDBRANCH   7  10
BRANCH   3  17
ATOM     17  O   UNL     1       0.909   3.168  21.257  0.00  0.00    +0.000 OA
ATOM     18  H   UNL     1       0.049   3.625  21.257  0.00  0.00    +0.000 HD
ENDBRANCH   3  17
BRANCH   1  19
ATOM     19  S   UNL     1       2.076   7.836  20.049  0.00  0.00    +0.000 S 
BRANCH  19  20
ATOM     20  C   UNL     1       0.700   7.916  21.262  0.00  0.00    +0.000 C 
BRANCH  20  22
ATOM     21  O   UNL     1       1.033   9.526  23.034  0.00  0.00    +0.000 OA
ATOM     22  C   UNL     1       0.570   9.291  21.906  0.00  0.00    +0.000 C 
ATOM     23  N   UNL     1      -0.081  10.292  21.197  0.00  0.00    +0.000 N 
ATOM     24  C   UNL     1      -0.696  10.152  19.879  0.00  0.00    +0.000 C 
ATOM     25  C   UNL     1      -0.141  11.198  18.912  0.00  0.00    +0.000 C 
ATOM     26  C   UNL     1      -0.241  12.615  19.485  0.00  0.00    +0.000 C 
ATOM     27  C   UNL     1       0.324  12.696  20.905  0.00  0.00    +0.000 C 
ATOM     28  C   UNL     1      -0.259  11.609  21.804  0.00  0.00    +0.000 C 
ENDBRANCH  20  22
ENDBRANCH  19  20
ENDBRANCH   1  19
TORSDOF 5
ENDMDL
MODEL 4
REMARK VINA RESULT:      -7.8      3.487      7.649
REMARK  Name = 
REMARK  5 active torsions:
REMARK  status: ('A' for Active; 'I' for Inactive)
REMARK    1  A    between atoms: C_2  and  C_3
REMARK    2  A    between atoms: C_3  and  S_4
REMARK    3  A    between atoms: S_4  and  C_5
REMARK    4  A    between atoms: C_7  and  O_8
REMARK    5  A    between atoms: N_12  and  C_13
REMARK                            x       y       z     vdW  Elec       q    Type
REMARK                         _______ _______ _______ _____ _____    ______ ____
ROOT
ATOM      1  C   UNL     1       2.093   6.078  19.629  0.00  0.00    +0.000 A 
ATOM      2  N   UNL     1       1.372   5.261  20.433  0.00  0.00    +0.000 NA
ATOM      3  C   UNL     1       1.567   3.940  20.312  0.00  0.00    +0.000 A 
ATOM      4  C   UNL     1       2.467   3.426  19.403  0.00  0.00    +0.000 A 
ATOM      5  C   UNL     1       2.931   2.174  18.984  0.00  0.00    +0.000 A 
ATOM      6  N   UNL     1       3.803   2.263  17.983  0.00  0.00    +0.000 NA
ATOM      7  N   UNL     1       3.996   3.608  17.821  0.00  0.00    +0.000 N 
ATOM      8  C   UNL     1       3.157   4.350  18.645  0.00  0.00    +0.000 A 
ATOM      9  N   UNL     1       3.018   5.695  18.729  0.00  0.00    +0.000 NA
ENDROOT
BRANCH   7  10
ATOM     10  C   UNL     1       4.992   4.061  16.914  0.00  0.00    +0.000 A 
ATOM     11  C   UNL     1       4.700   4.096  15.540  0.00  0.00    +0.000 A 
ATOM     12  C   UNL     1       5.669   4.523  14.632  0.00  0.00    +0.000 A 
ATOM     13  C   UNL     1       6.926   4.879  15.098  0.00  0.00    +0.000 A 
ATOM     14  F   UNL     1       7.867   5.270  14.225  0.00  0.00    +0.000 F 
ATOM     15  C   UNL     1       7.236   4.834  16.451  0.00  0.00    +0.000 A 
ATOM     16  C   UNL     1       6.262   4.438  17.368  0.00  0.00    +0.000 A 
ENDBRANCH   7  10
BRANCH   3  17
ATOM     17  O   UNL     1       0.844   3.144  21.152  0.00  0.00    +0.000 OA
ATOM     18  H   UNL     1       1.373   3.200  21.968  0.00  0.00    +0.000 HD
ENDBRANCH   3  17
BRANCH   1  19
ATOM     19  S   UNL     1       1.979   7.831  19.987  0.00  0.00    +0.000 S 
BRANCH  19  20
ATOM     20  C   UNL     1       1.646   8.540  18.326  0.00  0.00    +0.000 C 
BRANCH  20  22
ATOM     21  O   UNL     1       2.533  10.764  17.992  0.00  0.00    +0.000 OA
ATOM     22  C   UNL     1       1.572  10.062  18.347  0.00  0.00    +0.000 C 
ATOM     23  N   UNL     1       0.392  10.659  18.772  0.00  0.00    +0.000 N 
ATOM     24  C   UNL     1      -0.803   9.963  19.242  0.00  0.00    +0.000 C 
ATOM     25  C   UNL     1      -2.031  10.402  18.445  0.00  0.00    +0.000 C 
ATOM     26  C   UNL     1      -2.181  11.926  18.422  0.00  0.00    +0.000 C 
ATOM     27  C   UNL     1      -0.878  12.621  18.021  0.00  0.00    +0.000 C 
ATOM     28  C   UNL     1       0.304  12.116  18.844  0.00  0.00    +0.000 C 
ENDBRANCH  20  22
ENDBRANCH  19  20
ENDBRANCH   1  19
TORSDOF 5
ENDMDL
MODEL 5
REMARK VINA RESULT:      -7.8      3.508      7.961
REMARK  Name = 
REMARK  5 active torsions:
REMARK  status: ('A' for Active; 'I' for Inactive)
REMARK    1  A    between atoms: C_2  and  C_3
REMARK    2  A    between atoms: C_3  and  S_4
REMARK    3  A    between atoms: S_4  and  C_5
REMARK    4  A    between atoms: C_7  and  O_8
REMARK    5  A    between atoms: N_12  and  C_13
REMARK                            x       y       z     vdW  Elec       q    Type
REMARK                         _______ _______ _______ _____ _____    ______ ____
ROOT
ATOM      1  C   UNL     1       2.366   6.133  19.786  0.00  0.00    +0.000 A 
ATOM      2  N   UNL     1       1.887   5.417  20.831  0.00  0.00    +0.000 NA
ATOM      3  C   UNL     1       2.307   4.150  20.960  0.00  0.00    +0.000 A 
ATOM      4  C   UNL     1       3.195   3.592  20.065  0.00  0.00    +0.000 A 
ATOM      5  C   UNL     1       3.837   2.366  19.857  0.00  0.00    +0.000 A 
ATOM      6  N   UNL     1       4.578   2.361  18.751  0.00  0.00    +0.000 NA
ATOM      7  N   UNL     1       4.506   3.647  18.290  0.00  0.00    +0.000 N 
ATOM      8  C   UNL     1       3.627   4.416  19.047  0.00  0.00    +0.000 A 
ATOM      9  N   UNL     1       3.254   5.706  18.869  0.00  0.00    +0.000 NA
ENDROOT
BRANCH   7  10
ATOM     10  C   UNL     1       5.310   4.034  17.184  0.00  0.00    +0.000 A 
ATOM     11  C   UNL     1       6.626   4.469  17.414  0.00  0.00    +0.000 A 
ATOM     12  C   UNL     1       7.425   4.868  16.343  0.00  0.00    +0.000 A 
ATOM     13  C   UNL     1       6.897   4.861  15.061  0.00  0.00    +0.000 A 
ATOM     14  F   UNL     1       7.656   5.264  14.031  0.00  0.00    +0.000 F 
ATOM     15  C   UNL     1       5.592   4.450  14.819  0.00  0.00    +0.000 A 
ATOM     16  C   UNL     1       4.797   4.020  15.881  0.00  0.00    +0.000 A 
ENDBRANCH   7  10
BRANCH   3  17
ATOM     17  O   UNL     1       1.826   3.462  22.036  0.00  0.00    +0.000 OA
ATOM     18  H   UNL     1       1.074   4.022  22.298  0.00  0.00    +0.000 HD
ENDBRANCH   3  17
BRANCH   1  19
ATOM     19  S   UNL     1       1.969   7.881  19.785  0.00  0.00    +0.000 S 
BRANCH  19  20
ATOM     20  C   UNL     1       0.850   8.021  21.235  0.00  0.00    +0.000 C 
BRANCH  20  22
ATOM     21  O   UNL     1       1.359   9.745  22.851  0.00  0.00    +0.000 OA
ATOM     22  C   UNL     1       0.791   9.438  21.790  0.00  0.00    +0.000 C 
ATOM     23  N   UNL     1       0.083  10.397  21.076  0.00  0.00    +0.000 N 
ATOM     24  C   UNL     1      -0.654  10.174  19.835  0.00  0.00    +0.000 C 
ATOM     25  C   UNL     1      -0.187  11.143  18.750  0.00  0.00    +0.000 C 
ATOM     26  C   UNL     1      -0.222  12.597  19.229  0.00  0.00    +0.000 C 
ATOM     27  C   UNL     1       0.474  12.769  20.580  0.00  0.00    +0.000 C 
ATOM     28  C   UNL     1      -0.029  11.755  21.604  0.00  0.00    +0.000 C 
ENDBRANCH  20  22
ENDBRANCH  19  20
ENDBRANCH   1  19
TORSDOF 5
ENDMDL
MODEL 6
REMARK VINA RESULT:      -7.7      3.706      7.848
REMARK  Name = 
REMARK  5 active torsions:
REMARK  status: ('A' for Active; 'I' for Inactive)
REMARK    1  A    between atoms: C_2  and  C_3
REMARK    2  A    between atoms: C_3  and  S_4
REMARK    3  A    between atoms: S_4  and  C_5
REMARK    4  A    between atoms: C_7  and  O_8
REMARK    5  A    between atoms: N_12  and  C_13
REMARK                            x       y       z     vdW  Elec       q    Type
REMARK                         _______ _______ _______ _____ _____    ______ ____
ROOT
ATOM      1  C   UNL     1       1.738   5.589  20.450  0.00  0.00    +0.000 A 
ATOM      2  N   UNL     1       1.265   4.427  20.959  0.00  0.00    +0.000 NA
ATOM      3  C   UNL     1       2.035   3.336  20.836  0.00  0.00    +0.000 A 
ATOM      4  C   UNL     1       3.265   3.389  20.215  0.00  0.00    +0.000 A 
ATOM      5  C   UNL     1       4.313   2.519  19.893  0.00  0.00    +0.000 A 
ATOM      6  N   UNL     1       5.280   3.120  19.204  0.00  0.00    +0.000 NA
ATOM      7  N   UNL     1       4.907   4.436  19.175  0.00  0.00    +0.000 N 
ATOM      8  C   UNL     1       3.652   4.627  19.745  0.00  0.00    +0.000 A 
ATOM      9  N   UNL     1       2.930   5.768  19.850  0.00  0.00    +0.000 NA
ENDROOT
BRANCH   7  10
ATOM     10  C   UNL     1       5.800   5.399  18.631  0.00  0.00    +0.000 A 
ATOM     11  C   UNL     1       7.059   5.577  19.229  0.00  0.00    +0.000 A 
ATOM     12  C   UNL     1       7.944   6.527  18.719  0.00  0.00    +0.000 A 
ATOM     13  C   UNL     1       7.554   7.311  17.644  0.00  0.00    +0.000 A 
ATOM     14  F   UNL     1       8.394   8.242  17.166  0.00  0.00    +0.000 F 
ATOM     15  C   UNL     1       6.306   7.160  17.053  0.00  0.00    +0.000 A 
ATOM     16  C   UNL     1       5.428   6.189  17.537  0.00  0.00    +0.000 A 
ENDBRANCH   7  10
BRANCH   3  17
ATOM     17  O   UNL     1       1.543   2.186  21.381  0.00  0.00    +0.000 OA
ATOM     18  H   UNL     1       0.824   1.975  20.761  0.00  0.00    +0.000 HD
ENDBRANCH   3  17
BRANCH   1  19
ATOM     19  S   UNL     1       0.793   7.060  20.844  0.00  0.00    +0.000 S 
BRANCH  19  20
ATOM     20  C   UNL     1       1.746   8.371  19.981  0.00  0.00    +0.000 C 
BRANCH  20  22
ATOM     21  O   UNL     1       0.618  10.042  18.648  0.00  0.00    +0.000 OA
ATOM     22  C   UNL     1       0.935   9.645  19.781  0.00  0.00    +0.000 C 
ATOM     23  N   UNL     1       0.547  10.363  20.905  0.00  0.00    +0.000 N 
ATOM     24  C   UNL     1       0.870  10.032  22.290  0.00  0.00    +0.000 C 
ATOM     25  C   UNL     1      -0.402   9.937  23.132  0.00  0.00    +0.000 C 
ATOM     26  C   UNL     1      -1.275  11.188  22.991  0.00  0.00    +0.000 C 
ATOM     27  C   UNL     1      -1.507  11.557  21.524  0.00  0.00    +0.000 C 
ATOM     28  C   UNL     1      -0.195  11.611  20.745  0.00  0.00    +0.000 C 
ENDBRANCH  20  22
ENDBRANCH  19  20
ENDBRANCH   1  19
TORSDOF 5
ENDMDL
MODEL 7
REMARK VINA RESULT:      -7.7      3.745      8.473
REMARK  Name = 
REMARK  5 active torsions:
REMARK  status: ('A' for Active; 'I' for Inactive)
REMARK    1  A    between atoms: C_2  and  C_3
REMARK    2  A    between atoms: C_3  and  S_4
REMARK    3  A    between atoms: S_4  and  C_5
REMARK    4  A    between atoms: C_7  and  O_8
REMARK    5  A    between atoms: N_12  and  C_13
REMARK                            x       y       z     vdW  Elec       q    Type
REMARK                         _______ _______ _______ _____ _____    ______ ____
ROOT
ATOM      1  C   UNL     1       2.600   7.218  18.429  0.00  0.00    +0.000 A 
ATOM      2  N   UNL     1       2.208   6.824  19.663  0.00  0.00    +0.000 NA
ATOM      3  C   UNL     1       2.695   5.663  20.128  0.00  0.00    +0.000 A 
ATOM      4  C   UNL     1       3.562   4.896  19.380  0.00  0.00    +0.000 A 
ATOM      5  C   UNL     1       4.251   3.683  19.495  0.00  0.00    +0.000 A 
ATOM      6  N   UNL     1       4.935   3.380  18.395  0.00  0.00    +0.000 NA
ATOM      7  N   UNL     1       4.779   4.473  17.587  0.00  0.00    +0.000 N 
ATOM      8  C   UNL     1       3.904   5.401  18.142  0.00  0.00    +0.000 A 
ATOM      9  N   UNL     1       3.460   6.570  17.622  0.00  0.00    +0.000 NA
ENDROOT
BRANCH   7  10
ATOM     10  C   UNL     1       5.507   4.545  16.369  0.00  0.00    +0.000 A 
ATOM     11  C   UNL     1       6.772   5.156  16.364  0.00  0.00    +0.000 A 
ATOM     12  C   UNL     1       7.496   5.251  15.175  0.00  0.00    +0.000 A 
ATOM     13  C   UNL     1       6.939   4.767  14.001  0.00  0.00    +0.000 A 
ATOM     14  F   UNL     1       7.623   4.876  12.852  0.00  0.00    +0.000 F 
ATOM     15  C   UNL     1       5.682   4.175  13.985  0.00  0.00    +0.000 A 
ATOM     16  C   UNL     1       4.967   4.048  15.176  0.00  0.00    +0.000 A 
ENDBRANCH   7  10
BRANCH   3  17
ATOM     17  O   UNL     1       2.302   5.305  21.384  0.00  0.00    +0.000 OA
ATOM     18  H   UNL     1       1.814   4.482  21.203  0.00  0.00    +0.000 HD
ENDBRANCH   3  17
BRANCH   1  19
ATOM     19  S   UNL     1       2.120   8.877  17.946  0.00  0.00    +0.000 S 
BRANCH  19  20
ATOM     20  C   UNL     1       1.096   9.410  19.374  0.00  0.00    +0.000 C 
BRANCH  20  22
ATOM     21  O   UNL     1      -0.690  10.139  17.918  0.00  0.00    +0.000 OA
ATOM     22  C   UNL     1      -0.044  10.333  18.961  0.00  0.00    +0.000 C 
ATOM     23  N   UNL     1      -0.356  11.406  19.786  0.00  0.00    +0.000 N 
ATOM     24  C   UNL     1       0.332  11.769  21.021  0.00  0.00    +0.000 C 
ATOM     25  C   UNL     1      -0.658  11.870  22.180  0.00  0.00    +0.000 C 
ATOM     26  C   UNL     1      -1.837  12.788  21.846  0.00  0.00    +0.000 C 
ATOM     27  C   UNL     1      -2.467  12.436  20.497  0.00  0.00    +0.000 C 
ATOM     28  C   UNL     1      -1.416  12.333  19.395  0.00  0.00    +0.000 C 
ENDBRANCH  20  22
ENDBRANCH  19  20
ENDBRANCH   1  19
TORSDOF 5
ENDMDL
MODEL 8
REMARK VINA RESULT:      -7.6      3.712      7.601
REMARK  Name = 
REMARK  5 active torsions:
REMARK  status: ('A' for Active; 'I' for Inactive)
REMARK    1  A    between atoms: C_2  and  C_3
REMARK    2  A    between atoms: C_3  and  S_4
REMARK    3  A    between atoms: S_4  and  C_5
REMARK    4  A    between atoms: C_7  and  O_8
REMARK    5  A    between atoms: N_12  and  C_13
REMARK                            x       y       z     vdW  Elec       q    Type
REMARK                         _______ _______ _______ _____ _____    ______ ____
ROOT
ATOM      1  C   UNL     1       1.727   5.688  20.473  0.00  0.00    +0.000 A 
ATOM      2  N   UNL     1       1.227   4.518  20.935  0.00  0.00    +0.000 NA
ATOM      3  C   UNL     1       1.978   3.418  20.780  0.00  0.00    +0.000 A 
ATOM      4  C   UNL     1       3.215   3.470  20.172  0.00  0.00    +0.000 A 
ATOM      5  C   UNL     1       4.249   2.593  19.828  0.00  0.00    +0.000 A 
ATOM      6  N   UNL     1       5.234   3.200  19.171  0.00  0.00    +0.000 NA
ATOM      7  N   UNL     1       4.886   4.523  19.186  0.00  0.00    +0.000 N 
ATOM      8  C   UNL     1       3.629   4.717  19.751  0.00  0.00    +0.000 A 
ATOM      9  N   UNL     1       2.927   5.867  19.891  0.00  0.00    +0.000 NA
ENDROOT
BRANCH   7  10
ATOM     10  C   UNL     1       5.802   5.487  18.685  0.00  0.00    +0.000 A 
ATOM     11  C   UNL     1       5.412   6.309  17.614  0.00  0.00    +0.000 A 
ATOM     12  C   UNL     1       6.303   7.251  17.099  0.00  0.00    +0.000 A 
ATOM     13  C   UNL     1       7.579   7.342  17.632  0.00  0.00    +0.000 A 
ATOM     14  F   UNL     1       8.446   8.232  17.125  0.00  0.00    +0.000 F 
ATOM     15  C   UNL     1       7.986   6.525  18.680  0.00  0.00    +0.000 A 
ATOM     16  C   UNL     1       7.091   5.603  19.221  0.00  0.00    +0.000 A 
ENDBRANCH   7  10
BRANCH   3  17
ATOM     17  O   UNL     1       1.460   2.258  21.278  0.00  0.00    +0.000 OA
ATOM     18  H   UNL     1       0.505   2.429  21.201  0.00  0.00    +0.000 HD
ENDBRANCH   3  17
BRANCH   1  19
ATOM     19  S   UNL     1       0.805   7.162  20.910  0.00  0.00    +0.000 S 
BRANCH  19  20
ATOM     20  C   UNL     1       1.858   8.495  20.213  0.00  0.00    +0.000 C 
BRANCH  20  22
ATOM     21  O   UNL     1       0.970   9.171  18.070  0.00  0.00    +0.000 OA
ATOM     22  C   UNL     1       1.086   9.420  19.281  0.00  0.00    +0.000 C 
ATOM     23  N   UNL     1       0.502  10.560  19.818  0.00  0.00    +0.000 N 
ATOM     24  C   UNL     1       0.580  10.991  21.211  0.00  0.00    +0.000 C 
ATOM     25  C   UNL     1      -0.819  11.207  21.788  0.00  0.00    +0.000 C 
ATOM     26  C   UNL     1      -1.662  12.134  20.908  0.00  0.00    +0.000 C 
ATOM     27  C   UNL     1      -1.636  11.705  19.439  0.00  0.00    +0.000 C 
ATOM     28  C   UNL     1      -0.209  11.489  18.943  0.00  0.00    +0.000 C 
ENDBRANCH  20  22
ENDBRANCH  19  20
ENDBRANCH   1  19
TORSDOF 5
ENDMDL
MODEL 9
REMARK VINA RESULT:      -7.6      3.755      7.348
REMARK  Name = 
REMARK  5 active torsions:
REMARK  status: ('A' for Active; 'I' for Inactive)
REMARK    1  A    between atoms: C_2  and  C_3
REMARK    2  A    between atoms: C_3  and  S_4
REMARK    3  A    between atoms: S_4  and  C_5
REMARK    4  A    between atoms: C_7  and  O_8
REMARK    5  A    between atoms: N_12  and  C_13
REMARK                            x       y       z     vdW  Elec       q    Type
REMARK                         _______ _______ _______ _____ _____    ______ ____
ROOT
ATOM      1  C   UNL     1       1.658   6.280  20.499  0.00  0.00    +0.000 A 
ATOM      2  N   UNL     1       0.998   5.164  20.891  0.00  0.00    +0.000 NA
ATOM      3  C   UNL     1       1.553   3.979  20.596  0.00  0.00    +0.000 A 
ATOM      4  C   UNL     1       2.751   3.894  19.919  0.00  0.00    +0.000 A 
ATOM      5  C   UNL     1       3.612   2.901  19.437  0.00  0.00    +0.000 A 
ATOM      6  N   UNL     1       4.649   3.405  18.774  0.00  0.00    +0.000 NA
ATOM      7  N   UNL     1       4.521   4.759  18.923  0.00  0.00    +0.000 N 
ATOM      8  C   UNL     1       3.341   5.094  19.580  0.00  0.00    +0.000 A 
ATOM      9  N   UNL     1       2.842   6.321  19.861  0.00  0.00    +0.000 NA
ENDROOT
BRANCH   7  10
ATOM     10  C   UNL     1       5.556   5.610  18.451  0.00  0.00    +0.000 A 
ATOM     11  C   UNL     1       6.804   5.592  19.096  0.00  0.00    +0.000 A 
ATOM     12  C   UNL     1       7.828   6.431  18.657  0.00  0.00    +0.000 A 
ATOM     13  C   UNL     1       7.589   7.302  17.605  0.00  0.00    +0.000 A 
ATOM     14  F   UNL     1       8.565   8.126  17.194  0.00  0.00    +0.000 F 
ATOM     15  C   UNL     1       6.355   7.345  16.967  0.00  0.00    +0.000 A 
ATOM     16  C   UNL     1       5.337   6.486  17.380  0.00  0.00    +0.000 A 
ENDBRANCH   7  10
BRANCH   3  17
ATOM     17  O   UNL     1       0.877   2.874  21.025  0.00  0.00    +0.000 OA
ATOM     18  H   UNL     1       0.597   3.156  21.913  0.00  0.00    +0.000 HD
ENDBRANCH   3  17
BRANCH   1  19
ATOM     19  S   UNL     1       1.009   7.833  21.118  0.00  0.00    +0.000 S 
BRANCH  19  20
ATOM     20  C   UNL     1       1.387   8.983  19.737  0.00  0.00    +0.000 C 
BRANCH  20  22
ATOM     21  O   UNL     1      -0.839   9.888  20.002  0.00  0.00    +0.000 OA
ATOM     22  C   UNL     1       0.308  10.042  19.550  0.00  0.00    +0.000 C 
ATOM     23  N   UNL     1       0.635  11.202  18.859  0.00  0.00    +0.000 N 
ATOM     24  C   UNL     1       1.927  11.505  18.250  0.00  0.00    +0.000 C 
ATOM     25  C   UNL     1       2.462  12.842  18.761  0.00  0.00    +0.000 C 
ATOM     26  C   UNL     1       1.435  13.966  18.603  0.00  0.00    +0.000 C 
ATOM     27  C   UNL     1       0.067  13.570  19.163  0.00  0.00    +0.000 C 
ATOM     28  C   UNL     1      -0.390  12.217  18.625  0.00  0.00    +0.000 C 
ENDBRANCH  20  22
ENDBRANCH  19  20
ENDBRANCH   1  19
TORSDOF 5
ENDMDL
