MODEL 1
REMARK VINA RESULT:      -9.1      0.000      0.000
REMARK  Name = 
REMARK  3 active torsions:
REMARK  status: ('A' for Active; 'I' for Inactive)
REMARK    1  A    between atoms: C_2  and  C_3
REMARK    2  A    between atoms: C_15  and  O_16
REMARK    3  A    between atoms: C_17  and  N_18
REMARK                            x       y       z     vdW  Elec       q    Type
REMARK                         _______ _______ _______ _____ _____    ______ ____
ROOT
ATOM      1  O   UNL     1       7.109   4.700  18.486  0.00  0.00    +0.000 OA
ATOM      2  C   UNL     1       6.205   4.836  17.664  0.00  0.00    +0.000 C 
ATOM      3  N   UNL     1       4.951   5.319  18.017  0.00  0.00    +0.000 N 
ATOM      4  C   UNL     1       4.692   5.880  19.325  0.00  0.00    +0.000 C 
ATOM      5  C   UNL     1       3.258   5.486  19.687  0.00  0.00    +0.000 C 
ATOM      6  C   UNL     1       2.558   5.155  18.344  0.00  0.00    +0.000 C 
ATOM      7  C   UNL     1       3.733   4.841  17.399  0.00  0.00    +0.000 C 
ENDROOT
BRANCH   2   8
ATOM      8  C   UNL     1       6.409   4.521  16.263  0.00  0.00    +0.000 A 
ATOM      9  C   UNL     1       5.701   3.666  15.436  0.00  0.00    +0.000 A 
ATOM     10  C   UNL     1       6.176   3.810  14.113  0.00  0.00    +0.000 A 
ATOM     11  C   UNL     1       5.794   3.256  12.877  0.00  0.00    +0.000 A 
ATOM     12  C   UNL     1       6.434   3.684  11.708  0.00  0.00    +0.000 A 
ATOM     13  C   UNL     1       7.459   4.628  11.767  0.00  0.00    +0.000 A 
ATOM     14  C   UNL     1       7.858   5.163  12.992  0.00  0.00    +0.000 A 
ATOM     15  F   UNL     1       8.841   6.071  13.039  0.00  0.00    +0.000 F 
ATOM     16  C   UNL     1       7.199   4.755  14.152  0.00  0.00    +0.000 A 
ATOM     17  N   UNL     1       7.336   5.157  15.461  0.00  0.00    +0.000 N 
ATOM     18  H   UNL     1       7.987   5.863  15.784  0.00  0.00    +0.000 HD
ENDBRANCH   2   8
BRANCH   6  19
ATOM     19  N   UNL     1       1.601   4.025  18.410  0.00  0.00    +0.000 NA
ATOM     20  C   UNL     1       1.084   3.771  19.775  0.00  0.00    +0.000 C 
ATOM     21  C   UNL     1       2.091   3.068  20.700  0.00  0.00    +0.000 C 
ATOM     22  O   UNL     1       2.548   1.839  20.130  0.00  0.00    +0.000 OA
ATOM     23  C   UNL     1       3.124   2.053  18.834  0.00  0.00    +0.000 C 
ATOM     24  C   UNL     1       2.140   2.751  17.884  0.00  0.00    +0.000 C 
ENDBRANCH   6  19
BRANCH   5  25
ATOM     25  O   UNL     1       2.575   6.551  20.362  0.00  0.00    +0.000 OA
ATOM     26  H   UNL     1       2.507   6.322  21.304  0.00  0.00    +0.000 HD
ENDBRANCH   5  25
TORSDOF 3
ENDMDL
MODEL 2
REMARK VINA RESULT:      -9.0      0.868      1.138
REMARK  Name = 
REMARK  3 active torsions:
REMARK  status: ('A' for Active; 'I' for Inactive)
REMARK    1  A    between atoms: C_2  and  C_3
REMARK    2  A    between atoms: C_15  and  O_16
REMARK    3  A    between atoms: C_17  and  N_18
REMARK                            x       y       z     vdW  Elec       q    Type
REMARK                         _______ _______ _______ _____ _____    ______ ____
ROOT
ATOM      1  O   UNL     1       7.512   5.408  18.183  0.00  0.00    +0.000 OA
ATOM      2  C   UNL     1       6.534   5.131  17.491  0.00  0.00    +0.000 C 
ATOM      3  N   UNL     1       5.237   5.187  17.987  0.00  0.00    +0.000 N 
ATOM      4  C   UNL     1       4.941   5.763  19.280  0.00  0.00    +0.000 C 
ATOM      5  C   UNL     1       3.792   4.940  19.866  0.00  0.00    +0.000 C 
ATOM      6  C   UNL     1       3.113   4.242  18.660  0.00  0.00    +0.000 C 
ATOM      7  C   UNL     1       4.210   4.252  17.580  0.00  0.00    +0.000 C 
ENDROOT
BRANCH   2   8
ATOM      8  C   UNL     1       6.682   4.754  16.098  0.00  0.00    +0.000 A 
ATOM      9  C   UNL     1       5.979   3.821  15.355  0.00  0.00    +0.000 A 
ATOM     10  C   UNL     1       6.375   3.920  14.002  0.00  0.00    +0.000 A 
ATOM     11  C   UNL     1       5.961   3.283  12.817  0.00  0.00    +0.000 A 
ATOM     12  C   UNL     1       6.513   3.682  11.595  0.00  0.00    +0.000 A 
ATOM     13  C   UNL     1       7.485   4.681  11.551  0.00  0.00    +0.000 A 
ATOM     14  C   UNL     1       7.918   5.299  12.724  0.00  0.00    +0.000 A 
ATOM     15  F   UNL     1       8.850   6.260  12.671  0.00  0.00    +0.000 F 
ATOM     16  C   UNL     1       7.344   4.919  13.937  0.00  0.00    +0.000 A 
ATOM     17  N   UNL     1       7.528   5.395  15.215  0.00  0.00    +0.000 N 
ATOM     18  H   UNL     1       8.155   6.151  15.466  0.00  0.00    +0.000 HD
ENDBRANCH   2   8
BRANCH   6  19
ATOM     19  N   UNL     1       2.636   2.865  18.933  0.00  0.00    +0.000 NA
ATOM     20  C   UNL     1       1.160   2.754  18.992  0.00  0.00    +0.000 C 
ATOM     21  C   UNL     1       0.548   3.302  20.291  0.00  0.00    +0.000 C 
ATOM     22  O   UNL     1       1.117   2.669  21.441  0.00  0.00    +0.000 OA
ATOM     23  C   UNL     1       2.543   2.818  21.459  0.00  0.00    +0.000 C 
ATOM     24  C   UNL     1       3.186   2.275  20.174  0.00  0.00    +0.000 C 
ENDBRANCH   6  19
BRANCH   5  25
ATOM     25  O   UNL     1       2.853   5.770  20.562  0.00  0.00    +0.000 OA
ATOM     26  H   UNL     1       1.986   5.333  20.544  0.00  0.00    +0.000 HD
ENDBRANCH   5  25
TORSDOF 3
ENDMDL
MODEL 3
REMARK VINA RESULT:      -8.8      4.948      8.167
REMARK  Name = 
REMARK  3 active torsions:
REMARK  status: ('A' for Active; 'I' for Inactive)
REMARK    1  A    between atoms: C_2  and  C_3
REMARK    2  A    between atoms: C_15  and  O_16
REMARK    3  A    between atoms: C_17  and  N_18
REMARK                            x       y       z     vdW  Elec       q    Type
REMARK                         _______ _______ _______ _____ _____    ______ ____
ROOT
ATOM      1  O   UNL     1       2.100   9.086  17.225  0.00  0.00    +0.000 OA
ATOM      2  C   UNL     1       2.111   8.507  18.310  0.00  0.00    +0.000 C 
ATOM      3  N   UNL     1       2.927   7.410  18.556  0.00  0.00    +0.000 N 
ATOM      4  C   UNL     1       3.957   7.004  17.625  0.00  0.00    +0.000 C 
ATOM      5  C   UNL     1       4.010   5.475  17.681  0.00  0.00    +0.000 C 
ATOM      6  C   UNL     1       3.369   5.079  19.035  0.00  0.00    +0.000 C 
ATOM      7  C   UNL     1       2.511   6.306  19.395  0.00  0.00    +0.000 C 
ENDROOT
BRANCH   2   8
ATOM      8  C   UNL     1       1.283   8.961  19.412  0.00  0.00    +0.000 A 
ATOM      9  C   UNL     1       1.224   8.509  20.719  0.00  0.00    +0.000 A 
ATOM     10  C   UNL     1       0.380   9.365  21.463  0.00  0.00    +0.000 A 
ATOM     11  C   UNL     1       0.011   9.428  22.819  0.00  0.00    +0.000 A 
ATOM     12  C   UNL     1      -0.801  10.480  23.259  0.00  0.00    +0.000 A 
ATOM     13  C   UNL     1      -1.263  11.441  22.361  0.00  0.00    +0.000 A 
ATOM     14  C   UNL     1      -0.920  11.370  21.010  0.00  0.00    +0.000 A 
ATOM     15  F   UNL     1      -1.366  12.298  20.155  0.00  0.00    +0.000 F 
ATOM     16  C   UNL     1      -0.088  10.335  20.580  0.00  0.00    +0.000 A 
ATOM     17  N   UNL     1       0.453  10.062  19.345  0.00  0.00    +0.000 N 
ATOM     18  H   UNL     1       0.310  10.624  18.513  0.00  0.00    +0.000 HD
ENDBRANCH   2   8
BRANCH   6  19
ATOM     19  N   UNL     1       2.550   3.843  18.990  0.00  0.00    +0.000 NA
ATOM     20  C   UNL     1       1.441   3.837  19.972  0.00  0.00    +0.000 C 
ATOM     21  C   UNL     1       1.892   3.572  21.417  0.00  0.00    +0.000 C 
ATOM     22  O   UNL     1       2.621   2.345  21.516  0.00  0.00    +0.000 OA
ATOM     23  C   UNL     1       3.749   2.342  20.631  0.00  0.00    +0.000 C 
ATOM     24  C   UNL     1       3.330   2.599  19.177  0.00  0.00    +0.000 C 
ENDBRANCH   6  19
BRANCH   5  25
ATOM     25  O   UNL     1       5.359   4.995  17.603  0.00  0.00    +0.000 OA
ATOM     26  H   UNL     1       5.717   5.229  16.730  0.00  0.00    +0.000 HD
ENDBRANCH   5  25
TORSDOF 3
ENDMDL
MODEL 4
REMARK VINA RESULT:      -8.7      5.063      7.499
REMARK  Name = 
REMARK  3 active torsions:
REMARK  status: ('A' for Active; 'I' for Inactive)
REMARK    1  A    between atoms: C_2  and  C_3
REMARK    2  A    between atoms: C_15  and  O_16
REMARK    3  A    between atoms: C_17  and  N_18
REMARK                            x       y       z     vdW  Elec       q    Type
REMARK                         _______ _______ _______ _____ _____    ______ ____
ROOT
ATOM      1  O   UNL     1       3.600   8.011  17.352  0.00  0.00    +0.000 OA
ATOM      2  C   UNL     1       2.699   7.776  18.156  0.00  0.00    +0.000 C 
ATOM      3  N   UNL     1       1.753   8.730  18.507  0.00  0.00    +0.000 N 
ATOM      4  C   UNL     1       1.645   9.990  17.805  0.00  0.00    +0.000 C 
ATOM      5  C   UNL     1       1.256  11.036  18.852  0.00  0.00    +0.000 C 
ATOM      6  C   UNL     1       0.637  10.244  20.032  0.00  0.00    +0.000 C 
ATOM      7  C   UNL     1       1.205   8.824  19.844  0.00  0.00    +0.000 C 
ENDROOT
BRANCH   2   8
ATOM      8  C   UNL     1       2.560   6.467  18.766  0.00  0.00    +0.000 A 
ATOM      9  C   UNL     1       2.334   6.127  20.089  0.00  0.00    +0.000 A 
ATOM     10  C   UNL     1       2.115   4.733  20.173  0.00  0.00    +0.000 A 
ATOM     11  C   UNL     1       1.781   3.863  21.227  0.00  0.00    +0.000 A 
ATOM     12  C   UNL     1       1.547   2.511  20.952  0.00  0.00    +0.000 A 
ATOM     13  C   UNL     1       1.669   2.023  19.651  0.00  0.00    +0.000 A 
ATOM     14  C   UNL     1       2.023   2.876  18.606  0.00  0.00    +0.000 A 
ATOM     15  F   UNL     1       2.135   2.399  17.359  0.00  0.00    +0.000 F 
ATOM     16  C   UNL     1       2.228   4.229  18.880  0.00  0.00    +0.000 A 
ATOM     17  N   UNL     1       2.516   5.287  18.049  0.00  0.00    +0.000 N 
ATOM     18  H   UNL     1       2.623   5.222  17.044  0.00  0.00    +0.000 HD
ENDBRANCH   2   8
BRANCH   6  19
ATOM     19  N   UNL     1       0.963  10.782  21.374  0.00  0.00    +0.000 NA
ATOM     20  C   UNL     1       0.881   9.767  22.451  0.00  0.00    +0.000 C 
ATOM     21  C   UNL     1      -0.556   9.414  22.862  0.00  0.00    +0.000 C 
ATOM     22  O   UNL     1      -1.286  10.580  23.253  0.00  0.00    +0.000 OA
ATOM     23  C   UNL     1      -1.293  11.560  22.206  0.00  0.00    +0.000 C 
ATOM     24  C   UNL     1       0.132  11.939  21.776  0.00  0.00    +0.000 C 
ENDBRANCH   6  19
BRANCH   5  25
ATOM     25  O   UNL     1       0.311  11.978  18.327  0.00  0.00    +0.000 OA
ATOM     26  H   UNL     1       0.574  12.868  18.614  0.00  0.00    +0.000 HD
ENDBRANCH   5  25
TORSDOF 3
ENDMDL
MODEL 5
REMARK VINA RESULT:      -8.6      4.186      7.642
REMARK  Name = 
REMARK  3 active torsions:
REMARK  status: ('A' for Active; 'I' for Inactive)
REMARK    1  A    between atoms: C_2  and  C_3
REMARK    2  A    between atoms: C_15  and  O_16
REMARK    3  A    between atoms: C_17  and  N_18
REMARK                            x       y       z     vdW  Elec       q    Type
REMARK                         _______ _______ _______ _____ _____    ______ ____
ROOT
ATOM      1  O   UNL     1       1.693   4.818  21.179  0.00  0.00    +0.000 OA
ATOM      2  C   UNL     1       2.170   5.430  20.225  0.00  0.00    +0.000 C 
ATOM      3  N   UNL     1       2.896   4.794  19.226  0.00  0.00    +0.000 N 
ATOM      4  C   UNL     1       2.966   3.352  19.136  0.00  0.00    +0.000 C 
ATOM      5  C   UNL     1       4.373   3.018  18.635  0.00  0.00    +0.000 C 
ATOM      6  C   UNL     1       4.895   4.307  17.949  0.00  0.00    +0.000 C 
ATOM      7  C   UNL     1       4.028   5.417  18.573  0.00  0.00    +0.000 C 
ENDROOT
BRANCH   2   8
ATOM      8  C   UNL     1       1.976   6.860  20.078  0.00  0.00    +0.000 A 
ATOM      9  C   UNL     1       2.054   7.651  18.944  0.00  0.00    +0.000 A 
ATOM     10  C   UNL     1       1.630   8.960  19.268  0.00  0.00    +0.000 A 
ATOM     11  C   UNL     1       1.444  10.136  18.518  0.00  0.00    +0.000 A 
ATOM     12  C   UNL     1       0.917  11.271  19.144  0.00  0.00    +0.000 A 
ATOM     13  C   UNL     1       0.605  11.250  20.502  0.00  0.00    +0.000 A 
ATOM     14  C   UNL     1       0.810  10.094  21.257  0.00  0.00    +0.000 A 
ATOM     15  F   UNL     1       0.505  10.082  22.561  0.00  0.00    +0.000 F 
ATOM     16  C   UNL     1       1.309   8.955  20.623  0.00  0.00    +0.000 A 
ATOM     17  N   UNL     1       1.543   7.685  21.097  0.00  0.00    +0.000 N 
ATOM     18  H   UNL     1       1.367   7.380  22.047  0.00  0.00    +0.000 HD
ENDBRANCH   2   8
BRANCH   6  19
ATOM     19  N   UNL     1       6.339   4.572  18.153  0.00  0.00    +0.000 NA
ATOM     20  C   UNL     1       6.634   5.980  18.510  0.00  0.00    +0.000 C 
ATOM     21  C   UNL     1       6.549   6.952  17.322  0.00  0.00    +0.000 C 
ATOM     22  O   UNL     1       7.408   6.543  16.254  0.00  0.00    +0.000 OA
ATOM     23  C   UNL     1       7.104   5.207  15.830  0.00  0.00    +0.000 C 
ATOM     24  C   UNL     1       7.185   4.210  16.994  0.00  0.00    +0.000 C 
ENDBRANCH   6  19
BRANCH   5  25
ATOM     25  O   UNL     1       4.354   1.926  17.706  0.00  0.00    +0.000 OA
ATOM     26  H   UNL     1       4.804   1.169  18.115  0.00  0.00    +0.000 HD
ENDBRANCH   5  25
TORSDOF 3
ENDMDL
MODEL 6
REMARK VINA RESULT:      -8.4      5.316      7.627
REMARK  Name = 
REMARK  3 active torsions:
REMARK  status: ('A' for Active; 'I' for Inactive)
REMARK    1  A    between atoms: C_2  and  C_3
REMARK    2  A    between atoms: C_15  and  O_16
REMARK    3  A    between atoms: C_17  and  N_18
REMARK                            x       y       z     vdW  Elec       q    Type
REMARK                         _______ _______ _______ _____ _____    ______ ____
ROOT
ATOM      1  O   UNL     1       3.630   7.908  17.397  0.00  0.00    +0.000 OA
ATOM      2  C   UNL     1       2.640   7.756  18.109  0.00  0.00    +0.000 C 
ATOM      3  N   UNL     1       1.799   8.811  18.443  0.00  0.00    +0.000 N 
ATOM      4  C   UNL     1       1.920  10.109  17.816  0.00  0.00    +0.000 C 
ATOM      5  C   UNL     1       1.581  11.142  18.893  0.00  0.00    +0.000 C 
ATOM      6  C   UNL     1       0.762  10.380  19.966  0.00  0.00    +0.000 C 
ATOM      7  C   UNL     1       1.153   8.909  19.735  0.00  0.00    +0.000 C 
ENDROOT
BRANCH   2   8
ATOM      8  C   UNL     1       2.277   6.448  18.621  0.00  0.00    +0.000 A 
ATOM      9  C   UNL     1       1.843   5.322  17.943  0.00  0.00    +0.000 A 
ATOM     10  C   UNL     1       1.766   4.241  18.851  0.00  0.00    +0.000 A 
ATOM     11  C   UNL     1       1.454   2.876  18.713  0.00  0.00    +0.000 A 
ATOM     12  C   UNL     1       1.554   2.035  19.828  0.00  0.00    +0.000 A 
ATOM     13  C   UNL     1       1.931   2.547  21.069  0.00  0.00    +0.000 A 
ATOM     14  C   UNL     1       2.217   3.904  21.217  0.00  0.00    +0.000 A 
ATOM     15  F   UNL     1       2.581   4.387  22.412  0.00  0.00    +0.000 F 
ATOM     16  C   UNL     1       2.144   4.734  20.097  0.00  0.00    +0.000 A 
ATOM     17  N   UNL     1       2.429   6.071  19.941  0.00  0.00    +0.000 N 
ATOM     18  H   UNL     1       2.762   6.682  20.678  0.00  0.00    +0.000 HD
ENDBRANCH   2   8
BRANCH   6  19
ATOM     19  N   UNL     1       1.036  10.799  21.361  0.00  0.00    +0.000 NA
ATOM     20  C   UNL     1       0.900   9.697  22.343  0.00  0.00    +0.000 C 
ATOM     21  C   UNL     1      -0.557   9.328  22.664  0.00  0.00    +0.000 C 
ATOM     22  O   UNL     1      -1.292  10.466  23.123  0.00  0.00    +0.000 OA
ATOM     23  C   UNL     1      -1.245  11.532  22.164  0.00  0.00    +0.000 C 
ATOM     24  C   UNL     1       0.200  11.927  21.826  0.00  0.00    +0.000 C 
ENDBRANCH   6  19
BRANCH   5  25
ATOM     25  O   UNL     1       0.817  12.229  18.354  0.00  0.00    +0.000 OA
ATOM     26  H   UNL     1       0.311  11.900  17.593  0.00  0.00    +0.000 HD
ENDBRANCH   5  25
TORSDOF 3
ENDMDL
MODEL 7
REMARK VINA RESULT:      -8.3      4.055      5.500
REMARK  Name = 
REMARK  3 active torsions:
REMARK  status: ('A' for Active; 'I' for Inactive)
REMARK    1  A    between atoms: C_2  and  C_3
REMARK    2  A    between atoms: C_15  and  O_16
REMARK    3  A    between atoms: C_17  and  N_18
REMARK                            x       y       z     vdW  Elec       q    Type
REMARK                         _______ _______ _______ _____ _____    ______ ____
ROOT
ATOM      1  O   UNL     1       7.737   6.189  15.822  0.00  0.00    +0.000 OA
ATOM      2  C   UNL     1       7.293   6.494  16.927  0.00  0.00    +0.000 C 
ATOM      3  N   UNL     1       6.398   5.683  17.614  0.00  0.00    +0.000 N 
ATOM      4  C   UNL     1       6.089   4.342  17.168  0.00  0.00    +0.000 C 
ATOM      5  C   UNL     1       4.613   4.108  17.495  0.00  0.00    +0.000 C 
ATOM      6  C   UNL     1       4.255   5.136  18.598  0.00  0.00    +0.000 C 
ATOM      7  C   UNL     1       5.336   6.222  18.436  0.00  0.00    +0.000 C 
ENDROOT
BRANCH   2   8
ATOM      8  C   UNL     1       7.704   7.717  17.591  0.00  0.00    +0.000 A 
ATOM      9  C   UNL     1       8.513   7.892  18.701  0.00  0.00    +0.000 A 
ATOM     10  C   UNL     1       8.755   9.273  18.879  0.00  0.00    +0.000 A 
ATOM     11  C   UNL     1       9.540  10.014  19.781  0.00  0.00    +0.000 A 
ATOM     12  C   UNL     1       9.630  11.403  19.630  0.00  0.00    +0.000 A 
ATOM     13  C   UNL     1       8.928  12.051  18.614  0.00  0.00    +0.000 A 
ATOM     14  C   UNL     1       8.128  11.324  17.732  0.00  0.00    +0.000 A 
ATOM     15  F   UNL     1       7.460  11.954  16.757  0.00  0.00    +0.000 F 
ATOM     16  C   UNL     1       8.064   9.936  17.868  0.00  0.00    +0.000 A 
ATOM     17  N   UNL     1       7.421   8.981  17.114  0.00  0.00    +0.000 N 
ATOM     18  H   UNL     1       6.865   9.173  16.289  0.00  0.00    +0.000 HD
ENDBRANCH   2   8
BRANCH   6  19
ATOM     19  N   UNL     1       2.893   5.710  18.487  0.00  0.00    +0.000 NA
ATOM     20  C   UNL     1       2.413   6.333  19.743  0.00  0.00    +0.000 C 
ATOM     21  C   UNL     1       1.978   5.319  20.813  0.00  0.00    +0.000 C 
ATOM     22  O   UNL     1       0.974   4.433  20.310  0.00  0.00    +0.000 OA
ATOM     23  C   UNL     1       1.429   3.753  19.132  0.00  0.00    +0.000 C 
ATOM     24  C   UNL     1       1.868   4.741  18.041  0.00  0.00    +0.000 C 
ENDBRANCH   6  19
BRANCH   5  25
ATOM     25  O   UNL     1       4.383   2.771  17.959  0.00  0.00    +0.000 OA
ATOM     26  H   UNL     1       4.387   2.779  18.931  0.00  0.00    +0.000 HD
ENDBRANCH   5  25
TORSDOF 3
ENDMDL
MODEL 8
REMARK VINA RESULT:      -8.3      4.140      6.215
REMARK  Name = 
REMARK  3 active torsions:
REMARK  status: ('A' for Active; 'I' for Inactive)
REMARK    1  A    between atoms: C_2  and  C_3
REMARK    2  A    between atoms: C_15  and  O_16
REMARK    3  A    between atoms: C_17  and  N_18
REMARK                            x       y       z     vdW  Elec       q    Type
REMARK                         _______ _______ _______ _____ _____    ______ ____
ROOT
ATOM      1  O   UNL     1       1.161   4.847  20.711  0.00  0.00    +0.000 OA
ATOM      2  C   UNL     1       1.928   5.680  20.232  0.00  0.00    +0.000 C 
ATOM      3  N   UNL     1       1.786   7.041  20.471  0.00  0.00    +0.000 N 
ATOM      4  C   UNL     1       0.855   7.547  21.456  0.00  0.00    +0.000 C 
ATOM      5  C   UNL     1       0.309   8.863  20.896  0.00  0.00    +0.000 C 
ATOM      6  C   UNL     1       1.343   9.336  19.843  0.00  0.00    +0.000 C 
ATOM      7  C   UNL     1       2.089   8.041  19.469  0.00  0.00    +0.000 C 
ENDROOT
BRANCH   2   8
ATOM      8  C   UNL     1       3.050   5.279  19.404  0.00  0.00    +0.000 A 
ATOM      9  C   UNL     1       3.064   4.790  18.109  0.00  0.00    +0.000 A 
ATOM     10  C   UNL     1       4.403   4.691  17.670  0.00  0.00    +0.000 A 
ATOM     11  C   UNL     1       5.003   4.326  16.450  0.00  0.00    +0.000 A 
ATOM     12  C   UNL     1       6.393   4.417  16.316  0.00  0.00    +0.000 A 
ATOM     13  C   UNL     1       7.181   4.837  17.387  0.00  0.00    +0.000 A 
ATOM     14  C   UNL     1       6.595   5.176  18.606  0.00  0.00    +0.000 A 
ATOM     15  F   UNL     1       7.359   5.581  19.628  0.00  0.00    +0.000 F 
ATOM     16  C   UNL     1       5.206   5.111  18.727  0.00  0.00    +0.000 A 
ATOM     17  N   UNL     1       4.371   5.443  19.770  0.00  0.00    +0.000 N 
ATOM     18  H   UNL     1       4.678   5.813  20.662  0.00  0.00    +0.000 HD
ENDBRANCH   2   8
BRANCH   6  19
ATOM     19  N   UNL     1       0.752   9.982  18.647  0.00  0.00    +0.000 NA
ATOM     20  C   UNL     1       1.755  10.642  17.778  0.00  0.00    +0.000 C 
ATOM     21  C   UNL     1       2.274  11.978  18.333  0.00  0.00    +0.000 C 
ATOM     22  O   UNL     1       1.199  12.886  18.590  0.00  0.00    +0.000 OA
ATOM     23  C   UNL     1       0.240  12.309  19.488  0.00  0.00    +0.000 C 
ATOM     24  C   UNL     1      -0.301  10.973  18.958  0.00  0.00    +0.000 C 
ENDBRANCH   6  19
BRANCH   5  25
ATOM     25  O   UNL     1       0.155   9.848  21.927  0.00  0.00    +0.000 OA
ATOM     26  H   UNL     1       0.761   9.627  22.654  0.00  0.00    +0.000 HD
ENDBRANCH   5  25
TORSDOF 3
ENDMDL
MODEL 9
REMARK VINA RESULT:      -8.1      6.069      8.024
REMARK  Name = 
REMARK  3 active torsions:
REMARK  status: ('A' for Active; 'I' for Inactive)
REMARK    1  A    between atoms: C_2  and  C_3
REMARK    2  A    between atoms: C_15  and  O_16
REMARK    3  A    between atoms: C_17  and  N_18
REMARK                            x       y       z     vdW  Elec       q    Type
REMARK                         _______ _______ _______ _____ _____    ______ ____
ROOT
ATOM      1  O   UNL     1       1.151   9.396  21.403  0.00  0.00    +0.000 OA
ATOM      2  C   UNL     1       1.072   9.296  20.180  0.00  0.00    +0.000 C 
ATOM      3  N   UNL     1       0.256  10.126  19.421  0.00  0.00    +0.000 N 
ATOM      4  C   UNL     1      -0.395  11.284  19.994  0.00  0.00    +0.000 C 
ATOM      5  C   UNL     1      -1.754  11.403  19.299  0.00  0.00    +0.000 C 
ATOM      6  C   UNL     1      -1.620  10.615  17.971  0.00  0.00    +0.000 C 
ATOM      7  C   UNL     1      -0.441   9.661  18.241  0.00  0.00    +0.000 C 
ENDROOT
BRANCH   2   8
ATOM      8  C   UNL     1       1.856   8.315  19.454  0.00  0.00    +0.000 A 
ATOM      9  C   UNL     1       2.509   8.428  18.238  0.00  0.00    +0.000 A 
ATOM     10  C   UNL     1       3.270   7.258  18.016  0.00  0.00    +0.000 A 
ATOM     11  C   UNL     1       4.162   6.855  17.005  0.00  0.00    +0.000 A 
ATOM     12  C   UNL     1       4.832   5.633  17.130  0.00  0.00    +0.000 A 
ATOM     13  C   UNL     1       4.600   4.808  18.230  0.00  0.00    +0.000 A 
ATOM     14  C   UNL     1       3.699   5.191  19.223  0.00  0.00    +0.000 A 
ATOM     15  F   UNL     1       3.485   4.394  20.278  0.00  0.00    +0.000 F 
ATOM     16  C   UNL     1       3.054   6.423  19.109  0.00  0.00    +0.000 A 
ATOM     17  N   UNL     1       2.183   7.071  19.955  0.00  0.00    +0.000 N 
ATOM     18  H   UNL     1       1.870   6.712  20.850  0.00  0.00    +0.000 HD
ENDBRANCH   2   8
BRANCH   6  19
ATOM     19  N   UNL     1      -2.837   9.868  17.573  0.00  0.00    +0.000 NA
ATOM     20  C   UNL     1      -2.803   9.393  16.170  0.00  0.00    +0.000 C 
ATOM     21  C   UNL     1      -3.054  10.499  15.133  0.00  0.00    +0.000 C 
ATOM     22  O   UNL     1      -4.295  11.168  15.377  0.00  0.00    +0.000 OA
ATOM     23  C   UNL     1      -4.338  11.708  16.705  0.00  0.00    +0.000 C 
ATOM     24  C   UNL     1      -4.095  10.624  17.766  0.00  0.00    +0.000 C 
ENDBRANCH   6  19
BRANCH   5  25
ATOM     25  O   UNL     1      -2.092  12.772  19.040  0.00  0.00    +0.000 OA
ATOM     26  H   UNL     1      -1.688  13.032  18.196  0.00  0.00    +0.000 HD
ENDBRANCH   5  25
TORSDOF 3
ENDMDL
