MODEL 1
REMARK VINA RESULT:      -6.5      0.000      0.000
REMARK  Name = 
REMARK  8 active torsions:
REMARK  status: ('A' for Active; 'I' for Inactive)
REMARK    1  A    between atoms: C_1  and  C_2
REMARK    2  A    between atoms: C_2  and  C_3
REMARK    3  A    between atoms: C_7  and  C_9
REMARK    4  A    between atoms: C_9  and  C_10
REMARK    5  A    between atoms: C_13  and  C_14
REMARK    6  A    between atoms: C_17  and  C_18
REMARK    7  A    between atoms: C_18  and  O_20
REMARK    8  A    between atoms: O_20  and  C_21
REMARK                            x       y       z     vdW  Elec       q    Type
REMARK                         _______ _______ _______ _____ _____    ______ ____
ROOT
ATOM      1  C   UNL     1       2.729   5.280  19.891  0.00  0.00    +0.000 A 
ATOM      2  N   UNL     1       2.098   6.502  19.765  0.00  0.00    +0.000 NA
ATOM      3  C   UNL     1       2.554   7.154  18.735  0.00  0.00    +0.000 A 
ATOM      4  N   UNL     1       2.179   8.404  18.316  0.00  0.00    +0.000 N 
ATOM      5  C   UNL     1       1.439   9.219  19.155  0.00  0.00    +0.000 C 
ATOM      6  O   UNL     1       1.107   8.951  20.312  0.00  0.00    +0.000 OA
ATOM      7  S   UNL     1       3.749   6.361  17.824  0.00  0.00    +0.000 S 
ATOM      8  C   UNL     1       3.710   5.027  18.940  0.00  0.00    +0.000 A 
ATOM      9  H   UNL     1       2.523   8.724  17.422  0.00  0.00    +0.000 HD
ENDROOT
BRANCH   1  11
ATOM     10  C   UNL     1       1.045   3.579  20.577  0.00  0.00    +0.000 C 
ATOM     11  C   UNL     1       2.239   4.416  21.007  0.00  0.00    +0.000 C 
ENDBRANCH   1  11
BRANCH   8  12
ATOM     12  C   UNL     1       4.577   3.872  18.807  0.00  0.00    +0.000 C 
ATOM     13  O   UNL     1       5.612   3.674  19.448  0.00  0.00    +0.000 OA
BRANCH  12  14
ATOM     14  O   UNL     1       4.106   3.020  17.850  0.00  0.00    +0.000 OA
ATOM     15  C   UNL     1       3.488   1.820  18.331  0.00  0.00    +0.000 C 
ENDBRANCH  12  14
ENDBRANCH   8  12
BRANCH   5  16
ATOM     16  C   UNL     1       1.094  10.579  18.578  0.00  0.00    +0.000 C 
BRANCH  16  17
ATOM     17  C   UNL     1      -0.382  10.815  18.569  0.00  0.00    +0.000 A 
ATOM     18  C   UNL     1      -1.316  10.265  17.708  0.00  0.00    +0.000 A 
ATOM     19  S   UNL     1      -2.880  10.868  18.068  0.00  0.00    +0.000 S 
ATOM     20  C   UNL     1      -2.211  11.804  19.342  0.00  0.00    +0.000 A 
ATOM     21  C   UNL     1      -3.065  12.725  20.139  0.00  0.00    +0.000 C 
ATOM     22  N   UNL     1      -0.914  11.671  19.523  0.00  0.00    +0.000 NA
ENDBRANCH  16  17
ENDBRANCH   5  16
TORSDOF 5
ENDMDL
MODEL 2
REMARK VINA RESULT:      -6.5      2.913      7.696
REMARK  Name = 
REMARK  8 active torsions:
REMARK  status: ('A' for Active; 'I' for Inactive)
REMARK    1  A    between atoms: C_1  and  C_2
REMARK    2  A    between atoms: C_2  and  C_3
REMARK    3  A    between atoms: C_7  and  C_9
REMARK    4  A    between atoms: C_9  and  C_10
REMARK    5  A    between atoms: C_13  and  C_14
REMARK    6  A    between atoms: C_17  and  C_18
REMARK    7  A    between atoms: C_18  and  O_20
REMARK    8  A    between atoms: O_20  and  C_21
REMARK                            x       y       z     vdW  Elec       q    Type
REMARK                         _______ _______ _______ _____ _____    ______ ____
ROOT
ATOM      1  C   UNL     1      -0.155  10.407  19.975  0.00  0.00    +0.000 A 
ATOM      2  N   UNL     1       0.606   9.589  19.162  0.00  0.00    +0.000 NA
ATOM      3  C   UNL     1       1.324   8.769  19.873  0.00  0.00    +0.000 A 
ATOM      4  N   UNL     1       2.211   7.833  19.410  0.00  0.00    +0.000 N 
ATOM      5  C   UNL     1       2.629   7.873  18.092  0.00  0.00    +0.000 C 
ATOM      6  O   UNL     1       2.315   8.730  17.261  0.00  0.00    +0.000 OA
ATOM      7  S   UNL     1       1.137   8.888  21.558  0.00  0.00    +0.000 S 
ATOM      8  C   UNL     1       0.027  10.209  21.339  0.00  0.00    +0.000 A 
ATOM      9  H   UNL     1       2.594   7.177  20.076  0.00  0.00    +0.000 HD
ENDROOT
BRANCH   1  11
ATOM     10  C   UNL     1      -1.851  10.643  18.168  0.00  0.00    +0.000 C 
ATOM     11  C   UNL     1      -1.068  11.350  19.263  0.00  0.00    +0.000 C 
ENDBRANCH   1  11
BRANCH   8  12
ATOM     12  C   UNL     1      -0.580  10.912  22.453  0.00  0.00    +0.000 C 
ATOM     13  O   UNL     1      -1.319  10.409  23.301  0.00  0.00    +0.000 OA
BRANCH  12  14
ATOM     14  O   UNL     1      -0.240  12.235  22.434  0.00  0.00    +0.000 OA
ATOM     15  C   UNL     1      -1.242  13.144  22.905  0.00  0.00    +0.000 C 
ENDBRANCH  12  14
ENDBRANCH   8  12
BRANCH   5  16
ATOM     16  C   UNL     1       3.616   6.788  17.704  0.00  0.00    +0.000 C 
BRANCH  16  17
ATOM     17  C   UNL     1       3.338   5.508  18.422  0.00  0.00    +0.000 A 
ATOM     18  C   UNL     1       4.161   4.853  19.323  0.00  0.00    +0.000 A 
ATOM     19  S   UNL     1       3.421   3.400  19.853  0.00  0.00    +0.000 S 
ATOM     20  C   UNL     1       2.063   3.747  18.862  0.00  0.00    +0.000 A 
ATOM     21  C   UNL     1       0.932   2.787  18.760  0.00  0.00    +0.000 C 
ATOM     22  N   UNL     1       2.123   4.879  18.193  0.00  0.00    +0.000 NA
ENDBRANCH  16  17
ENDBRANCH   5  16
TORSDOF 5
ENDMDL
MODEL 3
REMARK VINA RESULT:      -6.4      2.594      7.714
REMARK  Name = 
REMARK  8 active torsions:
REMARK  status: ('A' for Active; 'I' for Inactive)
REMARK    1  A    between atoms: C_1  and  C_2
REMARK    2  A    between atoms: C_2  and  C_3
REMARK    3  A    between atoms: C_7  and  C_9
REMARK    4  A    between atoms: C_9  and  C_10
REMARK    5  A    between atoms: C_13  and  C_14
REMARK    6  A    between atoms: C_17  and  C_18
REMARK    7  A    between atoms: C_18  and  O_20
REMARK    8  A    between atoms: O_20  and  C_21
REMARK                            x       y       z     vdW  Elec       q    Type
REMARK                         _______ _______ _______ _____ _____    ______ ____
ROOT
ATOM      1  C   UNL     1       1.278   8.864  20.486  0.00  0.00    +0.000 A 
ATOM      2  N   UNL     1       1.832   7.639  20.170  0.00  0.00    +0.000 NA
ATOM      3  C   UNL     1       2.135   7.580  18.906  0.00  0.00    +0.000 A 
ATOM      4  N   UNL     1       2.680   6.517  18.235  0.00  0.00    +0.000 N 
ATOM      5  C   UNL     1       2.705   5.267  18.829  0.00  0.00    +0.000 C 
ATOM      6  O   UNL     1       2.222   4.981  19.927  0.00  0.00    +0.000 OA
ATOM      7  S   UNL     1       1.807   8.979  17.998  0.00  0.00    +0.000 S 
ATOM      8  C   UNL     1       1.134   9.736  19.413  0.00  0.00    +0.000 A 
ATOM      9  H   UNL     1       2.985   6.666  17.283  0.00  0.00    +0.000 HD
ENDROOT
BRANCH   1  11
ATOM     10  C   UNL     1      -0.526   8.809  22.201  0.00  0.00    +0.000 C 
ATOM     11  C   UNL     1       0.947   9.067  21.929  0.00  0.00    +0.000 C 
ENDBRANCH   1  11
BRANCH   8  12
ATOM     12  C   UNL     1       0.563  11.069  19.389  0.00  0.00    +0.000 C 
ATOM     13  O   UNL     1       1.056  12.069  19.915  0.00  0.00    +0.000 OA
BRANCH  12  14
ATOM     14  O   UNL     1      -0.623  11.076  18.714  0.00  0.00    +0.000 OA
ATOM     15  C   UNL     1      -1.233  12.360  18.535  0.00  0.00    +0.000 C 
ENDBRANCH  12  14
ENDBRANCH   8  12
BRANCH   5  16
ATOM     16  C   UNL     1       3.327   4.173  17.982  0.00  0.00    +0.000 C 
BRANCH  16  17
ATOM     17  C   UNL     1       4.763   4.457  17.683  0.00  0.00    +0.000 A 
ATOM     18  C   UNL     1       5.460   4.142  16.529  0.00  0.00    +0.000 A 
ATOM     19  S   UNL     1       7.095   4.638  16.670  0.00  0.00    +0.000 S 
ATOM     20  C   UNL     1       6.761   5.242  18.241  0.00  0.00    +0.000 A 
ATOM     21  C   UNL     1       7.845   5.822  19.079  0.00  0.00    +0.000 C 
ATOM     22  N   UNL     1       5.514   5.119  18.644  0.00  0.00    +0.000 NA
ENDBRANCH  16  17
ENDBRANCH   5  16
TORSDOF 5
ENDMDL
MODEL 4
REMARK VINA RESULT:      -6.3      1.245      1.753
REMARK  Name = 
REMARK  8 active torsions:
REMARK  status: ('A' for Active; 'I' for Inactive)
REMARK    1  A    between atoms: C_1  and  C_2
REMARK    2  A    between atoms: C_2  and  C_3
REMARK    3  A    between atoms: C_7  and  C_9
REMARK    4  A    between atoms: C_9  and  C_10
REMARK    5  A    between atoms: C_13  and  C_14
REMARK    6  A    between atoms: C_17  and  C_18
REMARK    7  A    between atoms: C_18  and  O_20
REMARK    8  A    between atoms: O_20  and  C_21
REMARK                            x       y       z     vdW  Elec       q    Type
REMARK                         _______ _______ _______ _____ _____    ______ ____
ROOT
ATOM      1  C   UNL     1       2.199   4.916  20.145  0.00  0.00    +0.000 A 
ATOM      2  N   UNL     1       1.618   6.147  20.380  0.00  0.00    +0.000 NA
ATOM      3  C   UNL     1       2.214   7.079  19.693  0.00  0.00    +0.000 A 
ATOM      4  N   UNL     1       1.924   8.418  19.692  0.00  0.00    +0.000 N 
ATOM      5  C   UNL     1       1.106   8.947  20.675  0.00  0.00    +0.000 C 
ATOM      6  O   UNL     1       0.626   8.324  21.626  0.00  0.00    +0.000 OA
ATOM      7  S   UNL     1       3.494   6.565  18.700  0.00  0.00    +0.000 S 
ATOM      8  C   UNL     1       3.285   4.938  19.277  0.00  0.00    +0.000 A 
ATOM      9  H   UNL     1       2.385   8.999  19.006  0.00  0.00    +0.000 HD
ENDROOT
BRANCH   1  11
ATOM     10  C   UNL     1       0.802   2.876  19.853  0.00  0.00    +0.000 C 
ATOM     11  C   UNL     1       1.554   3.759  20.836  0.00  0.00    +0.000 C 
ENDBRANCH   1  11
BRANCH   8  12
ATOM     12  C   UNL     1       4.134   3.842  18.850  0.00  0.00    +0.000 C 
ATOM     13  O   UNL     1       5.040   3.336  19.514  0.00  0.00    +0.000 OA
BRANCH  12  14
ATOM     14  O   UNL     1       3.810   3.443  17.584  0.00  0.00    +0.000 OA
ATOM     15  C   UNL     1       4.767   3.760  16.566  0.00  0.00    +0.000 C 
ENDBRANCH  12  14
ENDBRANCH   8  12
BRANCH   5  16
ATOM     16  C   UNL     1       0.867  10.441  20.568  0.00  0.00    +0.000 C 
BRANCH  16  17
ATOM     17  C   UNL     1      -0.338  10.749  19.740  0.00  0.00    +0.000 A 
ATOM     18  C   UNL     1      -1.345  11.656  20.026  0.00  0.00    +0.000 A 
ATOM     19  S   UNL     1      -2.533  11.629  18.791  0.00  0.00    +0.000 S 
ATOM     20  C   UNL     1      -1.627  10.429  17.963  0.00  0.00    +0.000 A 
ATOM     21  C   UNL     1      -2.138   9.822  16.706  0.00  0.00    +0.000 C 
ATOM     22  N   UNL     1      -0.495  10.077  18.537  0.00  0.00    +0.000 NA
ENDBRANCH  16  17
ENDBRANCH   5  16
TORSDOF 5
ENDMDL
MODEL 5
REMARK VINA RESULT:      -6.3      2.632      7.811
REMARK  Name = 
REMARK  8 active torsions:
REMARK  status: ('A' for Active; 'I' for Inactive)
REMARK    1  A    between atoms: C_1  and  C_2
REMARK    2  A    between atoms: C_2  and  C_3
REMARK    3  A    between atoms: C_7  and  C_9
REMARK    4  A    between atoms: C_9  and  C_10
REMARK    5  A    between atoms: C_13  and  C_14
REMARK    6  A    between atoms: C_17  and  C_18
REMARK    7  A    between atoms: C_18  and  O_20
REMARK    8  A    between atoms: O_20  and  C_21
REMARK                            x       y       z     vdW  Elec       q    Type
REMARK                         _______ _______ _______ _____ _____    ______ ____
ROOT
ATOM      1  C   UNL     1       1.437   8.724  20.314  0.00  0.00    +0.000 A 
ATOM      2  N   UNL     1       1.972   7.471  20.090  0.00  0.00    +0.000 NA
ATOM      3  C   UNL     1       2.294   7.322  18.838  0.00  0.00    +0.000 A 
ATOM      4  N   UNL     1       2.829   6.206  18.249  0.00  0.00    +0.000 N 
ATOM      5  C   UNL     1       2.819   4.998  18.925  0.00  0.00    +0.000 C 
ATOM      6  O   UNL     1       2.312   4.795  20.031  0.00  0.00    +0.000 OA
ATOM      7  S   UNL     1       2.009   8.662  17.834  0.00  0.00    +0.000 S 
ATOM      8  C   UNL     1       1.329   9.525  19.183  0.00  0.00    +0.000 A 
ATOM      9  H   UNL     1       3.153   6.286  17.296  0.00  0.00    +0.000 HD
ENDROOT
BRANCH   1  11
ATOM     10  C   UNL     1      -0.396   8.818  21.996  0.00  0.00    +0.000 C 
ATOM     11  C   UNL     1       1.087   9.029  21.734  0.00  0.00    +0.000 C 
ENDBRANCH   1  11
BRANCH   8  12
ATOM     12  C   UNL     1       0.785  10.864  19.060  0.00  0.00    +0.000 C 
ATOM     13  O   UNL     1       1.428  11.911  19.165  0.00  0.00    +0.000 OA
BRANCH  12  14
ATOM     14  O   UNL     1      -0.559  10.822  18.828  0.00  0.00    +0.000 OA
ATOM     15  C   UNL     1      -1.150  12.038  18.355  0.00  0.00    +0.000 C 
ENDBRANCH  12  14
ENDBRANCH   8  12
BRANCH   5  16
ATOM     16  C   UNL     1       3.433   3.838  18.165  0.00  0.00    +0.000 C 
BRANCH  16  17
ATOM     17  C   UNL     1       4.806   4.165  17.676  0.00  0.00    +0.000 A 
ATOM     18  C   UNL     1       5.938   4.399  18.438  0.00  0.00    +0.000 A 
ATOM     19  S   UNL     1       7.269   4.770  17.425  0.00  0.00    +0.000 S 
ATOM     20  C   UNL     1       6.257   4.586  16.051  0.00  0.00    +0.000 A 
ATOM     21  C   UNL     1       6.778   4.845  14.682  0.00  0.00    +0.000 C 
ATOM     22  N   UNL     1       5.012   4.242  16.305  0.00  0.00    +0.000 NA
ENDBRANCH  16  17
ENDBRANCH   5  16
TORSDOF 5
ENDMDL
MODEL 6
REMARK VINA RESULT:      -6.3      1.568      2.044
REMARK  Name = 
REMARK  8 active torsions:
REMARK  status: ('A' for Active; 'I' for Inactive)
REMARK    1  A    between atoms: C_1  and  C_2
REMARK    2  A    between atoms: C_2  and  C_3
REMARK    3  A    between atoms: C_7  and  C_9
REMARK    4  A    between atoms: C_9  and  C_10
REMARK    5  A    between atoms: C_13  and  C_14
REMARK    6  A    between atoms: C_17  and  C_18
REMARK    7  A    between atoms: C_18  and  O_20
REMARK    8  A    between atoms: O_20  and  C_21
REMARK                            x       y       z     vdW  Elec       q    Type
REMARK                         _______ _______ _______ _____ _____    ______ ____
ROOT
ATOM      1  C   UNL     1       2.337   5.417  20.232  0.00  0.00    +0.000 A 
ATOM      2  N   UNL     1       1.744   6.586  20.666  0.00  0.00    +0.000 NA
ATOM      3  C   UNL     1       1.933   7.547  19.808  0.00  0.00    +0.000 A 
ATOM      4  N   UNL     1       1.508   8.845  19.914  0.00  0.00    +0.000 N 
ATOM      5  C   UNL     1       1.054   9.324  21.131  0.00  0.00    +0.000 C 
ATOM      6  O   UNL     1       1.036   8.695  22.192  0.00  0.00    +0.000 OA
ATOM      7  S   UNL     1       2.806   7.132  18.411  0.00  0.00    +0.000 S 
ATOM      8  C   UNL     1       3.016   5.518  19.023  0.00  0.00    +0.000 A 
ATOM      9  H   UNL     1       1.612   9.443  19.106  0.00  0.00    +0.000 HD
ENDROOT
BRANCH   1  11
ATOM     10  C   UNL     1       1.070   3.297  20.549  0.00  0.00    +0.000 C 
ATOM     11  C   UNL     1       2.132   4.227  21.113  0.00  0.00    +0.000 C 
ENDBRANCH   1  11
BRANCH   8  12
ATOM     12  C   UNL     1       3.769   4.503  18.311  0.00  0.00    +0.000 C 
ATOM     13  O   UNL     1       3.462   4.016  17.221  0.00  0.00    +0.000 OA
BRANCH  12  14
ATOM     14  O   UNL     1       4.874   4.132  19.021  0.00  0.00    +0.000 OA
ATOM     15  C   UNL     1       5.932   5.096  19.079  0.00  0.00    +0.000 C 
ENDBRANCH  12  14
ENDBRANCH   8  12
BRANCH   5  16
ATOM     16  C   UNL     1       0.621  10.778  21.121  0.00  0.00    +0.000 C 
BRANCH  16  17
ATOM     17  C   UNL     1      -0.214  11.096  19.923  0.00  0.00    +0.000 A 
ATOM     18  C   UNL     1      -0.253  12.286  19.218  0.00  0.00    +0.000 A 
ATOM     19  S   UNL     1      -1.395  12.181  17.943  0.00  0.00    +0.000 S 
ATOM     20  C   UNL     1      -1.747  10.567  18.409  0.00  0.00    +0.000 A 
ATOM     21  C   UNL     1      -2.803   9.787  17.711  0.00  0.00    +0.000 C 
ATOM     22  N   UNL     1      -1.051  10.107  19.427  0.00  0.00    +0.000 NA
ENDBRANCH  16  17
ENDBRANCH   5  16
TORSDOF 5
ENDMDL
MODEL 7
REMARK VINA RESULT:      -6.3      2.936      7.731
REMARK  Name = 
REMARK  8 active torsions:
REMARK  status: ('A' for Active; 'I' for Inactive)
REMARK    1  A    between atoms: C_1  and  C_2
REMARK    2  A    between atoms: C_2  and  C_3
REMARK    3  A    between atoms: C_7  and  C_9
REMARK    4  A    between atoms: C_9  and  C_10
REMARK    5  A    between atoms: C_13  and  C_14
REMARK    6  A    between atoms: C_17  and  C_18
REMARK    7  A    between atoms: C_18  and  O_20
REMARK    8  A    between atoms: O_20  and  C_21
REMARK                            x       y       z     vdW  Elec       q    Type
REMARK                         _______ _______ _______ _____ _____    ______ ____
ROOT
ATOM      1  C   UNL     1       1.087   9.326  20.656  0.00  0.00    +0.000 A 
ATOM      2  N   UNL     1       1.757   8.211  20.192  0.00  0.00    +0.000 NA
ATOM      3  C   UNL     1       1.925   8.275  18.903  0.00  0.00    +0.000 A 
ATOM      4  N   UNL     1       2.527   7.342  18.100  0.00  0.00    +0.000 N 
ATOM      5  C   UNL     1       2.778   6.072  18.589  0.00  0.00    +0.000 C 
ATOM      6  O   UNL     1       2.459   5.652  19.704  0.00  0.00    +0.000 OA
ATOM      7  S   UNL     1       1.321   9.671  18.144  0.00  0.00    +0.000 S 
ATOM      8  C   UNL     1       0.715  10.236  19.674  0.00  0.00    +0.000 A 
ATOM      9  H   UNL     1       2.703   7.592  17.137  0.00  0.00    +0.000 HD
ENDROOT
BRANCH   1  11
ATOM     10  C   UNL     1      -0.516   8.974  22.528  0.00  0.00    +0.000 C 
ATOM     11  C   UNL     1       0.893   9.388  22.136  0.00  0.00    +0.000 C 
ENDBRANCH   1  11
BRANCH   8  12
ATOM     12  C   UNL     1      -0.023  11.477  19.811  0.00  0.00    +0.000 C 
ATOM     13  O   UNL     1      -1.216  11.573  20.105  0.00  0.00    +0.000 OA
BRANCH  12  14
ATOM     14  O   UNL     1       0.780  12.550  19.551  0.00  0.00    +0.000 OA
ATOM     15  C   UNL     1       1.485  13.090  20.676  0.00  0.00    +0.000 C 
ENDBRANCH  12  14
ENDBRANCH   8  12
BRANCH   5  16
ATOM     16  C   UNL     1       3.440   5.130  17.602  0.00  0.00    +0.000 C 
BRANCH  16  17
ATOM     17  C   UNL     1       4.927   5.269  17.619  0.00  0.00    +0.000 A 
ATOM     18  C   UNL     1       5.865   4.261  17.769  0.00  0.00    +0.000 A 
ATOM     19  S   UNL     1       7.448   4.919  17.761  0.00  0.00    +0.000 S 
ATOM     20  C   UNL     1       6.781   6.486  17.550  0.00  0.00    +0.000 A 
ATOM     21  C   UNL     1       7.657   7.688  17.517  0.00  0.00    +0.000 C 
ATOM     22  N   UNL     1       5.468   6.537  17.461  0.00  0.00    +0.000 NA
ENDBRANCH  16  17
ENDBRANCH   5  16
TORSDOF 5
ENDMDL
MODEL 8
REMARK VINA RESULT:      -6.3      2.743      7.851
REMARK  Name = 
REMARK  8 active torsions:
REMARK  status: ('A' for Active; 'I' for Inactive)
REMARK    1  A    between atoms: C_1  and  C_2
REMARK    2  A    between atoms: C_2  and  C_3
REMARK    3  A    between atoms: C_7  and  C_9
REMARK    4  A    between atoms: C_9  and  C_10
REMARK    5  A    between atoms: C_13  and  C_14
REMARK    6  A    between atoms: C_17  and  C_18
REMARK    7  A    between atoms: C_18  and  O_20
REMARK    8  A    between atoms: O_20  and  C_21
REMARK                            x       y       z     vdW  Elec       q    Type
REMARK                         _______ _______ _______ _____ _____    ______ ____
ROOT
ATOM      1  C   UNL     1       1.402   8.751  20.385  0.00  0.00    +0.000 A 
ATOM      2  N   UNL     1       1.948   7.510  20.116  0.00  0.00    +0.000 NA
ATOM      3  C   UNL     1       2.221   7.389  18.849  0.00  0.00    +0.000 A 
ATOM      4  N   UNL     1       2.749   6.293  18.219  0.00  0.00    +0.000 N 
ATOM      5  C   UNL     1       2.786   5.074  18.872  0.00  0.00    +0.000 C 
ATOM      6  O   UNL     1       2.328   4.843  19.994  0.00  0.00    +0.000 OA
ATOM      7  S   UNL     1       1.874   8.743  17.883  0.00  0.00    +0.000 S 
ATOM      8  C   UNL     1       1.235   9.569  19.274  0.00  0.00    +0.000 A 
ATOM      9  H   UNL     1       3.032   6.395  17.255  0.00  0.00    +0.000 HD
ENDROOT
BRANCH   1  11
ATOM     10  C   UNL     1      -0.374   8.850  22.126  0.00  0.00    +0.000 C 
ATOM     11  C   UNL     1       1.105   9.024  21.823  0.00  0.00    +0.000 C 
ENDBRANCH   1  11
BRANCH   8  12
ATOM     12  C   UNL     1       0.666  10.901  19.198  0.00  0.00    +0.000 C 
ATOM     13  O   UNL     1      -0.527  11.163  19.030  0.00  0.00    +0.000 OA
BRANCH  12  14
ATOM     14  O   UNL     1       1.638  11.852  19.321  0.00  0.00    +0.000 OA
ATOM     15  C   UNL     1       1.597  12.636  20.519  0.00  0.00    +0.000 C 
ENDBRANCH  12  14
ENDBRANCH   8  12
BRANCH   5  16
ATOM     16  C   UNL     1       3.387   3.938  18.066  0.00  0.00    +0.000 C 
BRANCH  16  17
ATOM     17  C   UNL     1       4.787   4.243  17.643  0.00  0.00    +0.000 A 
ATOM     18  C   UNL     1       5.869   4.526  18.458  0.00  0.00    +0.000 A 
ATOM     19  S   UNL     1       7.260   4.845  17.507  0.00  0.00    +0.000 S 
ATOM     20  C   UNL     1       6.333   4.576  16.088  0.00  0.00    +0.000 A 
ATOM     21  C   UNL     1       6.936   4.759  14.740  0.00  0.00    +0.000 C 
ATOM     22  N   UNL     1       5.076   4.242  16.285  0.00  0.00    +0.000 NA
ENDBRANCH  16  17
ENDBRANCH   5  16
TORSDOF 5
ENDMDL
MODEL 9
REMARK VINA RESULT:      -6.3      4.533      7.930
REMARK  Name = 
REMARK  8 active torsions:
REMARK  status: ('A' for Active; 'I' for Inactive)
REMARK    1  A    between atoms: C_1  and  C_2
REMARK    2  A    between atoms: C_2  and  C_3
REMARK    3  A    between atoms: C_7  and  C_9
REMARK    4  A    between atoms: C_9  and  C_10
REMARK    5  A    between atoms: C_13  and  C_14
REMARK    6  A    between atoms: C_17  and  C_18
REMARK    7  A    between atoms: C_18  and  O_20
REMARK    8  A    between atoms: O_20  and  C_21
REMARK                            x       y       z     vdW  Elec       q    Type
REMARK                         _______ _______ _______ _____ _____    ______ ____
ROOT
ATOM      1  C   UNL     1       2.498   5.000  18.589  0.00  0.00    +0.000 A 
ATOM      2  N   UNL     1       3.667   5.210  17.884  0.00  0.00    +0.000 NA
ATOM      3  C   UNL     1       4.177   4.080  17.487  0.00  0.00    +0.000 A 
ATOM      4  N   UNL     1       5.339   3.899  16.783  0.00  0.00    +0.000 N 
ATOM      5  C   UNL     1       6.242   4.941  16.666  0.00  0.00    +0.000 C 
ATOM      6  O   UNL     1       6.135   6.052  17.192  0.00  0.00    +0.000 OA
ATOM      7  S   UNL     1       3.300   2.684  17.899  0.00  0.00    +0.000 S 
ATOM      8  C   UNL     1       2.143   3.666  18.749  0.00  0.00    +0.000 A 
ATOM      9  H   UNL     1       5.537   2.974  16.430  0.00  0.00    +0.000 HD
ENDROOT
BRANCH   1  11
ATOM     10  C   UNL     1       2.350   7.475  18.361  0.00  0.00    +0.000 C 
ATOM     11  C   UNL     1       1.791   6.236  19.041  0.00  0.00    +0.000 C 
ENDBRANCH   1  11
BRANCH   8  12
ATOM     12  C   UNL     1       1.010   3.102  19.458  0.00  0.00    +0.000 C 
ATOM     13  O   UNL     1       0.148   2.371  18.966  0.00  0.00    +0.000 OA
BRANCH  12  14
ATOM     14  O   UNL     1       1.006   3.503  20.763  0.00  0.00    +0.000 OA
ATOM     15  C   UNL     1       1.890   2.793  21.638  0.00  0.00    +0.000 C 
ENDBRANCH  12  14
ENDBRANCH   8  12
BRANCH   5  16
ATOM     16  C   UNL     1       7.492   4.614  15.870  0.00  0.00    +0.000 C 
BRANCH  16  17
ATOM     17  C   UNL     1       7.205   4.522  14.407  0.00  0.00    +0.000 A 
ATOM     18  C   UNL     1       7.874   5.162  13.377  0.00  0.00    +0.000 A 
ATOM     19  S   UNL     1       7.153   4.772  11.871  0.00  0.00    +0.000 S 
ATOM     20  C   UNL     1       6.017   3.778  12.687  0.00  0.00    +0.000 A 
ATOM     21  C   UNL     1       4.928   3.095  11.939  0.00  0.00    +0.000 C 
ATOM     22  N   UNL     1       6.163   3.704  13.993  0.00  0.00    +0.000 NA
ENDBRANCH  16  17
ENDBRANCH   5  16
TORSDOF 5
ENDMDL
