MODEL 1
REMARK VINA RESULT:      -6.9      0.000      0.000
REMARK  Name = 
REMARK  3 active torsions:
REMARK  status: ('A' for Active; 'I' for Inactive)
REMARK    1  A    between atoms: C_1  and  N_2
REMARK    2  A    between atoms: C_7  and  C_8
REMARK    3  A    between atoms: C_16  and  N_17
REMARK                            x       y       z     vdW  Elec       q    Type
REMARK                         _______ _______ _______ _____ _____    ______ ____
ROOT
ATOM      1  C   UNL     1      10.092  12.827  20.717  0.00  0.00    +0.000 A 
ATOM      2  C   UNL     1      11.183  11.938  20.615  0.00  0.00    +0.000 A 
ATOM      3  N   UNL     1      12.007  11.744  19.566  0.00  0.00    +0.000 NA
ATOM      4  C   UNL     1      11.668  12.504  18.522  0.00  0.00    +0.000 A 
ATOM      5  N   UNL     1      12.333  12.451  17.327  0.00  0.00    +0.000 N 
ATOM      6  C   UNL     1      11.778  13.331  16.441  0.00  0.00    +0.000 A 
ATOM      7  C   UNL     1      10.749  13.971  17.107  0.00  0.00    +0.000 A 
ATOM      8  C   UNL     1      10.638  13.436  18.436  0.00  0.00    +0.000 A 
ATOM      9  C   UNL     1       9.796  13.664  19.580  0.00  0.00    +0.000 A 
ATOM     10  H   UNL     1      13.115  11.835  17.161  0.00  0.00    +0.000 HD
ENDROOT
BRANCH   9  11
ATOM     11  N   UNL     1       8.812  14.653  19.559  0.00  0.00    +0.000 N 
ATOM     12  C   UNL     1       7.404  14.382  19.257  0.00  0.00    +0.000 C 
ATOM     13  C   UNL     1       6.535  14.966  20.354  0.00  0.00    +0.000 C 
ATOM     14  C   UNL     1       6.840  16.455  20.547  0.00  0.00    +0.000 C 
ATOM     15  C   UNL     1       8.336  16.763  20.692  0.00  0.00    +0.000 C 
ATOM     16  C   UNL     1       9.156  16.078  19.591  0.00  0.00    +0.000 C 
ATOM     17  C   UNL     1       5.950  17.082  21.655  0.00  0.00    +0.000 C 
ATOM     18  N   UNL     1       5.109  17.612  20.581  0.00  0.00    +0.000 N 
ATOM     19  C   UNL     1       6.045  17.402  19.612  0.00  0.00    +0.000 C 
ATOM     20  O   UNL     1       6.130  17.855  18.504  0.00  0.00    +0.000 OA
ATOM     21  H   UNL     1       4.544  18.451  20.553  0.00  0.00    +0.000 HD
ENDBRANCH   9  11
BRANCH   1  28
ATOM     22  C   UNL     1       6.161  12.003  26.153  0.00  0.00    +0.000 C 
ATOM     23  N   UNL     1       7.111  12.875  25.509  0.00  0.00    +0.000 N 
ATOM     24  N   UNL     1       7.456  14.043  26.087  0.00  0.00    +0.000 NA
ATOM     25  C   UNL     1       8.301  14.587  25.206  0.00  0.00    +0.000 A 
ATOM     26  C   UNL     1       8.499  13.775  24.067  0.00  0.00    +0.000 A 
ATOM     27  C   UNL     1       9.224  13.868  22.864  0.00  0.00    +0.000 A 
ATOM     28  C   UNL     1       9.294  12.764  21.982  0.00  0.00    +0.000 A 
ATOM     29  C   UNL     1       8.615  11.594  22.358  0.00  0.00    +0.000 A 
ATOM     30  C   UNL     1       7.764  11.529  23.468  0.00  0.00    +0.000 A 
ATOM     31  C   UNL     1       7.755  12.631  24.321  0.00  0.00    +0.000 A 
ENDBRANCH   1  28
TORSDOF 2
ENDMDL
MODEL 2
REMARK VINA RESULT:      -6.9      9.888     11.442
REMARK  Name = 
REMARK  3 active torsions:
REMARK  status: ('A' for Active; 'I' for Inactive)
REMARK    1  A    between atoms: C_1  and  N_2
REMARK    2  A    between atoms: C_7  and  C_8
REMARK    3  A    between atoms: C_16  and  N_17
REMARK                            x       y       z     vdW  Elec       q    Type
REMARK                         _______ _______ _______ _____ _____    ______ ____
ROOT
ATOM      1  C   UNL     1       3.838   6.695  17.082  0.00  0.00    +0.000 A 
ATOM      2  C   UNL     1       4.458   7.471  16.080  0.00  0.00    +0.000 A 
ATOM      3  N   UNL     1       5.343   7.074  15.144  0.00  0.00    +0.000 NA
ATOM      4  C   UNL     1       5.642   5.778  15.262  0.00  0.00    +0.000 A 
ATOM      5  N   UNL     1       6.551   5.155  14.450  0.00  0.00    +0.000 N 
ATOM      6  C   UNL     1       6.660   3.837  14.790  0.00  0.00    +0.000 A 
ATOM      7  C   UNL     1       5.778   3.620  15.833  0.00  0.00    +0.000 A 
ATOM      8  C   UNL     1       5.134   4.858  16.175  0.00  0.00    +0.000 A 
ATOM      9  C   UNL     1       4.155   5.289  17.138  0.00  0.00    +0.000 A 
ATOM     10  H   UNL     1       7.051   5.636  13.716  0.00  0.00    +0.000 HD
ENDROOT
BRANCH   9  11
ATOM     11  N   UNL     1       3.559   4.376  18.009  0.00  0.00    +0.000 N 
ATOM     12  C   UNL     1       4.304   3.621  19.019  0.00  0.00    +0.000 C 
ATOM     13  C   UNL     1       3.640   3.800  20.370  0.00  0.00    +0.000 C 
ATOM     14  C   UNL     1       2.158   3.419  20.297  0.00  0.00    +0.000 C 
ATOM     15  C   UNL     1       1.410   4.078  19.131  0.00  0.00    +0.000 C 
ATOM     16  C   UNL     1       2.179   3.918  17.813  0.00  0.00    +0.000 C 
ATOM     17  C   UNL     1       1.458   3.577  21.674  0.00  0.00    +0.000 C 
ATOM     18  N   UNL     1       1.603   2.131  21.836  0.00  0.00    +0.000 N 
ATOM     19  C   UNL     1       1.869   1.912  20.516  0.00  0.00    +0.000 C 
ATOM     20  O   UNL     1       1.833   0.898  19.875  0.00  0.00    +0.000 OA
ATOM     21  H   UNL     1       1.024   1.472  22.341  0.00  0.00    +0.000 HD
ENDBRANCH   9  11
BRANCH   1  28
ATOM     22  C   UNL     1      -0.104   9.444  21.834  0.00  0.00    +0.000 C 
ATOM     23  N   UNL     1       0.405   9.596  20.493  0.00  0.00    +0.000 N 
ATOM     24  N   UNL     1       0.033  10.656  19.746  0.00  0.00    +0.000 NA
ATOM     25  C   UNL     1       0.653  10.445  18.581  0.00  0.00    +0.000 A 
ATOM     26  C   UNL     1       1.417   9.256  18.577  0.00  0.00    +0.000 A 
ATOM     27  C   UNL     1       2.208   8.558  17.645  0.00  0.00    +0.000 A 
ATOM     28  C   UNL     1       2.959   7.428  18.046  0.00  0.00    +0.000 A 
ATOM     29  C   UNL     1       2.874   7.042  19.394  0.00  0.00    +0.000 A 
ATOM     30  C   UNL     1       1.978   7.624  20.299  0.00  0.00    +0.000 A 
ATOM     31  C   UNL     1       1.286   8.753  19.864  0.00  0.00    +0.000 A 
ENDBRANCH   1  28
TORSDOF 2
ENDMDL
MODEL 3
REMARK VINA RESULT:      -6.8      7.977     11.814
REMARK  Name = 
REMARK  3 active torsions:
REMARK  status: ('A' for Active; 'I' for Inactive)
REMARK    1  A    between atoms: C_1  and  N_2
REMARK    2  A    between atoms: C_7  and  C_8
REMARK    3  A    between atoms: C_16  and  N_17
REMARK                            x       y       z     vdW  Elec       q    Type
REMARK                         _______ _______ _______ _____ _____    ______ ____
ROOT
ATOM      1  C   UNL     1      -1.828  15.393  21.600  0.00  0.00    +0.000 A 
ATOM      2  C   UNL     1      -2.573  16.206  22.479  0.00  0.00    +0.000 A 
ATOM      3  N   UNL     1      -3.361  15.825  23.505  0.00  0.00    +0.000 NA
ATOM      4  C   UNL     1      -3.414  14.496  23.622  0.00  0.00    +0.000 A 
ATOM      5  N   UNL     1      -4.184  13.871  24.565  0.00  0.00    +0.000 N 
ATOM      6  C   UNL     1      -4.048  12.516  24.459  0.00  0.00    +0.000 A 
ATOM      7  C   UNL     1      -3.149  12.284  23.434  0.00  0.00    +0.000 A 
ATOM      8  C   UNL     1      -2.751  13.539  22.860  0.00  0.00    +0.000 A 
ATOM      9  C   UNL     1      -1.877  13.965  21.799  0.00  0.00    +0.000 A 
ATOM     10  H   UNL     1      -4.759  14.374  25.225  0.00  0.00    +0.000 HD
ENDROOT
BRANCH   9  11
ATOM     11  N   UNL     1      -1.128  13.037  21.073  0.00  0.00    +0.000 N 
ATOM     12  C   UNL     1      -1.536  12.520  19.764  0.00  0.00    +0.000 C 
ATOM     13  C   UNL     1      -0.395  12.691  18.780  0.00  0.00    +0.000 C 
ATOM     14  C   UNL     1       0.883  12.042  19.320  0.00  0.00    +0.000 C 
ATOM     15  C   UNL     1       1.222  12.451  20.759  0.00  0.00    +0.000 C 
ATOM     16  C   UNL     1      -0.001  12.321  21.677  0.00  0.00    +0.000 C 
ATOM     17  C   UNL     1       2.064  12.189  18.321  0.00  0.00    +0.000 C 
ATOM     18  N   UNL     1       1.794  10.812  17.908  0.00  0.00    +0.000 N 
ATOM     19  C   UNL     1       1.025  10.532  18.998  0.00  0.00    +0.000 C 
ATOM     20  O   UNL     1       0.678   9.477  19.453  0.00  0.00    +0.000 OA
ATOM     21  H   UNL     1       2.425  10.105  17.551  0.00  0.00    +0.000 HD
ENDBRANCH   9  11
BRANCH   1  28
ATOM     22  C   UNL     1       0.810  18.613  16.276  0.00  0.00    +0.000 C 
ATOM     23  N   UNL     1       1.117  17.868  17.471  0.00  0.00    +0.000 N 
ATOM     24  N   UNL     1       2.400  17.616  17.799  0.00  0.00    +0.000 NA
ATOM     25  C   UNL     1       2.297  16.888  18.915  0.00  0.00    +0.000 A 
ATOM     26  C   UNL     1       0.955  16.671  19.303  0.00  0.00    +0.000 A 
ATOM     27  C   UNL     1       0.293  15.975  20.332  0.00  0.00    +0.000 A 
ATOM     28  C   UNL     1      -1.109  16.092  20.490  0.00  0.00    +0.000 A 
ATOM     29  C   UNL     1      -1.793  16.920  19.585  0.00  0.00    +0.000 A 
ATOM     30  C   UNL     1      -1.180  17.496  18.466  0.00  0.00    +0.000 A 
ATOM     31  C   UNL     1       0.205  17.378  18.373  0.00  0.00    +0.000 A 
ENDBRANCH   1  28
TORSDOF 2
ENDMDL
MODEL 4
REMARK VINA RESULT:      -6.6      7.817     10.921
REMARK  Name = 
REMARK  3 active torsions:
REMARK  status: ('A' for Active; 'I' for Inactive)
REMARK    1  A    between atoms: C_1  and  N_2
REMARK    2  A    between atoms: C_7  and  C_8
REMARK    3  A    between atoms: C_16  and  N_17
REMARK                            x       y       z     vdW  Elec       q    Type
REMARK                         _______ _______ _______ _____ _____    ______ ____
ROOT
ATOM      1  C   UNL     1      -1.686  12.353  22.539  0.00  0.00    +0.000 A 
ATOM      2  C   UNL     1      -2.714  11.873  23.378  0.00  0.00    +0.000 A 
ATOM      3  N   UNL     1      -3.528  12.578  24.189  0.00  0.00    +0.000 NA
ATOM      4  C   UNL     1      -3.246  13.883  24.162  0.00  0.00    +0.000 A 
ATOM      5  N   UNL     1      -3.910  14.796  24.935  0.00  0.00    +0.000 N 
ATOM      6  C   UNL     1      -3.420  16.050  24.708  0.00  0.00    +0.000 A 
ATOM      7  C   UNL     1      -2.434  15.925  23.746  0.00  0.00    +0.000 A 
ATOM      8  C   UNL     1      -2.281  14.538  23.401  0.00  0.00    +0.000 A 
ATOM      9  C   UNL     1      -1.452  13.775  22.506  0.00  0.00    +0.000 A 
ATOM     10  H   UNL     1      -4.649  14.540  25.573  0.00  0.00    +0.000 HD
ENDROOT
BRANCH   9  11
ATOM     11  N   UNL     1      -0.537  14.409  21.664  0.00  0.00    +0.000 N 
ATOM     12  C   UNL     1       0.867  14.627  22.019  0.00  0.00    +0.000 C 
ATOM     13  C   UNL     1       1.753  14.097  20.909  0.00  0.00    +0.000 C 
ATOM     14  C   UNL     1       1.362  14.718  19.565  0.00  0.00    +0.000 C 
ATOM     15  C   UNL     1      -0.140  14.644  19.266  0.00  0.00    +0.000 C 
ATOM     16  C   UNL     1      -0.972  15.127  20.462  0.00  0.00    +0.000 C 
ATOM     17  C   UNL     1       2.267  14.204  18.412  0.00  0.00    +0.000 C 
ATOM     18  N   UNL     1       3.013  15.456  18.532  0.00  0.00    +0.000 N 
ATOM     19  C   UNL     1       2.042  16.078  19.260  0.00  0.00    +0.000 C 
ATOM     20  O   UNL     1       1.869  17.243  19.488  0.00  0.00    +0.000 OA
ATOM     21  H   UNL     1       3.519  15.981  17.830  0.00  0.00    +0.000 HD
ENDBRANCH   9  11
BRANCH   1  28
ATOM     22  C   UNL     1       2.184   7.495  19.873  0.00  0.00    +0.000 C 
ATOM     23  N   UNL     1       1.370   8.647  19.577  0.00  0.00    +0.000 N 
ATOM     24  N   UNL     1       1.227   9.063  18.302  0.00  0.00    +0.000 NA
ATOM     25  C   UNL     1       0.459  10.151  18.416  0.00  0.00    +0.000 A 
ATOM     26  C   UNL     1       0.111  10.435  19.756  0.00  0.00    +0.000 A 
ATOM     27  C   UNL     1      -0.617  11.436  20.427  0.00  0.00    +0.000 A 
ATOM     28  C   UNL     1      -0.881  11.321  21.813  0.00  0.00    +0.000 A 
ATOM     29  C   UNL     1      -0.387  10.184  22.472  0.00  0.00    +0.000 A 
ATOM     30  C   UNL     1       0.467   9.259  21.861  0.00  0.00    +0.000 A 
ATOM     31  C   UNL     1       0.670   9.398  20.489  0.00  0.00    +0.000 A 
ENDBRANCH   1  28
TORSDOF 2
ENDMDL
MODEL 5
REMARK VINA RESULT:      -6.6      9.114     11.030
REMARK  Name = 
REMARK  3 active torsions:
REMARK  status: ('A' for Active; 'I' for Inactive)
REMARK    1  A    between atoms: C_1  and  N_2
REMARK    2  A    between atoms: C_7  and  C_8
REMARK    3  A    between atoms: C_16  and  N_17
REMARK                            x       y       z     vdW  Elec       q    Type
REMARK                         _______ _______ _______ _____ _____    ______ ____
ROOT
ATOM      1  C   UNL     1       1.852   5.429  19.848  0.00  0.00    +0.000 A 
ATOM      2  C   UNL     1       0.880   4.534  20.340  0.00  0.00    +0.000 A 
ATOM      3  N   UNL     1       0.838   3.192  20.213  0.00  0.00    +0.000 NA
ATOM      4  C   UNL     1       1.864   2.731  19.493  0.00  0.00    +0.000 A 
ATOM      5  N   UNL     1       2.014   1.405  19.192  0.00  0.00    +0.000 N 
ATOM      6  C   UNL     1       3.144   1.216  18.449  0.00  0.00    +0.000 A 
ATOM      7  C   UNL     1       3.734   2.458  18.298  0.00  0.00    +0.000 A 
ATOM      8  C   UNL     1       2.915   3.452  18.933  0.00  0.00    +0.000 A 
ATOM      9  C   UNL     1       2.968   4.878  19.119  0.00  0.00    +0.000 A 
ATOM     10  H   UNL     1       1.360   0.697  19.492  0.00  0.00    +0.000 HD
ENDROOT
BRANCH   9  11
ATOM     11  N   UNL     1       4.052   5.621  18.649  0.00  0.00    +0.000 N 
ATOM     12  C   UNL     1       5.368   5.624  19.294  0.00  0.00    +0.000 C 
ATOM     13  C   UNL     1       6.433   5.313  18.261  0.00  0.00    +0.000 C 
ATOM     14  C   UNL     1       6.334   6.280  17.077  0.00  0.00    +0.000 C 
ATOM     15  C   UNL     1       4.916   6.410  16.505  0.00  0.00    +0.000 C 
ATOM     16  C   UNL     1       3.886   6.649  17.617  0.00  0.00    +0.000 C 
ATOM     17  C   UNL     1       7.427   5.993  16.011  0.00  0.00    +0.000 C 
ATOM     18  N   UNL     1       8.179   7.108  16.584  0.00  0.00    +0.000 N 
ATOM     19  C   UNL     1       7.109   7.609  17.263  0.00  0.00    +0.000 C 
ATOM     20  O   UNL     1       6.937   8.692  17.752  0.00  0.00    +0.000 OA
ATOM     21  H   UNL     1       8.832   7.746  16.145  0.00  0.00    +0.000 HD
ENDBRANCH   9  11
BRANCH   1  28
ATOM     22  C   UNL     1       1.016  12.124  20.256  0.00  0.00    +0.000 C 
ATOM     23  N   UNL     1       0.872  10.874  20.960  0.00  0.00    +0.000 N 
ATOM     24  N   UNL     1       0.404  10.863  22.225  0.00  0.00    +0.000 NA
ATOM     25  C   UNL     1       0.446   9.569  22.558  0.00  0.00    +0.000 A 
ATOM     26  C   UNL     1       0.939   8.753  21.514  0.00  0.00    +0.000 A 
ATOM     27  C   UNL     1       1.217   7.384  21.338  0.00  0.00    +0.000 A 
ATOM     28  C   UNL     1       1.591   6.887  20.067  0.00  0.00    +0.000 A 
ATOM     29  C   UNL     1       1.671   7.809  19.012  0.00  0.00    +0.000 A 
ATOM     30  C   UNL     1       1.550   9.192  19.196  0.00  0.00    +0.000 A 
ATOM     31  C   UNL     1       1.151   9.627  20.458  0.00  0.00    +0.000 A 
ENDBRANCH   1  28
TORSDOF 2
ENDMDL
MODEL 6
REMARK VINA RESULT:      -6.5      9.087     11.078
REMARK  Name = 
REMARK  3 active torsions:
REMARK  status: ('A' for Active; 'I' for Inactive)
REMARK    1  A    between atoms: C_1  and  N_2
REMARK    2  A    between atoms: C_7  and  C_8
REMARK    3  A    between atoms: C_16  and  N_17
REMARK                            x       y       z     vdW  Elec       q    Type
REMARK                         _______ _______ _______ _____ _____    ______ ____
ROOT
ATOM      1  C   UNL     1       1.865   5.487  19.866  0.00  0.00    +0.000 A 
ATOM      2  C   UNL     1       0.888   4.606  20.377  0.00  0.00    +0.000 A 
ATOM      3  N   UNL     1       0.841   3.263  20.279  0.00  0.00    +0.000 NA
ATOM      4  C   UNL     1       1.866   2.782  19.572  0.00  0.00    +0.000 A 
ATOM      5  N   UNL     1       2.011   1.448  19.300  0.00  0.00    +0.000 N 
ATOM      6  C   UNL     1       3.141   1.238  18.564  0.00  0.00    +0.000 A 
ATOM      7  C   UNL     1       3.737   2.474  18.386  0.00  0.00    +0.000 A 
ATOM      8  C   UNL     1       2.921   3.486  18.998  0.00  0.00    +0.000 A 
ATOM      9  C   UNL     1       2.980   4.915  19.152  0.00  0.00    +0.000 A 
ATOM     10  H   UNL     1       1.353   0.750  19.614  0.00  0.00    +0.000 HD
ENDROOT
BRANCH   9  11
ATOM     11  N   UNL     1       4.068   5.643  18.667  0.00  0.00    +0.000 N 
ATOM     12  C   UNL     1       5.388   5.637  19.302  0.00  0.00    +0.000 C 
ATOM     13  C   UNL     1       6.442   5.307  18.264  0.00  0.00    +0.000 C 
ATOM     14  C   UNL     1       6.344   6.265  17.073  0.00  0.00    +0.000 C 
ATOM     15  C   UNL     1       4.924   6.405  16.511  0.00  0.00    +0.000 C 
ATOM     16  C   UNL     1       3.905   6.664  17.628  0.00  0.00    +0.000 C 
ATOM     17  C   UNL     1       7.426   5.957  16.001  0.00  0.00    +0.000 C 
ATOM     18  N   UNL     1       8.194   7.069  16.559  0.00  0.00    +0.000 N 
ATOM     19  C   UNL     1       7.134   7.587  17.242  0.00  0.00    +0.000 C 
ATOM     20  O   UNL     1       6.977   8.676  17.723  0.00  0.00    +0.000 OA
ATOM     21  H   UNL     1       8.850   7.697  16.110  0.00  0.00    +0.000 HD
ENDBRANCH   9  11
BRANCH   1  28
ATOM     22  C   UNL     1       0.418  11.930  21.307  0.00  0.00    +0.000 C 
ATOM     23  N   UNL     1       0.880  11.028  20.281  0.00  0.00    +0.000 N 
ATOM     24  N   UNL     1       1.175  11.498  19.053  0.00  0.00    +0.000 NA
ATOM     25  C   UNL     1       1.520  10.398  18.376  0.00  0.00    +0.000 A 
ATOM     26  C   UNL     1       1.444   9.226  19.164  0.00  0.00    +0.000 A 
ATOM     27  C   UNL     1       1.650   7.849  18.961  0.00  0.00    +0.000 A 
ATOM     28  C   UNL     1       1.609   6.950  20.053  0.00  0.00    +0.000 A 
ATOM     29  C   UNL     1       1.355   7.490  21.324  0.00  0.00    +0.000 A 
ATOM     30  C   UNL     1       0.996   8.828  21.526  0.00  0.00    +0.000 A 
ATOM     31  C   UNL     1       1.082   9.678  20.425  0.00  0.00    +0.000 A 
ENDBRANCH   1  28
TORSDOF 2
ENDMDL
MODEL 7
REMARK VINA RESULT:      -6.5      7.703     10.823
REMARK  Name = 
REMARK  3 active torsions:
REMARK  status: ('A' for Active; 'I' for Inactive)
REMARK    1  A    between atoms: C_1  and  N_2
REMARK    2  A    between atoms: C_7  and  C_8
REMARK    3  A    between atoms: C_16  and  N_17
REMARK                            x       y       z     vdW  Elec       q    Type
REMARK                         _______ _______ _______ _____ _____    ______ ____
ROOT
ATOM      1  C   UNL     1      -1.587  12.510  22.299  0.00  0.00    +0.000 A 
ATOM      2  C   UNL     1      -2.612  11.912  23.063  0.00  0.00    +0.000 A 
ATOM      3  N   UNL     1      -3.424  12.492  23.969  0.00  0.00    +0.000 NA
ATOM      4  C   UNL     1      -3.143  13.787  24.130  0.00  0.00    +0.000 A 
ATOM      5  N   UNL     1      -3.807  14.577  25.030  0.00  0.00    +0.000 N 
ATOM      6  C   UNL     1      -3.319  15.852  24.984  0.00  0.00    +0.000 A 
ATOM      7  C   UNL     1      -2.335  15.869  24.012  0.00  0.00    +0.000 A 
ATOM      8  C   UNL     1      -2.182  14.547  23.470  0.00  0.00    +0.000 A 
ATOM      9  C   UNL     1      -1.355  13.923  22.471  0.00  0.00    +0.000 A 
ATOM     10  H   UNL     1      -4.544  14.230  25.626  0.00  0.00    +0.000 HD
ENDROOT
BRANCH   9  11
ATOM     11  N   UNL     1      -0.443  14.673  21.727  0.00  0.00    +0.000 N 
ATOM     12  C   UNL     1       0.960  14.848  22.111  0.00  0.00    +0.000 C 
ATOM     13  C   UNL     1       1.849  14.483  20.938  0.00  0.00    +0.000 C 
ATOM     14  C   UNL     1       1.455  15.285  19.694  0.00  0.00    +0.000 C 
ATOM     15  C   UNL     1      -0.047  15.244  19.386  0.00  0.00    +0.000 C 
ATOM     16  C   UNL     1      -0.881  15.551  20.637  0.00  0.00    +0.000 C 
ATOM     17  C   UNL     1       2.363  14.942  18.481  0.00  0.00    +0.000 C 
ATOM     18  N   UNL     1       3.102  16.169  18.776  0.00  0.00    +0.000 N 
ATOM     19  C   UNL     1       2.127  16.677  19.584  0.00  0.00    +0.000 C 
ATOM     20  O   UNL     1       1.948  17.798  19.973  0.00  0.00    +0.000 OA
ATOM     21  H   UNL     1       3.605  16.790  18.155  0.00  0.00    +0.000 HD
ENDBRANCH   9  11
BRANCH   1  28
ATOM     22  C   UNL     1       1.760   8.699  17.833  0.00  0.00    +0.000 C 
ATOM     23  N   UNL     1       1.431   8.863  19.227  0.00  0.00    +0.000 N 
ATOM     24  N   UNL     1       1.886   7.979  20.137  0.00  0.00    +0.000 NA
ATOM     25  C   UNL     1       1.358   8.417  21.284  0.00  0.00    +0.000 A 
ATOM     26  C   UNL     1       0.567   9.576  21.113  0.00  0.00    +0.000 A 
ATOM     27  C   UNL     1      -0.218  10.402  21.939  0.00  0.00    +0.000 A 
ATOM     28  C   UNL     1      -0.782  11.596  21.429  0.00  0.00    +0.000 A 
ATOM     29  C   UNL     1      -0.526  11.907  20.084  0.00  0.00    +0.000 A 
ATOM     30  C   UNL     1       0.119  11.028  19.207  0.00  0.00    +0.000 A 
ATOM     31  C   UNL     1       0.683   9.881  19.765  0.00  0.00    +0.000 A 
ENDBRANCH   1  28
TORSDOF 2
ENDMDL
MODEL 8
REMARK VINA RESULT:      -6.4      9.294     11.695
REMARK  Name = 
REMARK  3 active torsions:
REMARK  status: ('A' for Active; 'I' for Inactive)
REMARK    1  A    between atoms: C_1  and  N_2
REMARK    2  A    between atoms: C_7  and  C_8
REMARK    3  A    between atoms: C_16  and  N_17
REMARK                            x       y       z     vdW  Elec       q    Type
REMARK                         _______ _______ _______ _____ _____    ______ ____
ROOT
ATOM      1  C   UNL     1      -3.559  12.312  19.469  0.00  0.00    +0.000 A 
ATOM      2  C   UNL     1      -4.877  11.882  19.206  0.00  0.00    +0.000 A 
ATOM      3  N   UNL     1      -5.348  11.256  18.109  0.00  0.00    +0.000 NA
ATOM      4  C   UNL     1      -4.396  11.082  17.190  0.00  0.00    +0.000 A 
ATOM      5  N   UNL     1      -4.644  10.506  15.973  0.00  0.00    +0.000 N 
ATOM      6  C   UNL     1      -3.496  10.454  15.235  0.00  0.00    +0.000 A 
ATOM      7  C   UNL     1      -2.492  10.992  16.020  0.00  0.00    +0.000 A 
ATOM      8  C   UNL     1      -3.050  11.431  17.269  0.00  0.00    +0.000 A 
ATOM      9  C   UNL     1      -2.554  12.057  18.466  0.00  0.00    +0.000 A 
ATOM     10  H   UNL     1      -5.559  10.182  15.696  0.00  0.00    +0.000 HD
ENDROOT
BRANCH   9  11
ATOM     11  N   UNL     1      -1.196  12.340  18.615  0.00  0.00    +0.000 N 
ATOM     12  C   UNL     1      -0.587  13.608  18.208  0.00  0.00    +0.000 C 
ATOM     13  C   UNL     1       0.205  14.179  19.367  0.00  0.00    +0.000 C 
ATOM     14  C   UNL     1       1.221  13.155  19.882  0.00  0.00    +0.000 C 
ATOM     15  C   UNL     1       0.618  11.770  20.149  0.00  0.00    +0.000 C 
ATOM     16  C   UNL     1      -0.229  11.293  18.961  0.00  0.00    +0.000 C 
ATOM     17  C   UNL     1       2.057  13.723  21.062  0.00  0.00    +0.000 C 
ATOM     18  N   UNL     1       3.123  13.975  20.092  0.00  0.00    +0.000 N 
ATOM     19  C   UNL     1       2.581  13.166  19.139  0.00  0.00    +0.000 C 
ATOM     20  O   UNL     1       3.074  12.686  18.155  0.00  0.00    +0.000 OA
ATOM     21  H   UNL     1       4.127  13.989  20.219  0.00  0.00    +0.000 HD
ENDBRANCH   9  11
BRANCH   1  28
ATOM     22  C   UNL     1      -2.491  15.107  25.529  0.00  0.00    +0.000 C 
ATOM     23  N   UNL     1      -2.930  15.356  24.179  0.00  0.00    +0.000 N 
ATOM     24  N   UNL     1      -3.335  16.591  23.818  0.00  0.00    +0.000 NA
ATOM     25  C   UNL     1      -3.698  16.435  22.541  0.00  0.00    +0.000 A 
ATOM     26  C   UNL     1      -3.530  15.109  22.083  0.00  0.00    +0.000 A 
ATOM     27  C   UNL     1      -3.776  14.406  20.889  0.00  0.00    +0.000 A 
ATOM     28  C   UNL     1      -3.343  13.066  20.744  0.00  0.00    +0.000 A 
ATOM     29  C   UNL     1      -2.672  12.484  21.831  0.00  0.00    +0.000 A 
ATOM     30  C   UNL     1      -2.553  13.109  23.078  0.00  0.00    +0.000 A 
ATOM     31  C   UNL     1      -2.966  14.438  23.159  0.00  0.00    +0.000 A 
ENDBRANCH   1  28
TORSDOF 2
ENDMDL
MODEL 9
REMARK VINA RESULT:      -6.3      9.413     12.119
REMARK  Name = 
REMARK  3 active torsions:
REMARK  status: ('A' for Active; 'I' for Inactive)
REMARK    1  A    between atoms: C_1  and  N_2
REMARK    2  A    between atoms: C_7  and  C_8
REMARK    3  A    between atoms: C_16  and  N_17
REMARK                            x       y       z     vdW  Elec       q    Type
REMARK                         _______ _______ _______ _____ _____    ______ ____
ROOT
ATOM      1  C   UNL     1      -2.445  12.357  19.068  0.00  0.00    +0.000 A 
ATOM      2  C   UNL     1      -2.610  11.690  17.836  0.00  0.00    +0.000 A 
ATOM      3  N   UNL     1      -3.743  11.193  17.300  0.00  0.00    +0.000 NA
ATOM      4  C   UNL     1      -4.791  11.365  18.109  0.00  0.00    +0.000 A 
ATOM      5  N   UNL     1      -6.042  10.904  17.800  0.00  0.00    +0.000 N 
ATOM      6  C   UNL     1      -6.918  11.217  18.800  0.00  0.00    +0.000 A 
ATOM      7  C   UNL     1      -6.202  11.915  19.755  0.00  0.00    +0.000 A 
ATOM      8  C   UNL     1      -4.826  11.996  19.349  0.00  0.00    +0.000 A 
ATOM      9  C   UNL     1      -3.616  12.563  19.884  0.00  0.00    +0.000 A 
ATOM     10  H   UNL     1      -6.248  10.405  16.947  0.00  0.00    +0.000 HD
ENDROOT
BRANCH   9  11
ATOM     11  N   UNL     1      -3.631  13.281  21.082  0.00  0.00    +0.000 N 
ATOM     12  C   UNL     1      -3.943  12.676  22.379  0.00  0.00    +0.000 C 
ATOM     13  C   UNL     1      -2.844  13.016  23.367  0.00  0.00    +0.000 C 
ATOM     14  C   UNL     1      -2.633  14.532  23.437  0.00  0.00    +0.000 C 
ATOM     15  C   UNL     1      -2.477  15.196  22.063  0.00  0.00    +0.000 C 
ATOM     16  C   UNL     1      -3.581  14.746  21.098  0.00  0.00    +0.000 C 
ATOM     17  C   UNL     1      -1.522  14.908  24.456  0.00  0.00    +0.000 C 
ATOM     18  N   UNL     1      -2.594  15.228  25.399  0.00  0.00    +0.000 N 
ATOM     19  C   UNL     1      -3.561  15.266  24.438  0.00  0.00    +0.000 C 
ATOM     20  O   UNL     1      -4.663  15.740  24.465  0.00  0.00    +0.000 OA
ATOM     21  H   UNL     1      -2.616  15.904  26.153  0.00  0.00    +0.000 HD
ENDBRANCH   9  11
BRANCH   1  28
ATOM     22  C   UNL     1       3.695  13.900  21.433  0.00  0.00    +0.000 C 
ATOM     23  N   UNL     1       2.843  13.917  20.270  0.00  0.00    +0.000 N 
ATOM     24  N   UNL     1       3.299  14.423  19.106  0.00  0.00    +0.000 NA
ATOM     25  C   UNL     1       2.248  14.313  18.288  0.00  0.00    +0.000 A 
ATOM     26  C   UNL     1       1.121  13.742  18.922  0.00  0.00    +0.000 A 
ATOM     27  C   UNL     1      -0.206  13.440  18.561  0.00  0.00    +0.000 A 
ATOM     28  C   UNL     1      -1.045  12.723  19.447  0.00  0.00    +0.000 A 
ATOM     29  C   UNL     1      -0.499  12.339  20.683  0.00  0.00    +0.000 A 
ATOM     30  C   UNL     1       0.761  12.760  21.124  0.00  0.00    +0.000 A 
ATOM     31  C   UNL     1       1.559  13.435  20.203  0.00  0.00    +0.000 A 
ENDBRANCH   1  28
TORSDOF 2
ENDMDL
