MODEL 1
REMARK VINA RESULT:      -5.9      0.000      0.000
REMARK  Name = 
REMARK  3 active torsions:
REMARK  status: ('A' for Active; 'I' for Inactive)
REMARK    1  A    between atoms: C_1  and  O_2
REMARK    2  A    between atoms: O_2  and  C_3
REMARK    3  A    between atoms: C_10  and  S_11
REMARK                            x       y       z     vdW  Elec       q    Type
REMARK                         _______ _______ _______ _____ _____    ______ ____
ROOT
ATOM      1  C   UNL     1       2.605   4.413  20.270  0.00  0.00    +0.000 A 
ATOM      2  C   UNL     1       1.859   5.501  20.742  0.00  0.00    +0.000 A 
ATOM      3  C   UNL     1       1.823   6.701  20.034  0.00  0.00    +0.000 A 
ATOM      4  C   UNL     1       2.546   6.831  18.849  0.00  0.00    +0.000 A 
ATOM      5 BR   UNL     1       2.493   8.502  17.953  0.00  0.00    +0.000 Br
ATOM      6  C   UNL     1       3.291   5.754  18.356  0.00  0.00    +0.000 A 
ATOM      7  O   UNL     1       3.981   5.948  17.183  0.00  0.00    +0.000 OA
ATOM      8  C   UNL     1       4.743   4.920  16.672  0.00  0.00    +0.000 A 
ATOM      9  C   UNL     1       4.832   3.710  17.230  0.00  0.00    +0.000 A 
ATOM     10  C   UNL     1       4.088   3.422  18.467  0.00  0.00    +0.000 A 
ATOM     11  O   UNL     1       4.127   2.288  18.924  0.00  0.00    +0.000 OA
ATOM     12  C   UNL     1       3.316   4.543  19.060  0.00  0.00    +0.000 A 
ENDROOT
BRANCH   1  14
ATOM     13  C   UNL     1       1.546   2.705  21.550  0.00  0.00    +0.000 C 
ATOM     14  O   UNL     1       2.726   3.245  20.971  0.00  0.00    +0.000 OA
ENDBRANCH   1  14
BRANCH   8  15
ATOM     15  S   UNL     1       5.615   5.257  15.211  0.00  0.00    +0.000 S 
ATOM     16  H   UNL     1       5.940   6.528  15.489  0.00  0.00    +0.000 HD
ENDBRANCH   8  15
TORSDOF 2
ENDMDL
MODEL 2
REMARK VINA RESULT:      -5.7      3.030      4.752
REMARK  Name = 
REMARK  3 active torsions:
REMARK  status: ('A' for Active; 'I' for Inactive)
REMARK    1  A    between atoms: C_1  and  O_2
REMARK    2  A    between atoms: O_2  and  C_3
REMARK    3  A    between atoms: C_10  and  S_11
REMARK                            x       y       z     vdW  Elec       q    Type
REMARK                         _______ _______ _______ _____ _____    ______ ____
ROOT
ATOM      1  C   UNL     1       3.948   4.115  17.419  0.00  0.00    +0.000 A 
ATOM      2  C   UNL     1       3.783   2.769  17.769  0.00  0.00    +0.000 A 
ATOM      3  C   UNL     1       3.024   2.410  18.881  0.00  0.00    +0.000 A 
ATOM      4  C   UNL     1       2.432   3.398  19.667  0.00  0.00    +0.000 A 
ATOM      5 BR   UNL     1       1.447   2.850  21.194  0.00  0.00    +0.000 Br
ATOM      6  C   UNL     1       2.579   4.749  19.331  0.00  0.00    +0.000 A 
ATOM      7  O   UNL     1       1.970   5.672  20.147  0.00  0.00    +0.000 OA
ATOM      8  C   UNL     1       2.104   7.014  19.863  0.00  0.00    +0.000 A 
ATOM      9  C   UNL     1       2.770   7.489  18.808  0.00  0.00    +0.000 A 
ATOM     10  C   UNL     1       3.414   6.553  17.872  0.00  0.00    +0.000 A 
ATOM     11  O   UNL     1       3.960   7.005  16.875  0.00  0.00    +0.000 OA
ATOM     12  C   UNL     1       3.329   5.109  18.204  0.00  0.00    +0.000 A 
ENDROOT
BRANCH   1  14
ATOM     13  C   UNL     1       6.139   4.257  16.491  0.00  0.00    +0.000 C 
ATOM     14  O   UNL     1       4.745   4.513  16.381  0.00  0.00    +0.000 OA
ENDBRANCH   1  14
BRANCH   8  15
ATOM     15  S   UNL     1       1.340   8.116  20.963  0.00  0.00    +0.000 S 
ATOM     16  H   UNL     1       0.247   8.368  20.229  0.00  0.00    +0.000 HD
ENDBRANCH   8  15
TORSDOF 2
ENDMDL
MODEL 3
REMARK VINA RESULT:      -5.6      2.489      3.497
REMARK  Name = 
REMARK  3 active torsions:
REMARK  status: ('A' for Active; 'I' for Inactive)
REMARK    1  A    between atoms: C_1  and  O_2
REMARK    2  A    between atoms: O_2  and  C_3
REMARK    3  A    between atoms: C_10  and  S_11
REMARK                            x       y       z     vdW  Elec       q    Type
REMARK                         _______ _______ _______ _____ _____    ______ ____
ROOT
ATOM      1  C   UNL     1       2.587   6.019  19.399  0.00  0.00    +0.000 A 
ATOM      2  C   UNL     1       2.036   5.031  20.226  0.00  0.00    +0.000 A 
ATOM      3  C   UNL     1       2.330   3.684  20.018  0.00  0.00    +0.000 A 
ATOM      4  C   UNL     1       3.168   3.309  18.969  0.00  0.00    +0.000 A 
ATOM      5 BR   UNL     1       3.496   1.458  18.710  0.00  0.00    +0.000 Br
ATOM      6  C   UNL     1       3.735   4.281  18.137  0.00  0.00    +0.000 A 
ATOM      7  O   UNL     1       4.553   3.844  17.122  0.00  0.00    +0.000 OA
ATOM      8  C   UNL     1       5.117   4.767  16.268  0.00  0.00    +0.000 A 
ATOM      9  C   UNL     1       4.949   6.086  16.380  0.00  0.00    +0.000 A 
ATOM     10  C   UNL     1       4.115   6.624  17.468  0.00  0.00    +0.000 A 
ATOM     11  O   UNL     1       4.030   7.838  17.595  0.00  0.00    +0.000 OA
ATOM     12  C   UNL     1       3.452   5.636  18.355  0.00  0.00    +0.000 A 
ENDROOT
BRANCH   1  14
ATOM     13  C   UNL     1       1.600   7.746  20.711  0.00  0.00    +0.000 C 
ATOM     14  O   UNL     1       2.267   7.343  19.522  0.00  0.00    +0.000 OA
ENDBRANCH   1  14
BRANCH   8  15
ATOM     15  S   UNL     1       6.103   4.133  14.990  0.00  0.00    +0.000 S 
ATOM     16  H   UNL     1       6.093   2.850  15.379  0.00  0.00    +0.000 HD
ENDBRANCH   8  15
TORSDOF 2
ENDMDL
MODEL 4
REMARK VINA RESULT:      -5.5      2.870      4.381
REMARK  Name = 
REMARK  3 active torsions:
REMARK  status: ('A' for Active; 'I' for Inactive)
REMARK    1  A    between atoms: C_1  and  O_2
REMARK    2  A    between atoms: O_2  and  C_3
REMARK    3  A    between atoms: C_10  and  S_11
REMARK                            x       y       z     vdW  Elec       q    Type
REMARK                         _______ _______ _______ _____ _____    ______ ____
ROOT
ATOM      1  C   UNL     1       5.177   4.421  17.812  0.00  0.00    +0.000 A 
ATOM      2  C   UNL     1       4.840   3.306  18.590  0.00  0.00    +0.000 A 
ATOM      3  C   UNL     1       3.704   3.319  19.398  0.00  0.00    +0.000 A 
ATOM      4  C   UNL     1       2.899   4.456  19.448  0.00  0.00    +0.000 A 
ATOM      5 BR   UNL     1       1.390   4.429  20.599  0.00  0.00    +0.000 Br
ATOM      6  C   UNL     1       3.214   5.578  18.673  0.00  0.00    +0.000 A 
ATOM      7  O   UNL     1       2.379   6.666  18.768  0.00  0.00    +0.000 OA
ATOM      8  C   UNL     1       2.663   7.798  18.036  0.00  0.00    +0.000 A 
ATOM      9  C   UNL     1       3.695   7.904  17.197  0.00  0.00    +0.000 A 
ATOM     10  C   UNL     1       4.607   6.762  17.018  0.00  0.00    +0.000 A 
ATOM     11  O   UNL     1       5.505   6.853  16.193  0.00  0.00    +0.000 OA
ATOM     12  C   UNL     1       4.347   5.560  17.849  0.00  0.00    +0.000 A 
ENDROOT
BRANCH   1  14
ATOM     13  C   UNL     1       7.552   4.603  17.763  0.00  0.00    +0.000 C 
ATOM     14  O   UNL     1       6.321   4.478  17.065  0.00  0.00    +0.000 OA
ENDBRANCH   1  14
BRANCH   8  15
ATOM     15  S   UNL     1       1.584   9.141  18.242  0.00  0.00    +0.000 S 
ATOM     16  H   UNL     1       0.911   8.665  19.300  0.00  0.00    +0.000 HD
ENDBRANCH   8  15
TORSDOF 2
ENDMDL
MODEL 5
REMARK VINA RESULT:      -5.4      2.966      4.603
REMARK  Name = 
REMARK  3 active torsions:
REMARK  status: ('A' for Active; 'I' for Inactive)
REMARK    1  A    between atoms: C_1  and  O_2
REMARK    2  A    between atoms: O_2  and  C_3
REMARK    3  A    between atoms: C_10  and  S_11
REMARK                            x       y       z     vdW  Elec       q    Type
REMARK                         _______ _______ _______ _____ _____    ______ ____
ROOT
ATOM      1  C   UNL     1       4.808   4.181  17.093  0.00  0.00    +0.000 A 
ATOM      2  C   UNL     1       4.381   2.933  17.566  0.00  0.00    +0.000 A 
ATOM      3  C   UNL     1       3.256   2.828  18.382  0.00  0.00    +0.000 A 
ATOM      4  C   UNL     1       2.552   3.975  18.747  0.00  0.00    +0.000 A 
ATOM      5 BR   UNL     1       1.055   3.773  19.895  0.00  0.00    +0.000 Br
ATOM      6  C   UNL     1       2.958   5.230  18.279  0.00  0.00    +0.000 A 
ATOM      7  O   UNL     1       2.220   6.320  18.676  0.00  0.00    +0.000 OA
ATOM      8  C   UNL     1       2.596   7.577  18.254  0.00  0.00    +0.000 A 
ATOM      9  C   UNL     1       3.627   7.812  17.441  0.00  0.00    +0.000 A 
ATOM     10  C   UNL     1       4.437   6.686  16.947  0.00  0.00    +0.000 A 
ATOM     11  O   UNL     1       5.334   6.915  16.148  0.00  0.00    +0.000 OA
ATOM     12  C   UNL     1       4.080   5.334  17.447  0.00  0.00    +0.000 A 
ENDROOT
BRANCH   1  14
ATOM     13  C   UNL     1       5.978   3.732  15.066  0.00  0.00    +0.000 C 
ATOM     14  O   UNL     1       5.948   4.336  16.353  0.00  0.00    +0.000 OA
ENDBRANCH   1  14
BRANCH   8  15
ATOM     15  S   UNL     1       1.638   8.903  18.831  0.00  0.00    +0.000 S 
ATOM     16  H   UNL     1       0.461   8.262  18.878  0.00  0.00    +0.000 HD
ENDBRANCH   8  15
TORSDOF 2
ENDMDL
MODEL 6
REMARK VINA RESULT:      -5.4      2.555      4.099
REMARK  Name = 
REMARK  3 active torsions:
REMARK  status: ('A' for Active; 'I' for Inactive)
REMARK    1  A    between atoms: C_1  and  O_2
REMARK    2  A    between atoms: O_2  and  C_3
REMARK    3  A    between atoms: C_10  and  S_11
REMARK                            x       y       z     vdW  Elec       q    Type
REMARK                         _______ _______ _______ _____ _____    ______ ____
ROOT
ATOM      1  C   UNL     1       3.921   5.855  17.367  0.00  0.00    +0.000 A 
ATOM      2  C   UNL     1       3.670   7.233  17.390  0.00  0.00    +0.000 A 
ATOM      3  C   UNL     1       2.924   7.804  18.420  0.00  0.00    +0.000 A 
ATOM      4  C   UNL     1       2.407   6.998  19.433  0.00  0.00    +0.000 A 
ATOM      5 BR   UNL     1       1.363   7.826  20.784  0.00  0.00    +0.000 Br
ATOM      6  C   UNL     1       2.653   5.620  19.433  0.00  0.00    +0.000 A 
ATOM      7  O   UNL     1       2.115   4.883  20.462  0.00  0.00    +0.000 OA
ATOM      8  C   UNL     1       2.317   3.520  20.490  0.00  0.00    +0.000 A 
ATOM      9  C   UNL     1       3.043   2.855  19.588  0.00  0.00    +0.000 A 
ATOM     10  C   UNL     1       3.679   3.589  18.482  0.00  0.00    +0.000 A 
ATOM     11  O   UNL     1       4.397   2.973  17.706  0.00  0.00    +0.000 OA
ATOM     12  C   UNL     1       3.415   5.048  18.406  0.00  0.00    +0.000 A 
ENDROOT
BRANCH   1  14
ATOM     13  C   UNL     1       5.787   5.851  15.886  0.00  0.00    +0.000 C 
ATOM     14  O   UNL     1       4.583   5.245  16.338  0.00  0.00    +0.000 OA
ENDBRANCH   1  14
BRANCH   8  15
ATOM     15  S   UNL     1       1.573   2.657  21.797  0.00  0.00    +0.000 S 
ATOM     16  H   UNL     1       2.534   1.739  21.972  0.00  0.00    +0.000 HD
ENDBRANCH   8  15
TORSDOF 2
ENDMDL
MODEL 7
REMARK VINA RESULT:      -5.3      2.582      4.292
REMARK  Name = 
REMARK  3 active torsions:
REMARK  status: ('A' for Active; 'I' for Inactive)
REMARK    1  A    between atoms: C_1  and  O_2
REMARK    2  A    between atoms: O_2  and  C_3
REMARK    3  A    between atoms: C_10  and  S_11
REMARK                            x       y       z     vdW  Elec       q    Type
REMARK                         _______ _______ _______ _____ _____    ______ ____
ROOT
ATOM      1  C   UNL     1       5.019   4.632  16.367  0.00  0.00    +0.000 A 
ATOM      2  C   UNL     1       5.221   5.981  16.049  0.00  0.00    +0.000 A 
ATOM      3  C   UNL     1       4.468   6.979  16.666  0.00  0.00    +0.000 A 
ATOM      4  C   UNL     1       3.491   6.635  17.600  0.00  0.00    +0.000 A 
ATOM      5 BR   UNL     1       2.468   8.034  18.373  0.00  0.00    +0.000 Br
ATOM      6  C   UNL     1       3.279   5.294  17.937  0.00  0.00    +0.000 A 
ATOM      7  O   UNL     1       2.302   5.024  18.866  0.00  0.00    +0.000 OA
ATOM      8  C   UNL     1       2.047   3.714  19.213  0.00  0.00    +0.000 A 
ATOM      9  C   UNL     1       2.722   2.670  18.727  0.00  0.00    +0.000 A 
ATOM     10  C   UNL     1       3.807   2.891  17.758  0.00  0.00    +0.000 A 
ATOM     11  O   UNL     1       4.459   1.928  17.378  0.00  0.00    +0.000 OA
ATOM     12  C   UNL     1       4.047   4.292  17.329  0.00  0.00    +0.000 A 
ENDROOT
BRANCH   1  14
ATOM     13  C   UNL     1       6.248   3.906  14.459  0.00  0.00    +0.000 C 
ATOM     14  O   UNL     1       5.684   3.619  15.732  0.00  0.00    +0.000 OA
ENDBRANCH   1  14
BRANCH   8  15
ATOM     15  S   UNL     1       0.772   3.454  20.360  0.00  0.00    +0.000 S 
ATOM     16  H   UNL     1       0.650   4.723  20.778  0.00  0.00    +0.000 HD
ENDBRANCH   8  15
TORSDOF 2
ENDMDL
MODEL 8
REMARK VINA RESULT:      -5.3      2.239      3.615
REMARK  Name = 
REMARK  3 active torsions:
REMARK  status: ('A' for Active; 'I' for Inactive)
REMARK    1  A    between atoms: C_1  and  O_2
REMARK    2  A    between atoms: O_2  and  C_3
REMARK    3  A    between atoms: C_10  and  S_11
REMARK                            x       y       z     vdW  Elec       q    Type
REMARK                         _______ _______ _______ _____ _____    ______ ____
ROOT
ATOM      1  C   UNL     1       3.445   3.944  19.213  0.00  0.00    +0.000 A 
ATOM      2  C   UNL     1       4.339   3.308  18.341  0.00  0.00    +0.000 A 
ATOM      3  C   UNL     1       4.889   3.996  17.261  0.00  0.00    +0.000 A 
ATOM      4  C   UNL     1       4.539   5.326  17.032  0.00  0.00    +0.000 A 
ATOM      5 BR   UNL     1       5.286   6.196  15.520  0.00  0.00    +0.000 Br
ATOM      6  C   UNL     1       3.654   5.981  17.896  0.00  0.00    +0.000 A 
ATOM      7  O   UNL     1       3.351   7.292  17.613  0.00  0.00    +0.000 OA
ATOM      8  C   UNL     1       2.469   7.969  18.428  0.00  0.00    +0.000 A 
ATOM      9  C   UNL     1       1.903   7.441  19.515  0.00  0.00    +0.000 A 
ATOM     10  C   UNL     1       2.214   6.053  19.896  0.00  0.00    +0.000 A 
ATOM     11  O   UNL     1       1.740   5.610  20.934  0.00  0.00    +0.000 OA
ATOM     12  C   UNL     1       3.113   5.295  18.990  0.00  0.00    +0.000 A 
ENDROOT
BRANCH   1  14
ATOM     13  C   UNL     1       1.841   2.320  19.898  0.00  0.00    +0.000 C 
ATOM     14  O   UNL     1       2.827   3.285  20.240  0.00  0.00    +0.000 OA
ENDBRANCH   1  14
BRANCH   8  15
ATOM     15  S   UNL     1       2.108   9.606  17.982  0.00  0.00    +0.000 S 
ATOM     16  H   UNL     1       0.873   9.661  18.500  0.00  0.00    +0.000 HD
ENDBRANCH   8  15
TORSDOF 2
ENDMDL
MODEL 9
REMARK VINA RESULT:      -5.2      3.380      5.283
REMARK  Name = 
REMARK  3 active torsions:
REMARK  status: ('A' for Active; 'I' for Inactive)
REMARK    1  A    between atoms: C_1  and  O_2
REMARK    2  A    between atoms: O_2  and  C_3
REMARK    3  A    between atoms: C_10  and  S_11
REMARK                            x       y       z     vdW  Elec       q    Type
REMARK                         _______ _______ _______ _____ _____    ______ ____
ROOT
ATOM      1  C   UNL     1       3.827   5.989  17.598  0.00  0.00    +0.000 A 
ATOM      2  C   UNL     1       4.150   4.652  17.857  0.00  0.00    +0.000 A 
ATOM      3  C   UNL     1       3.653   4.006  18.988  0.00  0.00    +0.000 A 
ATOM      4  C   UNL     1       2.836   4.697  19.881  0.00  0.00    +0.000 A 
ATOM      5 BR   UNL     1       2.226   3.778  21.425  0.00  0.00    +0.000 Br
ATOM      6  C   UNL     1       2.495   6.032  19.636  0.00  0.00    +0.000 A 
ATOM      7  O   UNL     1       1.686   6.656  20.556  0.00  0.00    +0.000 OA
ATOM      8  C   UNL     1       1.341   7.976  20.363  0.00  0.00    +0.000 A 
ATOM      9  C   UNL     1       1.716   8.698  19.304  0.00  0.00    +0.000 A 
ATOM     10  C   UNL     1       2.552   8.079  18.262  0.00  0.00    +0.000 A 
ATOM     11  O   UNL     1       2.827   8.735  17.266  0.00  0.00    +0.000 OA
ATOM     12  C   UNL     1       2.982   6.677  18.492  0.00  0.00    +0.000 A 
ENDROOT
BRANCH   1  14
ATOM     13  C   UNL     1       5.360   6.036  15.774  0.00  0.00    +0.000 C 
ATOM     14  O   UNL     1       4.352   6.681  16.541  0.00  0.00    +0.000 OA
ENDBRANCH   1  14
BRANCH   8  15
ATOM     15  S   UNL     1       0.351   8.702  21.588  0.00  0.00    +0.000 S 
ATOM     16  H   UNL     1       1.305   8.854  22.518  0.00  0.00    +0.000 HD
ENDBRANCH   8  15
TORSDOF 2
ENDMDL
