MODEL 1
REMARK VINA RESULT:      -6.0      0.000      0.000
REMARK  Name = 
REMARK  26 active torsions:
REMARK  status: ('A' for Active; 'I' for Inactive)
REMARK    1  A    between atoms: C_1  and  C_2
REMARK    2  A    between atoms: C_2  and  C_3
REMARK    3  A    between atoms: C_3  and  C_4
REMARK    4  A    between atoms: C_4  and  C_5
REMARK    5  A    between atoms: C_5  and  C_6
REMARK    6  A    between atoms: C_6  and  C_7
REMARK    7  A    between atoms: C_7  and  C_8
REMARK    8  A    between atoms: C_8  and  C_9
REMARK    9  A    between atoms: C_9  and  C_10
REMARK   10  A    between atoms: C_10  and  C_11
REMARK   11  A    between atoms: C_11  and  O_12
REMARK   12  A    between atoms: O_12  and  C_13
REMARK   13  A    between atoms: C_13  and  C_15
REMARK   14  A    between atoms: C_15  and  C_16
REMARK   15  A    between atoms: C_16  and  C_17
REMARK   16  A    between atoms: C_17  and  C_18
REMARK   17  A    between atoms: N_20  and  CA_21
REMARK   18  A    between atoms: CA_21  and  C_22
REMARK   19  A    between atoms: CA_21  and  C_30
REMARK   20  A    between atoms: C_22  and  C_23
REMARK   21  A    between atoms: C_23  and  C_24
REMARK   22  A    between atoms: C_24  and  CA_25
REMARK   23  A    between atoms: CA_25  and  N_26
REMARK   24  A    between atoms: CA_25  and  C_27
REMARK   25  A    between atoms: C_27  and  OXT_29
REMARK   26  A    between atoms: C_30  and  OXT_32
REMARK                            x       y       z     vdW  Elec       q    Type
REMARK                         _______ _______ _______ _____ _____    ______ ____
ROOT
ATOM      1  C   UNL     1       7.766   7.726  17.947  0.00  0.00    +0.000 C 
ATOM      2  O   UNL     1       8.368   7.116  18.808  0.00  0.00    +0.000 OA
ATOM      3  N   UNL     1       6.711   7.222  17.191  0.00  0.00    +0.000 N 
ATOM      4  H   UNL     1       6.379   7.815  16.459  0.00  0.00    +0.000 HD
ENDROOT
BRANCH   3   5
ATOM      5  CA  UNL     1       6.207   5.819  17.297  0.00  0.00    +0.000 C 
BRANCH   5   6
ATOM      6  C   UNL     1       7.233   4.730  16.807  0.00  0.00    +0.000 C 
ATOM      7  O   UNL     1       7.455   4.454  15.647  0.00  0.00    +0.000 OA
BRANCH   6   8
ATOM      8  OXT UNL     1       7.886   4.071  17.762  0.00  0.00    +0.000 OA
ATOM      9  HXT UNL     1       8.500   4.569  18.314  0.00  0.00    +0.000 HD
ENDBRANCH   6   8
ENDBRANCH   5   6
BRANCH   5  10
ATOM     10  C   UNL     1       4.872   5.663  16.532  0.00  0.00    +0.000 C 
BRANCH  10  11
ATOM     11  C   UNL     1       3.805   4.972  17.372  0.00  0.00    +0.000 C 
BRANCH  11  12
ATOM     12  C   UNL     1       3.713   3.477  17.196  0.00  0.00    +0.000 C 
BRANCH  12  13
ATOM     13  CA  UNL     1       3.076   2.817  18.434  0.00  0.00    +0.000 C 
BRANCH  13  14
ATOM     14  N   UNL     1       1.900   1.950  18.101  0.00  0.00    +0.000 NA
ATOM     15  H1  UNL     1       1.062   2.540  18.082  0.00  0.00    +0.000 HD
ATOM     16  H2  UNL     1       1.735   1.319  18.892  0.00  0.00    +0.000 HD
ENDBRANCH  13  14
BRANCH  13  17
ATOM     17  C   UNL     1       4.151   1.968  19.114  0.00  0.00    +0.000 C 
ATOM     18  O   UNL     1       4.820   2.336  20.087  0.00  0.00    +0.000 OA
BRANCH  17  19
ATOM     19  OXT UNL     1       4.325   0.746  18.542  0.00  0.00    +0.000 OA
ATOM     20  HXT UNL     1       3.589   0.632  17.892  0.00  0.00    +0.000 HD
ENDBRANCH  17  19
ENDBRANCH  13  17
ENDBRANCH  12  13
ENDBRANCH  11  12
ENDBRANCH  10  11
ENDBRANCH   5  10
ENDBRANCH   3   5
BRANCH   1  21
ATOM     21  C   UNL     1       8.051   9.193  17.721  0.00  0.00    +0.000 C 
BRANCH  21  22
ATOM     22  C   UNL     1       9.045   9.698  18.770  0.00  0.00    +0.000 C 
BRANCH  22  23
ATOM     23  C   UNL     1       9.593  11.086  18.478  0.00  0.00    +0.000 C 
BRANCH  23  24
ATOM     24  C   UNL     1       9.776  11.903  19.744  0.00  0.00    +0.000 C 
ATOM     25  O   UNL     1       9.925  11.440  20.866  0.00  0.00    +0.000 OA
BRANCH  24  26
ATOM     26  O   UNL     1       9.778  13.237  19.444  0.00  0.00    +0.000 OA
BRANCH  26  27
ATOM     27  C   UNL     1       9.006  13.564  18.281  0.00  0.00    +0.000 C 
BRANCH  27  28
ATOM     28  C   UNL     1       9.096  15.042  17.926  0.00  0.00    +0.000 C 
BRANCH  28  29
ATOM     29  C   UNL     1       7.720  15.707  17.998  0.00  0.00    +0.000 C 
BRANCH  29  30
ATOM     30  C   UNL     1       6.906  15.154  19.159  0.00  0.00    +0.000 C 
BRANCH  30  31
ATOM     31  C   UNL     1       5.451  15.591  19.051  0.00  0.00    +0.000 C 
BRANCH  31  32
ATOM     32  C   UNL     1       4.666  14.601  18.206  0.00  0.00    +0.000 C 
BRANCH  32  33
ATOM     33  C   UNL     1       3.264  14.431  18.766  0.00  0.00    +0.000 C 
BRANCH  33  34
ATOM     34  C   UNL     1       2.523  13.349  17.999  0.00  0.00    +0.000 C 
BRANCH  34  35
ATOM     35  C   UNL     1       1.761  12.454  18.962  0.00  0.00    +0.000 C 
BRANCH  35  37
ATOM     36  C   UNL     1       0.554  12.903  21.095  0.00  0.00    +0.000 C 
ATOM     37  C   UNL     1       1.891  12.976  20.386  0.00  0.00    +0.000 C 
ENDBRANCH  35  37
ENDBRANCH  34  35
ENDBRANCH  33  34
ENDBRANCH  32  33
ENDBRANCH  31  32
ENDBRANCH  30  31
ENDBRANCH  29  30
ENDBRANCH  28  29
ENDBRANCH  27  28
ENDBRANCH  26  27
ENDBRANCH  24  26
ENDBRANCH  23  24
ENDBRANCH  22  23
ENDBRANCH  21  22
ENDBRANCH   1  21
TORSDOF 25
ENDMDL
MODEL 2
REMARK VINA RESULT:      -6.0      2.764      8.638
REMARK  Name = 
REMARK  26 active torsions:
REMARK  status: ('A' for Active; 'I' for Inactive)
REMARK    1  A    between atoms: C_1  and  C_2
REMARK    2  A    between atoms: C_2  and  C_3
REMARK    3  A    between atoms: C_3  and  C_4
REMARK    4  A    between atoms: C_4  and  C_5
REMARK    5  A    between atoms: C_5  and  C_6
REMARK    6  A    between atoms: C_6  and  C_7
REMARK    7  A    between atoms: C_7  and  C_8
REMARK    8  A    between atoms: C_8  and  C_9
REMARK    9  A    between atoms: C_9  and  C_10
REMARK   10  A    between atoms: C_10  and  C_11
REMARK   11  A    between atoms: C_11  and  O_12
REMARK   12  A    between atoms: O_12  and  C_13
REMARK   13  A    between atoms: C_13  and  C_15
REMARK   14  A    between atoms: C_15  and  C_16
REMARK   15  A    between atoms: C_16  and  C_17
REMARK   16  A    between atoms: C_17  and  C_18
REMARK   17  A    between atoms: N_20  and  CA_21
REMARK   18  A    between atoms: CA_21  and  C_22
REMARK   19  A    between atoms: CA_21  and  C_30
REMARK   20  A    between atoms: C_22  and  C_23
REMARK   21  A    between atoms: C_23  and  C_24
REMARK   22  A    between atoms: C_24  and  CA_25
REMARK   23  A    between atoms: CA_25  and  N_26
REMARK   24  A    between atoms: CA_25  and  C_27
REMARK   25  A    between atoms: C_27  and  OXT_29
REMARK   26  A    between atoms: C_30  and  OXT_32
REMARK                            x       y       z     vdW  Elec       q    Type
REMARK                         _______ _______ _______ _____ _____    ______ ____
ROOT
ATOM      1  C   UNL     1       7.412   4.859  16.214  0.00  0.00    +0.000 C 
ATOM      2  O   UNL     1       8.159   4.052  16.729  0.00  0.00    +0.000 OA
ATOM      3  N   UNL     1       7.206   6.163  16.658  0.00  0.00    +0.000 N 
ATOM      4  H   UNL     1       6.492   6.675  16.183  0.00  0.00    +0.000 HD
ENDROOT
BRANCH   3   5
ATOM      5  CA  UNL     1       7.842   6.736  17.883  0.00  0.00    +0.000 C 
BRANCH   5   6
ATOM      6  C   UNL     1       7.476   5.975  19.211  0.00  0.00    +0.000 C 
ATOM      7  O   UNL     1       6.351   5.686  19.562  0.00  0.00    +0.000 OA
BRANCH   6   8
ATOM      8  OXT UNL     1       8.500   5.643  19.997  0.00  0.00    +0.000 OA
ATOM      9  HXT UNL     1       9.317   5.356  19.574  0.00  0.00    +0.000 HD
ENDBRANCH   6   8
ENDBRANCH   5   6
BRANCH   5  10
ATOM     10  C   UNL     1       7.494   8.235  18.025  0.00  0.00    +0.000 C 
BRANCH  10  11
ATOM     11  C   UNL     1       8.698   9.068  18.448  0.00  0.00    +0.000 C 
BRANCH  11  12
ATOM     12  C   UNL     1       8.696  10.497  17.966  0.00  0.00    +0.000 C 
BRANCH  12  13
ATOM     13  CA  UNL     1       9.227  11.445  19.058  0.00  0.00    +0.000 C 
BRANCH  13  14
ATOM     14  N   UNL     1       9.576  10.739  20.333  0.00  0.00    +0.000 NA
ATOM     15  H1  UNL     1       9.427  11.390  21.111  0.00  0.00    +0.000 HD
ATOM     16  H2  UNL     1      10.587  10.578  20.343  0.00  0.00    +0.000 HD
ENDBRANCH  13  14
BRANCH  13  17
ATOM     17  C   UNL     1      10.476  12.136  18.508  0.00  0.00    +0.000 C 
ATOM     18  O   UNL     1      10.884  13.241  18.882  0.00  0.00    +0.000 OA
BRANCH  17  19
ATOM     19  OXT UNL     1      11.113  11.423  17.540  0.00  0.00    +0.000 OA
ATOM     20  HXT UNL     1      11.842  10.928  17.990  0.00  0.00    +0.000 HD
ENDBRANCH  17  19
ENDBRANCH  13  17
ENDBRANCH  12  13
ENDBRANCH  11  12
ENDBRANCH  10  11
ENDBRANCH   5  10
ENDBRANCH   3   5
BRANCH   1  21
ATOM     21  C   UNL     1       6.720   4.527  14.912  0.00  0.00    +0.000 C 
BRANCH  21  22
ATOM     22  C   UNL     1       5.205   4.480  15.125  0.00  0.00    +0.000 C 
BRANCH  22  23
ATOM     23  C   UNL     1       4.764   3.469  16.172  0.00  0.00    +0.000 C 
BRANCH  23  24
ATOM     24  C   UNL     1       3.975   4.118  17.294  0.00  0.00    +0.000 C 
ATOM     25  O   UNL     1       3.842   5.324  17.456  0.00  0.00    +0.000 OA
BRANCH  24  26
ATOM     26  O   UNL     1       3.408   3.159  18.085  0.00  0.00    +0.000 OA
BRANCH  26  27
ATOM     27  C   UNL     1       4.302   2.631  19.075  0.00  0.00    +0.000 C 
BRANCH  27  28
ATOM     28  C   UNL     1       3.666   2.578  20.457  0.00  0.00    +0.000 C 
BRANCH  28  29
ATOM     29  C   UNL     1       2.245   3.147  20.427  0.00  0.00    +0.000 C 
BRANCH  29  30
ATOM     30  C   UNL     1       2.208   4.553  21.009  0.00  0.00    +0.000 C 
BRANCH  30  31
ATOM     31  C   UNL     1       1.453   5.497  20.082  0.00  0.00    +0.000 C 
BRANCH  31  32
ATOM     32  C   UNL     1       1.431   6.900  20.665  0.00  0.00    +0.000 C 
BRANCH  32  33
ATOM     33  C   UNL     1       2.333   7.817  19.856  0.00  0.00    +0.000 C 
BRANCH  33  34
ATOM     34  C   UNL     1       1.934   7.780  18.390  0.00  0.00    +0.000 C 
BRANCH  34  35
ATOM     35  C   UNL     1       1.840   9.191  17.837  0.00  0.00    +0.000 C 
BRANCH  35  37
ATOM     36  C   UNL     1       0.925  11.293  18.813  0.00  0.00    +0.000 C 
ATOM     37  C   UNL     1       0.592   9.885  18.362  0.00  0.00    +0.000 C 
ENDBRANCH  35  37
ENDBRANCH  34  35
ENDBRANCH  33  34
ENDBRANCH  32  33
ENDBRANCH  31  32
ENDBRANCH  30  31
ENDBRANCH  29  30
ENDBRANCH  28  29
ENDBRANCH  27  28
ENDBRANCH  26  27
ENDBRANCH  24  26
ENDBRANCH  23  24
ENDBRANCH  22  23
ENDBRANCH  21  22
ENDBRANCH   1  21
TORSDOF 25
ENDMDL
MODEL 3
REMARK VINA RESULT:      -5.9      3.137      4.980
REMARK  Name = 
REMARK  26 active torsions:
REMARK  status: ('A' for Active; 'I' for Inactive)
REMARK    1  A    between atoms: C_1  and  C_2
REMARK    2  A    between atoms: C_2  and  C_3
REMARK    3  A    between atoms: C_3  and  C_4
REMARK    4  A    between atoms: C_4  and  C_5
REMARK    5  A    between atoms: C_5  and  C_6
REMARK    6  A    between atoms: C_6  and  C_7
REMARK    7  A    between atoms: C_7  and  C_8
REMARK    8  A    between atoms: C_8  and  C_9
REMARK    9  A    between atoms: C_9  and  C_10
REMARK   10  A    between atoms: C_10  and  C_11
REMARK   11  A    between atoms: C_11  and  O_12
REMARK   12  A    between atoms: O_12  and  C_13
REMARK   13  A    between atoms: C_13  and  C_15
REMARK   14  A    between atoms: C_15  and  C_16
REMARK   15  A    between atoms: C_16  and  C_17
REMARK   16  A    between atoms: C_17  and  C_18
REMARK   17  A    between atoms: N_20  and  CA_21
REMARK   18  A    between atoms: CA_21  and  C_22
REMARK   19  A    between atoms: CA_21  and  C_30
REMARK   20  A    between atoms: C_22  and  C_23
REMARK   21  A    between atoms: C_23  and  C_24
REMARK   22  A    between atoms: C_24  and  CA_25
REMARK   23  A    between atoms: CA_25  and  N_26
REMARK   24  A    between atoms: CA_25  and  C_27
REMARK   25  A    between atoms: C_27  and  OXT_29
REMARK   26  A    between atoms: C_30  and  OXT_32
REMARK                            x       y       z     vdW  Elec       q    Type
REMARK                         _______ _______ _______ _____ _____    ______ ____
ROOT
ATOM      1  C   UNL     1       4.851   5.450  16.962  0.00  0.00    +0.000 C 
ATOM      2  O   UNL     1       4.610   6.364  16.199  0.00  0.00    +0.000 OA
ATOM      3  N   UNL     1       4.001   4.993  17.965  0.00  0.00    +0.000 N 
ATOM      4  H   UNL     1       4.379   4.293  18.569  0.00  0.00    +0.000 HD
ENDROOT
BRANCH   3   5
ATOM      5  CA  UNL     1       2.678   5.612  18.281  0.00  0.00    +0.000 C 
BRANCH   5   6
ATOM      6  C   UNL     1       2.505   6.017  19.793  0.00  0.00    +0.000 C 
ATOM      7  O   UNL     1       2.342   5.238  20.709  0.00  0.00    +0.000 OA
BRANCH   6   8
ATOM      8  OXT UNL     1       2.535   7.322  20.056  0.00  0.00    +0.000 OA
ATOM      9  HXT UNL     1       2.340   7.604  20.957  0.00  0.00    +0.000 HD
ENDBRANCH   6   8
ENDBRANCH   5   6
BRANCH   5  10
ATOM     10  C   UNL     1       1.524   4.676  17.855  0.00  0.00    +0.000 C 
BRANCH  10  11
ATOM     11  C   UNL     1       2.025   3.299  17.435  0.00  0.00    +0.000 C 
BRANCH  11  12
ATOM     12  C   UNL     1       1.902   2.220  18.482  0.00  0.00    +0.000 C 
BRANCH  12  13
ATOM     13  CA  UNL     1       3.277   1.596  18.790  0.00  0.00    +0.000 C 
BRANCH  13  14
ATOM     14  N   UNL     1       4.212   1.621  17.619  0.00  0.00    +0.000 NA
ATOM     15  H1  UNL     1       4.822   2.439  17.713  0.00  0.00    +0.000 HD
ATOM     16  H2  UNL     1       3.664   1.823  16.777  0.00  0.00    +0.000 HD
ENDBRANCH  13  14
BRANCH  13  17
ATOM     17  C   UNL     1       3.897   2.384  19.945  0.00  0.00    +0.000 C 
ATOM     18  O   UNL     1       5.026   2.887  19.921  0.00  0.00    +0.000 OA
BRANCH  17  19
ATOM     19  OXT UNL     1       3.089   2.482  21.036  0.00  0.00    +0.000 OA
ATOM     20  HXT UNL     1       2.757   1.569  21.223  0.00  0.00    +0.000 HD
ENDBRANCH  17  19
ENDBRANCH  13  17
ENDBRANCH  12  13
ENDBRANCH  11  12
ENDBRANCH  10  11
ENDBRANCH   5  10
ENDBRANCH   3   5
BRANCH   1  21
ATOM     21  C   UNL     1       6.101   4.620  16.777  0.00  0.00    +0.000 C 
BRANCH  21  22
ATOM     22  C   UNL     1       7.306   5.356  17.368  0.00  0.00    +0.000 C 
BRANCH  22  23
ATOM     23  C   UNL     1       7.373   6.827  16.989  0.00  0.00    +0.000 C 
BRANCH  23  24
ATOM     24  C   UNL     1       8.023   7.666  18.073  0.00  0.00    +0.000 C 
ATOM     25  O   UNL     1       8.517   7.227  19.102  0.00  0.00    +0.000 OA
BRANCH  24  26
ATOM     26  O   UNL     1       8.002   8.986  17.721  0.00  0.00    +0.000 OA
BRANCH  26  27
ATOM     27  C   UNL     1       8.636   9.845  18.679  0.00  0.00    +0.000 C 
BRANCH  27  28
ATOM     28  C   UNL     1       9.518  10.895  18.018  0.00  0.00    +0.000 C 
BRANCH  28  29
ATOM     29  C   UNL     1      10.585  11.405  18.989  0.00  0.00    +0.000 C 
BRANCH  29  30
ATOM     30  C   UNL     1      10.074  11.380  20.424  0.00  0.00    +0.000 C 
BRANCH  30  31
ATOM     31  C   UNL     1      10.357  12.707  21.116  0.00  0.00    +0.000 C 
BRANCH  31  32
ATOM     32  C   UNL     1       9.081  13.265  21.724  0.00  0.00    +0.000 C 
BRANCH  32  33
ATOM     33  C   UNL     1       8.769  14.627  21.126  0.00  0.00    +0.000 C 
BRANCH  33  34
ATOM     34  C   UNL     1       7.679  14.499  20.076  0.00  0.00    +0.000 C 
BRANCH  34  35
ATOM     35  C   UNL     1       8.291  14.470  18.686  0.00  0.00    +0.000 C 
BRANCH  35  37
ATOM     36  C   UNL     1       7.928  16.921  18.423  0.00  0.00    +0.000 C 
ATOM     37  C   UNL     1       8.951  15.805  18.370  0.00  0.00    +0.000 C 
ENDBRANCH  35  37
ENDBRANCH  34  35
ENDBRANCH  33  34
ENDBRANCH  32  33
ENDBRANCH  31  32
ENDBRANCH  30  31
ENDBRANCH  29  30
ENDBRANCH  28  29
ENDBRANCH  27  28
ENDBRANCH  26  27
ENDBRANCH  24  26
ENDBRANCH  23  24
ENDBRANCH  22  23
ENDBRANCH  21  22
ENDBRANCH   1  21
TORSDOF 25
ENDMDL
MODEL 4
REMARK VINA RESULT:      -5.9      5.048     10.462
REMARK  Name = 
REMARK  26 active torsions:
REMARK  status: ('A' for Active; 'I' for Inactive)
REMARK    1  A    between atoms: C_1  and  C_2
REMARK    2  A    between atoms: C_2  and  C_3
REMARK    3  A    between atoms: C_3  and  C_4
REMARK    4  A    between atoms: C_4  and  C_5
REMARK    5  A    between atoms: C_5  and  C_6
REMARK    6  A    between atoms: C_6  and  C_7
REMARK    7  A    between atoms: C_7  and  C_8
REMARK    8  A    between atoms: C_8  and  C_9
REMARK    9  A    between atoms: C_9  and  C_10
REMARK   10  A    between atoms: C_10  and  C_11
REMARK   11  A    between atoms: C_11  and  O_12
REMARK   12  A    between atoms: O_12  and  C_13
REMARK   13  A    between atoms: C_13  and  C_15
REMARK   14  A    between atoms: C_15  and  C_16
REMARK   15  A    between atoms: C_16  and  C_17
REMARK   16  A    between atoms: C_17  and  C_18
REMARK   17  A    between atoms: N_20  and  CA_21
REMARK   18  A    between atoms: CA_21  and  C_22
REMARK   19  A    between atoms: CA_21  and  C_30
REMARK   20  A    between atoms: C_22  and  C_23
REMARK   21  A    between atoms: C_23  and  C_24
REMARK   22  A    between atoms: C_24  and  CA_25
REMARK   23  A    between atoms: CA_25  and  N_26
REMARK   24  A    between atoms: CA_25  and  C_27
REMARK   25  A    between atoms: C_27  and  OXT_29
REMARK   26  A    between atoms: C_30  and  OXT_32
REMARK                            x       y       z     vdW  Elec       q    Type
REMARK                         _______ _______ _______ _____ _____    ______ ____
ROOT
ATOM      1  C   UNL     1       2.174   7.501  19.655  0.00  0.00    +0.000 C 
ATOM      2  O   UNL     1       2.456   8.265  18.753  0.00  0.00    +0.000 OA
ATOM      3  N   UNL     1       1.497   7.849  20.821  0.00  0.00    +0.000 N 
ATOM      4  H   UNL     1       1.420   7.128  21.509  0.00  0.00    +0.000 HD
ENDROOT
BRANCH   3   5
ATOM      5  CA  UNL     1       1.070   9.242  21.153  0.00  0.00    +0.000 C 
BRANCH   5   6
ATOM      6  C   UNL     1       0.097   9.337  22.387  0.00  0.00    +0.000 C 
ATOM      7  O   UNL     1      -0.750   8.517  22.671  0.00  0.00    +0.000 OA
BRANCH   6   8
ATOM      8  OXT UNL     1       0.230  10.417  23.155  0.00  0.00    +0.000 OA
ATOM      9  HXT UNL     1      -0.570  10.894  23.405  0.00  0.00    +0.000 HD
ENDBRANCH   6   8
ENDBRANCH   5   6
BRANCH   5  10
ATOM     10  C   UNL     1       0.423   9.919  19.923  0.00  0.00    +0.000 C 
BRANCH  10  11
ATOM     11  C   UNL     1       1.044  11.278  19.621  0.00  0.00    +0.000 C 
BRANCH  11  12
ATOM     12  C   UNL     1       0.062  12.398  19.386  0.00  0.00    +0.000 C 
BRANCH  12  13
ATOM     13  CA  UNL     1      -0.982  12.460  20.517  0.00  0.00    +0.000 C 
BRANCH  13  14
ATOM     14  N   UNL     1      -0.733  13.572  21.490  0.00  0.00    +0.000 NA
ATOM     15  H1  UNL     1       0.050  14.134  21.140  0.00  0.00    +0.000 HD
ATOM     16  H2  UNL     1      -0.370  13.163  22.356  0.00  0.00    +0.000 HD
ENDBRANCH  13  14
BRANCH  13  17
ATOM     17  C   UNL     1      -2.355  12.654  19.872  0.00  0.00    +0.000 C 
ATOM     18  O   UNL     1      -2.934  11.799  19.192  0.00  0.00    +0.000 OA
BRANCH  17  19
ATOM     19  OXT UNL     1      -2.900  13.878  20.105  0.00  0.00    +0.000 OA
ATOM     20  HXT UNL     1      -2.786  14.058  21.071  0.00  0.00    +0.000 HD
ENDBRANCH  17  19
ENDBRANCH  13  17
ENDBRANCH  12  13
ENDBRANCH  11  12
ENDBRANCH  10  11
ENDBRANCH   5  10
ENDBRANCH   3   5
BRANCH   1  21
ATOM     21  C   UNL     1       2.436   6.021  19.503  0.00  0.00    +0.000 C 
BRANCH  21  22
ATOM     22  C   UNL     1       1.631   5.240  20.545  0.00  0.00    +0.000 C 
BRANCH  22  23
ATOM     23  C   UNL     1       2.485   4.375  21.458  0.00  0.00    +0.000 C 
BRANCH  23  24
ATOM     24  C   UNL     1       2.174   2.898  21.298  0.00  0.00    +0.000 C 
ATOM     25  O   UNL     1       1.494   2.234  22.067  0.00  0.00    +0.000 OA
BRANCH  24  26
ATOM     26  O   UNL     1       2.742   2.422  20.150  0.00  0.00    +0.000 OA
BRANCH  26  27
ATOM     27  C   UNL     1       1.821   2.320  19.055  0.00  0.00    +0.000 C 
BRANCH  27  28
ATOM     28  C   UNL     1       2.519   1.984  17.744  0.00  0.00    +0.000 C 
BRANCH  28  29
ATOM     29  C   UNL     1       3.853   2.724  17.628  0.00  0.00    +0.000 C 
BRANCH  29  30
ATOM     30  C   UNL     1       3.711   3.974  16.770  0.00  0.00    +0.000 C 
BRANCH  30  31
ATOM     31  C   UNL     1       5.071   4.616  16.529  0.00  0.00    +0.000 C 
BRANCH  31  32
ATOM     32  C   UNL     1       4.964   6.128  16.631  0.00  0.00    +0.000 C 
BRANCH  32  33
ATOM     33  C   UNL     1       5.592   6.610  17.929  0.00  0.00    +0.000 C 
BRANCH  33  34
ATOM     34  C   UNL     1       6.909   5.891  18.170  0.00  0.00    +0.000 C 
BRANCH  34  35
ATOM     35  C   UNL     1       8.004   6.897  18.481  0.00  0.00    +0.000 C 
BRANCH  35  37
ATOM     36  C   UNL     1       8.463   9.341  18.318  0.00  0.00    +0.000 C 
ATOM     37  C   UNL     1       7.834   8.147  17.629  0.00  0.00    +0.000 C 
ENDBRANCH  35  37
ENDBRANCH  34  35
ENDBRANCH  33  34
ENDBRANCH  32  33
ENDBRANCH  31  32
ENDBRANCH  30  31
ENDBRANCH  29  30
ENDBRANCH  28  29
ENDBRANCH  27  28
ENDBRANCH  26  27
ENDBRANCH  24  26
ENDBRANCH  23  24
ENDBRANCH  22  23
ENDBRANCH  21  22
ENDBRANCH   1  21
TORSDOF 25
ENDMDL
MODEL 5
REMARK VINA RESULT:      -5.9      2.708      6.159
REMARK  Name = 
REMARK  26 active torsions:
REMARK  status: ('A' for Active; 'I' for Inactive)
REMARK    1  A    between atoms: C_1  and  C_2
REMARK    2  A    between atoms: C_2  and  C_3
REMARK    3  A    between atoms: C_3  and  C_4
REMARK    4  A    between atoms: C_4  and  C_5
REMARK    5  A    between atoms: C_5  and  C_6
REMARK    6  A    between atoms: C_6  and  C_7
REMARK    7  A    between atoms: C_7  and  C_8
REMARK    8  A    between atoms: C_8  and  C_9
REMARK    9  A    between atoms: C_9  and  C_10
REMARK   10  A    between atoms: C_10  and  C_11
REMARK   11  A    between atoms: C_11  and  O_12
REMARK   12  A    between atoms: O_12  and  C_13
REMARK   13  A    between atoms: C_13  and  C_15
REMARK   14  A    between atoms: C_15  and  C_16
REMARK   15  A    between atoms: C_16  and  C_17
REMARK   16  A    between atoms: C_17  and  C_18
REMARK   17  A    between atoms: N_20  and  CA_21
REMARK   18  A    between atoms: CA_21  and  C_22
REMARK   19  A    between atoms: CA_21  and  C_30
REMARK   20  A    between atoms: C_22  and  C_23
REMARK   21  A    between atoms: C_23  and  C_24
REMARK   22  A    between atoms: C_24  and  CA_25
REMARK   23  A    between atoms: CA_25  and  N_26
REMARK   24  A    between atoms: CA_25  and  C_27
REMARK   25  A    between atoms: C_27  and  OXT_29
REMARK   26  A    between atoms: C_30  and  OXT_32
REMARK                            x       y       z     vdW  Elec       q    Type
REMARK                         _______ _______ _______ _____ _____    ______ ____
ROOT
ATOM      1  C   UNL     1       1.980   4.360  20.019  0.00  0.00    +0.000 C 
ATOM      2  O   UNL     1       1.243   3.458  20.364  0.00  0.00    +0.000 OA
ATOM      3  N   UNL     1       2.958   4.267  19.031  0.00  0.00    +0.000 N 
ATOM      4  H   UNL     1       3.544   5.068  18.925  0.00  0.00    +0.000 HD
ENDROOT
BRANCH   3   5
ATOM      5  CA  UNL     1       3.277   3.008  18.292  0.00  0.00    +0.000 C 
BRANCH   5   6
ATOM      6  C   UNL     1       4.142   1.983  19.116  0.00  0.00    +0.000 C 
ATOM      7  O   UNL     1       4.739   2.239  20.140  0.00  0.00    +0.000 OA
BRANCH   6   8
ATOM      8  OXT UNL     1       4.214   0.748  18.622  0.00  0.00    +0.000 OA
ATOM      9  HXT UNL     1       3.787   0.039  19.117  0.00  0.00    +0.000 HD
ENDBRANCH   6   8
ENDBRANCH   5   6
BRANCH   5  10
ATOM     10  C   UNL     1       3.980   3.329  16.953  0.00  0.00    +0.000 C 
BRANCH  10  11
ATOM     11  C   UNL     1       4.224   4.822  16.774  0.00  0.00    +0.000 C 
BRANCH  11  12
ATOM     12  C   UNL     1       5.666   5.223  16.585  0.00  0.00    +0.000 C 
BRANCH  12  13
ATOM     13  CA  UNL     1       6.578   4.475  17.575  0.00  0.00    +0.000 C 
BRANCH  13  14
ATOM     14  N   UNL     1       7.951   4.217  17.033  0.00  0.00    +0.000 NA
ATOM     15  H1  UNL     1       8.043   3.211  16.860  0.00  0.00    +0.000 HD
ATOM     16  H2  UNL     1       8.628   4.397  17.781  0.00  0.00    +0.000 HD
ENDBRANCH  13  14
BRANCH  13  17
ATOM     17  C   UNL     1       6.688   5.327  18.841  0.00  0.00    +0.000 C 
ATOM     18  O   UNL     1       5.780   5.470  19.667  0.00  0.00    +0.000 OA
BRANCH  17  19
ATOM     19  OXT UNL     1       7.895   5.939  18.984  0.00  0.00    +0.000 OA
ATOM     20  HXT UNL     1       8.449   5.652  18.216  0.00  0.00    +0.000 HD
ENDBRANCH  17  19
ENDBRANCH  13  17
ENDBRANCH  12  13
ENDBRANCH  11  12
ENDBRANCH  10  11
ENDBRANCH   5  10
ENDBRANCH   3   5
BRANCH   1  21
ATOM     21  C   UNL     1       1.785   5.751  20.574  0.00  0.00    +0.000 C 
BRANCH  21  22
ATOM     22  C   UNL     1       2.397   6.782  19.622  0.00  0.00    +0.000 C 
BRANCH  22  23
ATOM     23  C   UNL     1       1.762   8.160  19.719  0.00  0.00    +0.000 C 
BRANCH  23  24
ATOM     24  C   UNL     1       1.693   8.851  18.370  0.00  0.00    +0.000 C 
ATOM     25  O   UNL     1       2.383   8.572  17.399  0.00  0.00    +0.000 OA
BRANCH  24  26
ATOM     26  O   UNL     1       0.726   9.816  18.386  0.00  0.00    +0.000 OA
BRANCH  26  27
ATOM     27  C   UNL     1       1.031  10.919  19.251  0.00  0.00    +0.000 C 
BRANCH  27  28
ATOM     28  C   UNL     1       1.351  12.189  18.475  0.00  0.00    +0.000 C 
BRANCH  28  29
ATOM     29  C   UNL     1       1.802  13.308  19.417  0.00  0.00    +0.000 C 
BRANCH  29  30
ATOM     30  C   UNL     1       1.599  14.675  18.777  0.00  0.00    +0.000 C 
BRANCH  30  31
ATOM     31  C   UNL     1       2.894  15.168  18.145  0.00  0.00    +0.000 C 
BRANCH  31  32
ATOM     32  C   UNL     1       4.075  14.372  18.677  0.00  0.00    +0.000 C 
BRANCH  32  33
ATOM     33  C   UNL     1       5.371  14.902  18.087  0.00  0.00    +0.000 C 
BRANCH  33  34
ATOM     34  C   UNL     1       6.411  15.074  19.182  0.00  0.00    +0.000 C 
BRANCH  34  35
ATOM     35  C   UNL     1       7.769  14.601  18.692  0.00  0.00    +0.000 C 
BRANCH  35  37
ATOM     36  C   UNL     1       8.370  12.445  17.596  0.00  0.00    +0.000 C 
ATOM     37  C   UNL     1       7.614  13.749  17.440  0.00  0.00    +0.000 C 
ENDBRANCH  35  37
ENDBRANCH  34  35
ENDBRANCH  33  34
ENDBRANCH  32  33
ENDBRANCH  31  32
ENDBRANCH  30  31
ENDBRANCH  29  30
ENDBRANCH  28  29
ENDBRANCH  27  28
ENDBRANCH  26  27
ENDBRANCH  24  26
ENDBRANCH  23  24
ENDBRANCH  22  23
ENDBRANCH  21  22
ENDBRANCH   1  21
TORSDOF 25
ENDMDL
MODEL 6
REMARK VINA RESULT:      -5.8      4.402      7.623
REMARK  Name = 
REMARK  26 active torsions:
REMARK  status: ('A' for Active; 'I' for Inactive)
REMARK    1  A    between atoms: C_1  and  C_2
REMARK    2  A    between atoms: C_2  and  C_3
REMARK    3  A    between atoms: C_3  and  C_4
REMARK    4  A    between atoms: C_4  and  C_5
REMARK    5  A    between atoms: C_5  and  C_6
REMARK    6  A    between atoms: C_6  and  C_7
REMARK    7  A    between atoms: C_7  and  C_8
REMARK    8  A    between atoms: C_8  and  C_9
REMARK    9  A    between atoms: C_9  and  C_10
REMARK   10  A    between atoms: C_10  and  C_11
REMARK   11  A    between atoms: C_11  and  O_12
REMARK   12  A    between atoms: O_12  and  C_13
REMARK   13  A    between atoms: C_13  and  C_15
REMARK   14  A    between atoms: C_15  and  C_16
REMARK   15  A    between atoms: C_16  and  C_17
REMARK   16  A    between atoms: C_17  and  C_18
REMARK   17  A    between atoms: N_20  and  CA_21
REMARK   18  A    between atoms: CA_21  and  C_22
REMARK   19  A    between atoms: CA_21  and  C_30
REMARK   20  A    between atoms: C_22  and  C_23
REMARK   21  A    between atoms: C_23  and  C_24
REMARK   22  A    between atoms: C_24  and  CA_25
REMARK   23  A    between atoms: CA_25  and  N_26
REMARK   24  A    between atoms: CA_25  and  C_27
REMARK   25  A    between atoms: C_27  and  OXT_29
REMARK   26  A    between atoms: C_30  and  OXT_32
REMARK                            x       y       z     vdW  Elec       q    Type
REMARK                         _______ _______ _______ _____ _____    ______ ____
ROOT
ATOM      1  C   UNL     1       5.823   4.899  19.243  0.00  0.00    +0.000 C 
ATOM      2  O   UNL     1       6.863   4.975  19.866  0.00  0.00    +0.000 OA
ATOM      3  N   UNL     1       5.673   5.191  17.889  0.00  0.00    +0.000 N 
ATOM      4  H   UNL     1       4.736   5.169  17.542  0.00  0.00    +0.000 HD
ENDROOT
BRANCH   3   5
ATOM      5  CA  UNL     1       6.776   5.702  17.020  0.00  0.00    +0.000 C 
BRANCH   5   6
ATOM      6  C   UNL     1       7.360   7.091  17.475  0.00  0.00    +0.000 C 
ATOM      7  O   UNL     1       7.097   8.159  16.963  0.00  0.00    +0.000 OA
BRANCH   6   8
ATOM      8  OXT UNL     1       8.213   7.060  18.498  0.00  0.00    +0.000 OA
ATOM      9  HXT UNL     1       8.471   7.900  18.895  0.00  0.00    +0.000 HD
ENDBRANCH   6   8
ENDBRANCH   5   6
BRANCH   5  10
ATOM     10  C   UNL     1       6.312   5.786  15.547  0.00  0.00    +0.000 C 
BRANCH  10  11
ATOM     11  C   UNL     1       5.556   4.538  15.110  0.00  0.00    +0.000 C 
BRANCH  11  12
ATOM     12  C   UNL     1       6.290   3.643  14.143  0.00  0.00    +0.000 C 
BRANCH  12  13
ATOM     13  CA  UNL     1       6.078   4.112  12.692  0.00  0.00    +0.000 C 
BRANCH  13  14
ATOM     14  N   UNL     1       7.360   4.403  11.972  0.00  0.00    +0.000 NA
ATOM     15  H1  UNL     1       7.177   4.365  10.964  0.00  0.00    +0.000 HD
ATOM     16  H2  UNL     1       8.001   3.620  12.132  0.00  0.00    +0.000 HD
ENDBRANCH  13  14
BRANCH  13  17
ATOM     17  C   UNL     1       5.325   3.006  11.950  0.00  0.00    +0.000 C 
ATOM     18  O   UNL     1       4.193   3.133  11.470  0.00  0.00    +0.000 OA
BRANCH  17  19
ATOM     19  OXT UNL     1       6.015   1.836  11.868  0.00  0.00    +0.000 OA
ATOM     20  HXT UNL     1       5.757   1.417  11.010  0.00  0.00    +0.000 HD
ENDBRANCH  17  19
ENDBRANCH  13  17
ENDBRANCH  12  13
ENDBRANCH  11  12
ENDBRANCH  10  11
ENDBRANCH   5  10
ENDBRANCH   3   5
BRANCH   1  21
ATOM     21  C   UNL     1       4.588   4.327  19.898  0.00  0.00    +0.000 C 
BRANCH  21  22
ATOM     22  C   UNL     1       4.530   2.815  19.666  0.00  0.00    +0.000 C 
BRANCH  22  23
ATOM     23  C   UNL     1       3.304   2.147  20.270  0.00  0.00    +0.000 C 
BRANCH  23  24
ATOM     24  C   UNL     1       2.448   3.128  21.049  0.00  0.00    +0.000 C 
ATOM     25  O   UNL     1       2.444   3.247  22.267  0.00  0.00    +0.000 OA
BRANCH  24  26
ATOM     26  O   UNL     1       1.699   3.882  20.191  0.00  0.00    +0.000 OA
BRANCH  26  27
ATOM     27  C   UNL     1       0.948   3.103  19.250  0.00  0.00    +0.000 C 
BRANCH  27  28
ATOM     28  C   UNL     1       1.018   3.675  17.840  0.00  0.00    +0.000 C 
BRANCH  28  29
ATOM     29  C   UNL     1       2.154   4.694  17.720  0.00  0.00    +0.000 C 
BRANCH  29  30
ATOM     30  C   UNL     1       1.651   6.106  17.987  0.00  0.00    +0.000 C 
BRANCH  30  31
ATOM     31  C   UNL     1       2.763   7.123  17.761  0.00  0.00    +0.000 C 
BRANCH  31  32
ATOM     32  C   UNL     1       2.497   8.380  18.573  0.00  0.00    +0.000 C 
BRANCH  32  33
ATOM     33  C   UNL     1       1.496   9.266  17.851  0.00  0.00    +0.000 C 
BRANCH  33  34
ATOM     34  C   UNL     1       0.984  10.347  18.788  0.00  0.00    +0.000 C 
BRANCH  34  35
ATOM     35  C   UNL     1       0.044   9.743  19.818  0.00  0.00    +0.000 C 
BRANCH  35  37
ATOM     36  C   UNL     1       1.196   9.155  21.949  0.00  0.00    +0.000 C 
ATOM     37  C   UNL     1       0.410  10.223  21.216  0.00  0.00    +0.000 C 
ENDBRANCH  35  37
ENDBRANCH  34  35
ENDBRANCH  33  34
ENDBRANCH  32  33
ENDBRANCH  31  32
ENDBRANCH  30  31
ENDBRANCH  29  30
ENDBRANCH  28  29
ENDBRANCH  27  28
ENDBRANCH  26  27
ENDBRANCH  24  26
ENDBRANCH  23  24
ENDBRANCH  22  23
ENDBRANCH  21  22
ENDBRANCH   1  21
TORSDOF 25
ENDMDL
MODEL 7
REMARK VINA RESULT:      -5.8      3.904      9.441
REMARK  Name = 
REMARK  26 active torsions:
REMARK  status: ('A' for Active; 'I' for Inactive)
REMARK    1  A    between atoms: C_1  and  C_2
REMARK    2  A    between atoms: C_2  and  C_3
REMARK    3  A    between atoms: C_3  and  C_4
REMARK    4  A    between atoms: C_4  and  C_5
REMARK    5  A    between atoms: C_5  and  C_6
REMARK    6  A    between atoms: C_6  and  C_7
REMARK    7  A    between atoms: C_7  and  C_8
REMARK    8  A    between atoms: C_8  and  C_9
REMARK    9  A    between atoms: C_9  and  C_10
REMARK   10  A    between atoms: C_10  and  C_11
REMARK   11  A    between atoms: C_11  and  O_12
REMARK   12  A    between atoms: O_12  and  C_13
REMARK   13  A    between atoms: C_13  and  C_15
REMARK   14  A    between atoms: C_15  and  C_16
REMARK   15  A    between atoms: C_16  and  C_17
REMARK   16  A    between atoms: C_17  and  C_18
REMARK   17  A    between atoms: N_20  and  CA_21
REMARK   18  A    between atoms: CA_21  and  C_22
REMARK   19  A    between atoms: CA_21  and  C_30
REMARK   20  A    between atoms: C_22  and  C_23
REMARK   21  A    between atoms: C_23  and  C_24
REMARK   22  A    between atoms: C_24  and  CA_25
REMARK   23  A    between atoms: CA_25  and  N_26
REMARK   24  A    between atoms: CA_25  and  C_27
REMARK   25  A    between atoms: C_27  and  OXT_29
REMARK   26  A    between atoms: C_30  and  OXT_32
REMARK                            x       y       z     vdW  Elec       q    Type
REMARK                         _______ _______ _______ _____ _____    ______ ____
ROOT
ATOM      1  C   UNL     1       8.774   9.767  18.479  0.00  0.00    +0.000 C 
ATOM      2  O   UNL     1       9.288   9.113  19.364  0.00  0.00    +0.000 OA
ATOM      3  N   UNL     1       9.022  11.113  18.225  0.00  0.00    +0.000 N 
ATOM      4  H   UNL     1       8.454  11.533  17.518  0.00  0.00    +0.000 HD
ENDROOT
BRANCH   3   5
ATOM      5  CA  UNL     1       9.924  11.965  19.057  0.00  0.00    +0.000 C 
BRANCH   5   6
ATOM      6  C   UNL     1      11.457  11.718  18.800  0.00  0.00    +0.000 C 
ATOM      7  O   UNL     1      12.303  11.625  19.664  0.00  0.00    +0.000 OA
BRANCH   6   8
ATOM      8  OXT UNL     1      11.827  11.617  17.524  0.00  0.00    +0.000 OA
ATOM      9  HXT UNL     1      11.720  10.763  17.090  0.00  0.00    +0.000 HD
ENDBRANCH   6   8
ENDBRANCH   5   6
BRANCH   5  10
ATOM     10  C   UNL     1       9.609  11.782  20.560  0.00  0.00    +0.000 C 
BRANCH  10  11
ATOM     11  C   UNL     1       9.045  13.051  21.189  0.00  0.00    +0.000 C 
BRANCH  11  12
ATOM     12  C   UNL     1       8.946  13.037  22.693  0.00  0.00    +0.000 C 
BRANCH  12  13
ATOM     13  CA  UNL     1       7.509  13.349  23.151  0.00  0.00    +0.000 C 
BRANCH  13  14
ATOM     14  N   UNL     1       6.639  13.873  22.049  0.00  0.00    +0.000 NA
ATOM     15  H1  UNL     1       7.244  14.293  21.336  0.00  0.00    +0.000 HD
ATOM     16  H2  UNL     1       6.106  14.668  22.414  0.00  0.00    +0.000 HD
ENDBRANCH  13  14
BRANCH  13  17
ATOM     17  C   UNL     1       6.903  12.055  23.697  0.00  0.00    +0.000 C 
ATOM     18  O   UNL     1       7.545  11.179  24.288  0.00  0.00    +0.000 OA
BRANCH  17  19
ATOM     19  OXT UNL     1       5.567  11.937  23.468  0.00  0.00    +0.000 OA
ATOM     20  HXT UNL     1       5.113  12.211  24.302  0.00  0.00    +0.000 HD
ENDBRANCH  17  19
ENDBRANCH  13  17
ENDBRANCH  12  13
ENDBRANCH  11  12
ENDBRANCH  10  11
ENDBRANCH   5  10
ENDBRANCH   3   5
BRANCH   1  21
ATOM     21  C   UNL     1       7.886   9.092  17.459  0.00  0.00    +0.000 C 
BRANCH  21  22
ATOM     22  C   UNL     1       7.814   7.590  17.744  0.00  0.00    +0.000 C 
BRANCH  22  23
ATOM     23  C   UNL     1       6.404   7.023  17.695  0.00  0.00    +0.000 C 
BRANCH  23  24
ATOM     24  C   UNL     1       6.353   5.583  18.169  0.00  0.00    +0.000 C 
ATOM     25  O   UNL     1       6.616   5.204  19.302  0.00  0.00    +0.000 OA
BRANCH  24  26
ATOM     26  O   UNL     1       5.941   4.769  17.151  0.00  0.00    +0.000 OA
BRANCH  26  27
ATOM     27  C   UNL     1       4.518   4.592  17.100  0.00  0.00    +0.000 C 
BRANCH  27  28
ATOM     28  C   UNL     1       4.111   3.138  17.301  0.00  0.00    +0.000 C 
BRANCH  28  29
ATOM     29  C   UNL     1       4.188   2.747  18.778  0.00  0.00    +0.000 C 
BRANCH  29  30
ATOM     30  C   UNL     1       2.864   2.171  19.261  0.00  0.00    +0.000 C 
BRANCH  30  31
ATOM     31  C   UNL     1       1.739   2.537  18.301  0.00  0.00    +0.000 C 
BRANCH  31  32
ATOM     32  C   UNL     1       0.987   3.755  18.813  0.00  0.00    +0.000 C 
BRANCH  32  33
ATOM     33  C   UNL     1       1.078   3.826  20.329  0.00  0.00    +0.000 C 
BRANCH  33  34
ATOM     34  C   UNL     1       1.423   5.240  20.765  0.00  0.00    +0.000 C 
BRANCH  34  35
ATOM     35  C   UNL     1       2.423   5.856  19.802  0.00  0.00    +0.000 C 
BRANCH  35  37
ATOM     36  C   UNL     1       1.400   7.851  20.889  0.00  0.00    +0.000 C 
ATOM     37  C   UNL     1       2.213   7.360  19.707  0.00  0.00    +0.000 C 
ENDBRANCH  35  37
ENDBRANCH  34  35
ENDBRANCH  33  34
ENDBRANCH  32  33
ENDBRANCH  31  32
ENDBRANCH  30  31
ENDBRANCH  29  30
ENDBRANCH  28  29
ENDBRANCH  27  28
ENDBRANCH  26  27
ENDBRANCH  24  26
ENDBRANCH  23  24
ENDBRANCH  22  23
ENDBRANCH  21  22
ENDBRANCH   1  21
TORSDOF 25
ENDMDL
MODEL 8
REMARK VINA RESULT:      -5.8      3.789      6.622
REMARK  Name = 
REMARK  26 active torsions:
REMARK  status: ('A' for Active; 'I' for Inactive)
REMARK    1  A    between atoms: C_1  and  C_2
REMARK    2  A    between atoms: C_2  and  C_3
REMARK    3  A    between atoms: C_3  and  C_4
REMARK    4  A    between atoms: C_4  and  C_5
REMARK    5  A    between atoms: C_5  and  C_6
REMARK    6  A    between atoms: C_6  and  C_7
REMARK    7  A    between atoms: C_7  and  C_8
REMARK    8  A    between atoms: C_8  and  C_9
REMARK    9  A    between atoms: C_9  and  C_10
REMARK   10  A    between atoms: C_10  and  C_11
REMARK   11  A    between atoms: C_11  and  O_12
REMARK   12  A    between atoms: O_12  and  C_13
REMARK   13  A    between atoms: C_13  and  C_15
REMARK   14  A    between atoms: C_15  and  C_16
REMARK   15  A    between atoms: C_16  and  C_17
REMARK   16  A    between atoms: C_17  and  C_18
REMARK   17  A    between atoms: N_20  and  CA_21
REMARK   18  A    between atoms: CA_21  and  C_22
REMARK   19  A    between atoms: CA_21  and  C_30
REMARK   20  A    between atoms: C_22  and  C_23
REMARK   21  A    between atoms: C_23  and  C_24
REMARK   22  A    between atoms: C_24  and  CA_25
REMARK   23  A    between atoms: CA_25  and  N_26
REMARK   24  A    between atoms: CA_25  and  C_27
REMARK   25  A    between atoms: C_27  and  OXT_29
REMARK   26  A    between atoms: C_30  and  OXT_32
REMARK                            x       y       z     vdW  Elec       q    Type
REMARK                         _______ _______ _______ _____ _____    ______ ____
ROOT
ATOM      1  C   UNL     1       2.160   5.587  19.888  0.00  0.00    +0.000 C 
ATOM      2  O   UNL     1       1.241   5.064  20.486  0.00  0.00    +0.000 OA
ATOM      3  N   UNL     1       3.108   4.914  19.120  0.00  0.00    +0.000 N 
ATOM      4  H   UNL     1       3.855   5.473  18.765  0.00  0.00    +0.000 HD
ENDROOT
BRANCH   3   5
ATOM      5  CA  UNL     1       3.158   3.427  18.975  0.00  0.00    +0.000 C 
BRANCH   5   6
ATOM      6  C   UNL     1       3.712   2.677  20.244  0.00  0.00    +0.000 C 
ATOM      7  O   UNL     1       4.787   2.121  20.310  0.00  0.00    +0.000 OA
BRANCH   6   8
ATOM      8  OXT UNL     1       2.912   2.661  21.309  0.00  0.00    +0.000 OA
ATOM      9  HXT UNL     1       1.960   2.650  21.157  0.00  0.00    +0.000 HD
ENDBRANCH   6   8
ENDBRANCH   5   6
BRANCH   5  10
ATOM     10  C   UNL     1       3.985   3.031  17.730  0.00  0.00    +0.000 C 
BRANCH  10  11
ATOM     11  C   UNL     1       5.190   3.940  17.527  0.00  0.00    +0.000 C 
BRANCH  11  12
ATOM     12  C   UNL     1       5.289   4.589  16.169  0.00  0.00    +0.000 C 
BRANCH  12  13
ATOM     13  CA  UNL     1       6.743   4.990  15.857  0.00  0.00    +0.000 C 
BRANCH  13  14
ATOM     14  N   UNL     1       7.751   4.235  16.671  0.00  0.00    +0.000 NA
ATOM     15  H1  UNL     1       7.850   3.298  16.269  0.00  0.00    +0.000 HD
ATOM     16  H2  UNL     1       7.348   4.061  17.597  0.00  0.00    +0.000 HD
ENDBRANCH  13  14
BRANCH  13  17
ATOM     17  C   UNL     1       6.992   4.721  14.372  0.00  0.00    +0.000 C 
ATOM     18  O   UNL     1       6.448   3.819  13.726  0.00  0.00    +0.000 OA
BRANCH  17  19
ATOM     19  OXT UNL     1       7.892   5.569  13.806  0.00  0.00    +0.000 OA
ATOM     20  HXT UNL     1       7.464   6.461  13.786  0.00  0.00    +0.000 HD
ENDBRANCH  17  19
ENDBRANCH  13  17
ENDBRANCH  12  13
ENDBRANCH  11  12
ENDBRANCH  10  11
ENDBRANCH   5  10
ENDBRANCH   3   5
BRANCH   1  21
ATOM     21  C   UNL     1       2.263   7.093  19.825  0.00  0.00    +0.000 C 
BRANCH  21  22
ATOM     22  C   UNL     1       2.309   7.551  18.365  0.00  0.00    +0.000 C 
BRANCH  22  23
ATOM     23  C   UNL     1       2.310   9.062  18.195  0.00  0.00    +0.000 C 
BRANCH  23  24
ATOM     24  C   UNL     1       0.939   9.663  18.440  0.00  0.00    +0.000 C 
ATOM     25  O   UNL     1      -0.002   9.615  17.660  0.00  0.00    +0.000 OA
BRANCH  24  26
ATOM     26  O   UNL     1       0.896  10.245  19.676  0.00  0.00    +0.000 OA
BRANCH  26  27
ATOM     27  C   UNL     1      -0.433  10.374  20.202  0.00  0.00    +0.000 C 
BRANCH  27  28
ATOM     28  C   UNL     1      -0.843  11.830  20.381  0.00  0.00    +0.000 C 
BRANCH  28  29
ATOM     29  C   UNL     1      -1.520  12.367  19.119  0.00  0.00    +0.000 C 
BRANCH  29  30
ATOM     30  C   UNL     1      -0.553  13.205  18.294  0.00  0.00    +0.000 C 
BRANCH  30  31
ATOM     31  C   UNL     1       0.547  13.780  19.178  0.00  0.00    +0.000 C 
BRANCH  31  32
ATOM     32  C   UNL     1       1.886  13.710  18.463  0.00  0.00    +0.000 C 
BRANCH  32  33
ATOM     33  C   UNL     1       2.670  14.991  18.695  0.00  0.00    +0.000 C 
BRANCH  33  34
ATOM     34  C   UNL     1       3.519  15.311  17.477  0.00  0.00    +0.000 C 
BRANCH  34  35
ATOM     35  C   UNL     1       4.990  15.108  17.797  0.00  0.00    +0.000 C 
BRANCH  35  37
ATOM     36  C   UNL     1       5.892  16.933  19.235  0.00  0.00    +0.000 C 
ATOM     37  C   UNL     1       5.287  15.544  19.225  0.00  0.00    +0.000 C 
ENDBRANCH  35  37
ENDBRANCH  34  35
ENDBRANCH  33  34
ENDBRANCH  32  33
ENDBRANCH  31  32
ENDBRANCH  30  31
ENDBRANCH  29  30
ENDBRANCH  28  29
ENDBRANCH  27  28
ENDBRANCH  26  27
ENDBRANCH  24  26
ENDBRANCH  23  24
ENDBRANCH  22  23
ENDBRANCH  21  22
ENDBRANCH   1  21
TORSDOF 25
ENDMDL
MODEL 9
REMARK VINA RESULT:      -5.8      5.620     10.159
REMARK  Name = 
REMARK  26 active torsions:
REMARK  status: ('A' for Active; 'I' for Inactive)
REMARK    1  A    between atoms: C_1  and  C_2
REMARK    2  A    between atoms: C_2  and  C_3
REMARK    3  A    between atoms: C_3  and  C_4
REMARK    4  A    between atoms: C_4  and  C_5
REMARK    5  A    between atoms: C_5  and  C_6
REMARK    6  A    between atoms: C_6  and  C_7
REMARK    7  A    between atoms: C_7  and  C_8
REMARK    8  A    between atoms: C_8  and  C_9
REMARK    9  A    between atoms: C_9  and  C_10
REMARK   10  A    between atoms: C_10  and  C_11
REMARK   11  A    between atoms: C_11  and  O_12
REMARK   12  A    between atoms: O_12  and  C_13
REMARK   13  A    between atoms: C_13  and  C_15
REMARK   14  A    between atoms: C_15  and  C_16
REMARK   15  A    between atoms: C_16  and  C_17
REMARK   16  A    between atoms: C_17  and  C_18
REMARK   17  A    between atoms: N_20  and  CA_21
REMARK   18  A    between atoms: CA_21  and  C_22
REMARK   19  A    between atoms: CA_21  and  C_30
REMARK   20  A    between atoms: C_22  and  C_23
REMARK   21  A    between atoms: C_23  and  C_24
REMARK   22  A    between atoms: C_24  and  CA_25
REMARK   23  A    between atoms: CA_25  and  N_26
REMARK   24  A    between atoms: CA_25  and  C_27
REMARK   25  A    between atoms: C_27  and  OXT_29
REMARK   26  A    between atoms: C_30  and  OXT_32
REMARK                            x       y       z     vdW  Elec       q    Type
REMARK                         _______ _______ _______ _____ _____    ______ ____
ROOT
ATOM      1  C   UNL     1       1.825   9.607  18.334  0.00  0.00    +0.000 C 
ATOM      2  O   UNL     1       2.209  10.201  17.347  0.00  0.00    +0.000 OA
ATOM      3  N   UNL     1       0.981  10.130  19.311  0.00  0.00    +0.000 N 
ATOM      4  H   UNL     1       0.828   9.550  20.109  0.00  0.00    +0.000 HD
ENDROOT
BRANCH   3   5
ATOM      5  CA  UNL     1       0.472  11.536  19.306  0.00  0.00    +0.000 C 
BRANCH   5   6
ATOM      6  C   UNL     1       0.551  12.251  20.706  0.00  0.00    +0.000 C 
ATOM      7  O   UNL     1      -0.397  12.471  21.430  0.00  0.00    +0.000 OA
BRANCH   6   8
ATOM      8  OXT UNL     1       1.764  12.641  21.097  0.00  0.00    +0.000 OA
ATOM      9  HXT UNL     1       2.055  12.389  21.981  0.00  0.00    +0.000 HD
ENDBRANCH   6   8
ENDBRANCH   5   6
BRANCH   5  10
ATOM     10  C   UNL     1      -0.978  11.587  18.773  0.00  0.00    +0.000 C 
BRANCH  10  11
ATOM     11  C   UNL     1      -1.575  10.196  18.595  0.00  0.00    +0.000 C 
BRANCH  11  12
ATOM     12  C   UNL     1      -2.367   9.989  17.328  0.00  0.00    +0.000 C 
BRANCH  12  13
ATOM     13  CA  UNL     1      -3.054  11.297  16.892  0.00  0.00    +0.000 C 
BRANCH  13  14
ATOM     14  N   UNL     1      -3.218  11.410  15.406  0.00  0.00    +0.000 NA
ATOM     15  H1  UNL     1      -3.325  10.465  15.023  0.00  0.00    +0.000 HD
ATOM     16  H2  UNL     1      -2.330  11.734  15.011  0.00  0.00    +0.000 HD
ENDBRANCH  13  14
BRANCH  13  17
ATOM     17  C   UNL     1      -4.432  11.343  17.555  0.00  0.00    +0.000 C 
ATOM     18  O   UNL     1      -4.981  10.373  18.090  0.00  0.00    +0.000 OA
BRANCH  17  19
ATOM     19  OXT UNL     1      -5.025  12.566  17.500  0.00  0.00    +0.000 OA
ATOM     20  HXT UNL     1      -5.635  12.547  16.722  0.00  0.00    +0.000 HD
ENDBRANCH  17  19
ENDBRANCH  13  17
ENDBRANCH  12  13
ENDBRANCH  11  12
ENDBRANCH  10  11
ENDBRANCH   5  10
ENDBRANCH   3   5
BRANCH   1  21
ATOM     21  C   UNL     1       2.147   8.141  18.510  0.00  0.00    +0.000 C 
BRANCH  21  22
ATOM     22  C   UNL     1       2.830   7.605  17.249  0.00  0.00    +0.000 C 
BRANCH  22  23
ATOM     23  C   UNL     1       4.329   7.402  17.401  0.00  0.00    +0.000 C 
BRANCH  23  24
ATOM     24  C   UNL     1       4.889   6.476  16.337  0.00  0.00    +0.000 C 
ATOM     25  O   UNL     1       5.440   6.838  15.307  0.00  0.00    +0.000 OA
BRANCH  24  26
ATOM     26  O   UNL     1       4.715   5.173  16.711  0.00  0.00    +0.000 OA
BRANCH  26  27
ATOM     27  C   UNL     1       5.467   4.807  17.877  0.00  0.00    +0.000 C 
BRANCH  27  28
ATOM     28  C   UNL     1       4.816   3.666  18.647  0.00  0.00    +0.000 C 
BRANCH  28  29
ATOM     29  C   UNL     1       4.391   4.121  20.044  0.00  0.00    +0.000 C 
BRANCH  29  30
ATOM     30  C   UNL     1       3.352   5.231  19.965  0.00  0.00    +0.000 C 
BRANCH  30  31
ATOM     31  C   UNL     1       2.327   5.087  21.082  0.00  0.00    +0.000 C 
BRANCH  31  32
ATOM     32  C   UNL     1       2.298   3.653  21.587  0.00  0.00    +0.000 C 
BRANCH  32  33
ATOM     33  C   UNL     1       1.202   2.873  20.880  0.00  0.00    +0.000 C 
BRANCH  33  34
ATOM     34  C   UNL     1       1.811   1.771  20.029  0.00  0.00    +0.000 C 
BRANCH  34  35
ATOM     35  C   UNL     1       1.531   2.031  18.559  0.00  0.00    +0.000 C 
BRANCH  35  37
ATOM     36  C   UNL     1       1.361   4.244  17.426  0.00  0.00    +0.000 C 
ATOM     37  C   UNL     1       0.691   3.290  18.393  0.00  0.00    +0.000 C 
ENDBRANCH  35  37
ENDBRANCH  34  35
ENDBRANCH  33  34
ENDBRANCH  32  33
ENDBRANCH  31  32
ENDBRANCH  30  31
ENDBRANCH  29  30
ENDBRANCH  28  29
ENDBRANCH  27  28
ENDBRANCH  26  27
ENDBRANCH  24  26
ENDBRANCH  23  24
ENDBRANCH  22  23
ENDBRANCH  21  22
ENDBRANCH   1  21
TORSDOF 25
ENDMDL
