MODEL 1
REMARK VINA RESULT:      -8.1      0.000      0.000
REMARK  Name = 
REMARK  8 active torsions:
REMARK  status: ('A' for Active; 'I' for Inactive)
REMARK    1  A    between atoms: C_1  and  C_2
REMARK    2  A    between atoms: C_2  and  N_3
REMARK    3  A    between atoms: C_2  and  C_14
REMARK    4  A    between atoms: C_5  and  C_6
REMARK    5  A    between atoms: C_14  and  O_15
REMARK    6  A    between atoms: C_14  and  C_16
REMARK    7  A    between atoms: C_14  and  C_22
REMARK    8  A    between atoms: C_16  and  N_17
REMARK                            x       y       z     vdW  Elec       q    Type
REMARK                         _______ _______ _______ _____ _____    ______ ____
ROOT
ATOM      1  C   UNL     1       5.080   5.084  17.544  0.00  0.00    +0.000 C 
ENDROOT
BRANCH   1   2
ATOM      2  C   UNL     1       4.047   6.112  18.055  0.00  0.00    +0.000 A 
ATOM      3  C   UNL     1       3.675   7.231  17.280  0.00  0.00    +0.000 A 
ATOM      4  C   UNL     1       2.733   8.155  17.744  0.00  0.00    +0.000 A 
ATOM      5  C   UNL     1       2.131   7.961  18.978  0.00  0.00    +0.000 A 
ATOM      6  F   UNL     1       1.205   8.829  19.407  0.00  0.00    +0.000 F 
ATOM      7  C   UNL     1       2.485   6.888  19.776  0.00  0.00    +0.000 A 
ATOM      8  C   UNL     1       3.455   5.997  19.322  0.00  0.00    +0.000 A 
ATOM      9  F   UNL     1       3.822   5.006  20.146  0.00  0.00    +0.000 F 
ENDBRANCH   1   2
BRANCH   1  11
ATOM     10  C   UNL     1       7.175   4.882  15.907  0.00  0.00    +0.000 C 
ATOM     11  C   UNL     1       6.209   5.780  16.691  0.00  0.00    +0.000 C 
BRANCH  11  12
ATOM     12  N   UNL     1       7.000   6.719  17.497  0.00  0.00    +0.000 N 
ATOM     13  C   UNL     1       7.137   8.065  17.320  0.00  0.00    +0.000 A 
ATOM     14  C   UNL     1       8.086   8.428  18.247  0.00  0.00    +0.000 A 
ATOM     15  N   UNL     1       8.498   7.313  18.927  0.00  0.00    +0.000 NA
ATOM     16  N   UNL     1       7.831   6.269  18.459  0.00  0.00    +0.000 NA
BRANCH  14  17
ATOM     17  C   UNL     1       8.623   9.752  18.458  0.00  0.00    +0.000 A 
ATOM     18  C   UNL     1       9.486  10.052  19.518  0.00  0.00    +0.000 A 
ATOM     19  C   UNL     1       9.959  11.352  19.679  0.00  0.00    +0.000 A 
ATOM     20  C   UNL     1       9.554  12.318  18.773  0.00  0.00    +0.000 A 
ATOM     21  N   UNL     1       8.729  12.070  17.733  0.00  0.00    +0.000 NA
ATOM     22  C   UNL     1       8.291  10.793  17.597  0.00  0.00    +0.000 A 
ENDBRANCH  14  17
ENDBRANCH  11  12
ENDBRANCH   1  11
BRANCH   1  23
ATOM     23  O   UNL     1       5.790   4.575  18.710  0.00  0.00    +0.000 OA
ATOM     24  H   UNL     1       6.420   3.894  18.378  0.00  0.00    +0.000 HD
ENDBRANCH   1  23
BRANCH   1  25
ATOM     25  C   UNL     1       4.411   3.882  16.811  0.00  0.00    +0.000 C 
BRANCH  25  26
ATOM     26  N   UNL     1       3.350   3.238  17.574  0.00  0.00    +0.000 N 
ATOM     27  C   UNL     1       2.008   3.346  17.392  0.00  0.00    +0.000 A 
ATOM     28  N   UNL     1       1.387   2.571  18.253  0.00  0.00    +0.000 NA
ATOM     29  C   UNL     1       2.409   1.974  18.929  0.00  0.00    +0.000 A 
ATOM     30  N   UNL     1       3.636   2.333  18.537  0.00  0.00    +0.000 NA
ENDBRANCH  25  26
ENDBRANCH   1  25
TORSDOF 7
ENDMDL
MODEL 2
REMARK VINA RESULT:      -8.0      0.891      1.260
REMARK  Name = 
REMARK  8 active torsions:
REMARK  status: ('A' for Active; 'I' for Inactive)
REMARK    1  A    between atoms: C_1  and  C_2
REMARK    2  A    between atoms: C_2  and  N_3
REMARK    3  A    between atoms: C_2  and  C_14
REMARK    4  A    between atoms: C_5  and  C_6
REMARK    5  A    between atoms: C_14  and  O_15
REMARK    6  A    between atoms: C_14  and  C_16
REMARK    7  A    between atoms: C_14  and  C_22
REMARK    8  A    between atoms: C_16  and  N_17
REMARK                            x       y       z     vdW  Elec       q    Type
REMARK                         _______ _______ _______ _____ _____    ______ ____
ROOT
ATOM      1  C   UNL     1       5.223   4.955  17.667  0.00  0.00    +0.000 C 
ENDROOT
BRANCH   1   2
ATOM      2  C   UNL     1       4.162   5.985  18.113  0.00  0.00    +0.000 A 
ATOM      3  C   UNL     1       3.531   5.895  19.372  0.00  0.00    +0.000 A 
ATOM      4  C   UNL     1       2.576   6.836  19.775  0.00  0.00    +0.000 A 
ATOM      5  C   UNL     1       2.256   7.892  18.935  0.00  0.00    +0.000 A 
ATOM      6  F   UNL     1       1.367   8.810  19.336  0.00  0.00    +0.000 F 
ATOM      7  C   UNL     1       2.838   8.002  17.685  0.00  0.00    +0.000 A 
ATOM      8  C   UNL     1       3.756   7.037  17.277  0.00  0.00    +0.000 A 
ATOM      9  F   UNL     1       4.251   7.136  16.037  0.00  0.00    +0.000 F 
ENDBRANCH   1   2
BRANCH   1  11
ATOM     10  C   UNL     1       7.368   4.726  16.102  0.00  0.00    +0.000 C 
ATOM     11  C   UNL     1       6.361   5.637  16.817  0.00  0.00    +0.000 C 
BRANCH  11  12
ATOM     12  N   UNL     1       7.108   6.628  17.602  0.00  0.00    +0.000 N 
ATOM     13  C   UNL     1       7.227   7.966  17.365  0.00  0.00    +0.000 A 
ATOM     14  C   UNL     1       8.139   8.391  18.303  0.00  0.00    +0.000 A 
ATOM     15  N   UNL     1       8.548   7.317  19.049  0.00  0.00    +0.000 NA
ATOM     16  N   UNL     1       7.916   6.240  18.610  0.00  0.00    +0.000 NA
BRANCH  14  17
ATOM     17  C   UNL     1       8.645   9.733  18.469  0.00  0.00    +0.000 A 
ATOM     18  C   UNL     1       9.523  10.083  19.500  0.00  0.00    +0.000 A 
ATOM     19  C   UNL     1       9.965  11.400  19.617  0.00  0.00    +0.000 A 
ATOM     20  C   UNL     1       9.513  12.331  18.696  0.00  0.00    +0.000 A 
ATOM     21  N   UNL     1       8.672  12.034  17.683  0.00  0.00    +0.000 NA
ATOM     22  C   UNL     1       8.265  10.743  17.590  0.00  0.00    +0.000 A 
ENDBRANCH  14  17
ENDBRANCH  11  12
ENDBRANCH   1  11
BRANCH   1  23
ATOM     23  O   UNL     1       5.911   4.501  18.869  0.00  0.00    +0.000 OA
ATOM     24  H   UNL     1       6.864   4.718  18.744  0.00  0.00    +0.000 HD
ENDBRANCH   1  23
BRANCH   1  25
ATOM     25  C   UNL     1       4.590   3.716  16.964  0.00  0.00    +0.000 C 
BRANCH  25  26
ATOM     26  N   UNL     1       3.550   3.058  17.743  0.00  0.00    +0.000 N 
ATOM     27  C   UNL     1       2.222   2.982  17.465  0.00  0.00    +0.000 A 
ATOM     28  N   UNL     1       1.624   2.260  18.386  0.00  0.00    +0.000 NA
ATOM     29  C   UNL     1       2.649   1.884  19.202  0.00  0.00    +0.000 A 
ATOM     30  N   UNL     1       3.856   2.330  18.840  0.00  0.00    +0.000 NA
ENDBRANCH  25  26
ENDBRANCH   1  25
TORSDOF 7
ENDMDL
MODEL 3
REMARK VINA RESULT:      -7.6      3.303      6.148
REMARK  Name = 
REMARK  8 active torsions:
REMARK  status: ('A' for Active; 'I' for Inactive)
REMARK    1  A    between atoms: C_1  and  C_2
REMARK    2  A    between atoms: C_2  and  N_3
REMARK    3  A    between atoms: C_2  and  C_14
REMARK    4  A    between atoms: C_5  and  C_6
REMARK    5  A    between atoms: C_14  and  O_15
REMARK    6  A    between atoms: C_14  and  C_16
REMARK    7  A    between atoms: C_14  and  C_22
REMARK    8  A    between atoms: C_16  and  N_17
REMARK                            x       y       z     vdW  Elec       q    Type
REMARK                         _______ _______ _______ _____ _____    ______ ____
ROOT
ATOM      1  C   UNL     1       5.581   5.479  16.699  0.00  0.00    +0.000 C 
ENDROOT
BRANCH   1   2
ATOM      2  C   UNL     1       6.604   6.422  17.370  0.00  0.00    +0.000 A 
ATOM      3  C   UNL     1       6.768   7.756  16.942  0.00  0.00    +0.000 A 
ATOM      4  C   UNL     1       7.690   8.609  17.559  0.00  0.00    +0.000 A 
ATOM      5  C   UNL     1       8.444   8.147  18.628  0.00  0.00    +0.000 A 
ATOM      6  F   UNL     1       9.302   8.974  19.238  0.00  0.00    +0.000 F 
ATOM      7  C   UNL     1       8.326   6.839  19.063  0.00  0.00    +0.000 A 
ATOM      8  C   UNL     1       7.435   5.987  18.415  0.00  0.00    +0.000 A 
ATOM      9  F   UNL     1       7.393   4.710  18.818  0.00  0.00    +0.000 F 
ENDBRANCH   1   2
BRANCH   1  11
ATOM     10  C   UNL     1       3.377   4.078  17.234  0.00  0.00    +0.000 C 
ATOM     11  C   UNL     1       4.375   5.162  17.664  0.00  0.00    +0.000 C 
BRANCH  11  12
ATOM     12  N   UNL     1       3.623   6.374  18.012  0.00  0.00    +0.000 N 
ATOM     13  C   UNL     1       2.989   6.657  19.187  0.00  0.00    +0.000 A 
ATOM     14  C   UNL     1       2.331   7.838  18.934  0.00  0.00    +0.000 A 
ATOM     15  N   UNL     1       2.566   8.214  17.638  0.00  0.00    +0.000 NA
ATOM     16  N   UNL     1       3.354   7.309  17.078  0.00  0.00    +0.000 NA
BRANCH  14  17
ATOM     17  C   UNL     1       1.479   8.563  19.847  0.00  0.00    +0.000 A 
ATOM     18  C   UNL     1       1.176   8.091  21.129  0.00  0.00    +0.000 A 
ATOM     19  C   UNL     1       0.335   8.829  21.958  0.00  0.00    +0.000 A 
ATOM     20  C   UNL     1      -0.182  10.022  21.480  0.00  0.00    +0.000 A 
ATOM     21  N   UNL     1       0.091  10.517  20.254  0.00  0.00    +0.000 NA
ATOM     22  C   UNL     1       0.919   9.781  19.472  0.00  0.00    +0.000 A 
ENDBRANCH  14  17
ENDBRANCH  11  12
ENDBRANCH   1  11
BRANCH   1  23
ATOM     23  O   UNL     1       4.966   6.222  15.607  0.00  0.00    +0.000 OA
ATOM     24  H   UNL     1       5.156   7.174  15.775  0.00  0.00    +0.000 HD
ENDBRANCH   1  23
BRANCH   1  25
ATOM     25  C   UNL     1       6.249   4.200  16.110  0.00  0.00    +0.000 C 
BRANCH  25  26
ATOM     26  N   UNL     1       6.683   4.340  14.727  0.00  0.00    +0.000 N 
ATOM     27  C   UNL     1       6.211   3.686  13.633  0.00  0.00    +0.000 A 
ATOM     28  N   UNL     1       6.829   4.127  12.561  0.00  0.00    +0.000 NA
ATOM     29  C   UNL     1       7.661   5.089  13.053  0.00  0.00    +0.000 A 
ATOM     30  N   UNL     1       7.595   5.274  14.375  0.00  0.00    +0.000 NA
ENDBRANCH  25  26
ENDBRANCH   1  25
TORSDOF 7
ENDMDL
MODEL 4
REMARK VINA RESULT:      -7.3      5.816      8.387
REMARK  Name = 
REMARK  8 active torsions:
REMARK  status: ('A' for Active; 'I' for Inactive)
REMARK    1  A    between atoms: C_1  and  C_2
REMARK    2  A    between atoms: C_2  and  N_3
REMARK    3  A    between atoms: C_2  and  C_14
REMARK    4  A    between atoms: C_5  and  C_6
REMARK    5  A    between atoms: C_14  and  O_15
REMARK    6  A    between atoms: C_14  and  C_16
REMARK    7  A    between atoms: C_14  and  C_22
REMARK    8  A    between atoms: C_16  and  N_17
REMARK                            x       y       z     vdW  Elec       q    Type
REMARK                         _______ _______ _______ _____ _____    ______ ____
ROOT
ATOM      1  C   UNL     1      -0.776  11.239  19.344  0.00  0.00    +0.000 C 
ENDROOT
BRANCH   1   2
ATOM      2  C   UNL     1      -1.392  11.726  20.674  0.00  0.00    +0.000 A 
ATOM      3  C   UNL     1      -2.311  12.797  20.712  0.00  0.00    +0.000 A 
ATOM      4  C   UNL     1      -2.872  13.229  21.919  0.00  0.00    +0.000 A 
ATOM      5  C   UNL     1      -2.542  12.582  23.101  0.00  0.00    +0.000 A 
ATOM      6  F   UNL     1      -3.106  12.976  24.250  0.00  0.00    +0.000 F 
ATOM      7  C   UNL     1      -1.629  11.543  23.106  0.00  0.00    +0.000 A 
ATOM      8  C   UNL     1      -1.045  11.148  21.905  0.00  0.00    +0.000 A 
ATOM      9  F   UNL     1      -0.117  10.182  21.954  0.00  0.00    +0.000 F 
ENDBRANCH   1   2
BRANCH   1  11
ATOM     10  C   UNL     1       1.586  12.343  18.789  0.00  0.00    +0.000 C 
ATOM     11  C   UNL     1       0.797  11.191  19.425  0.00  0.00    +0.000 C 
BRANCH  11  12
ATOM     12  N   UNL     1       1.331   9.924  18.910  0.00  0.00    +0.000 N 
ATOM     13  C   UNL     1       1.645   8.799  19.615  0.00  0.00    +0.000 A 
ATOM     14  C   UNL     1       2.230   7.973  18.683  0.00  0.00    +0.000 A 
ATOM     15  N   UNL     1       2.267   8.617  17.475  0.00  0.00    +0.000 NA
ATOM     16  N   UNL     1       1.718   9.813  17.623  0.00  0.00    +0.000 NA
BRANCH  14  17
ATOM     17  C   UNL     1       2.775   6.657  18.918  0.00  0.00    +0.000 A 
ATOM     18  C   UNL     1       2.294   5.813  19.924  0.00  0.00    +0.000 A 
ATOM     19  C   UNL     1       2.872   4.559  20.112  0.00  0.00    +0.000 A 
ATOM     20  C   UNL     1       3.918   4.185  19.284  0.00  0.00    +0.000 A 
ATOM     21  N   UNL     1       4.407   4.965  18.297  0.00  0.00    +0.000 NA
ATOM     22  C   UNL     1       3.820   6.176  18.133  0.00  0.00    +0.000 A 
ENDBRANCH  14  17
ENDBRANCH  11  12
ENDBRANCH   1  11
BRANCH   1  23
ATOM     23  O   UNL     1      -1.159   9.842  19.182  0.00  0.00    +0.000 OA
ATOM     24  H   UNL     1      -2.136   9.804  19.301  0.00  0.00    +0.000 HD
ENDBRANCH   1  23
BRANCH   1  25
ATOM     25  C   UNL     1      -1.303  12.040  18.116  0.00  0.00    +0.000 C 
BRANCH  25  26
ATOM     26  N   UNL     1      -2.339  11.351  17.357  0.00  0.00    +0.000 N 
ATOM     27  C   UNL     1      -3.675  11.598  17.353  0.00  0.00    +0.000 A 
ATOM     28  N   UNL     1      -4.266  10.793  16.500  0.00  0.00    +0.000 NA
ATOM     29  C   UNL     1      -3.229  10.081  15.974  0.00  0.00    +0.000 A 
ATOM     30  N   UNL     1      -2.021  10.399  16.451  0.00  0.00    +0.000 NA
ENDBRANCH  25  26
ENDBRANCH   1  25
TORSDOF 7
ENDMDL
MODEL 5
REMARK VINA RESULT:      -7.3      2.840      5.589
REMARK  Name = 
REMARK  8 active torsions:
REMARK  status: ('A' for Active; 'I' for Inactive)
REMARK    1  A    between atoms: C_1  and  C_2
REMARK    2  A    between atoms: C_2  and  N_3
REMARK    3  A    between atoms: C_2  and  C_14
REMARK    4  A    between atoms: C_5  and  C_6
REMARK    5  A    between atoms: C_14  and  O_15
REMARK    6  A    between atoms: C_14  and  C_16
REMARK    7  A    between atoms: C_14  and  C_22
REMARK    8  A    between atoms: C_16  and  N_17
REMARK                            x       y       z     vdW  Elec       q    Type
REMARK                         _______ _______ _______ _____ _____    ______ ____
ROOT
ATOM      1  C   UNL     1       5.211   4.526  18.335  0.00  0.00    +0.000 C 
ENDROOT
BRANCH   1   2
ATOM      2  C   UNL     1       4.239   5.725  18.403  0.00  0.00    +0.000 A 
ATOM      3  C   UNL     1       4.214   6.712  17.396  0.00  0.00    +0.000 A 
ATOM      4  C   UNL     1       3.326   7.791  17.458  0.00  0.00    +0.000 A 
ATOM      5  C   UNL     1       2.434   7.887  18.516  0.00  0.00    +0.000 A 
ATOM      6  F   UNL     1       1.562   8.902  18.558  0.00  0.00    +0.000 F 
ATOM      7  C   UNL     1       2.443   6.949  19.534  0.00  0.00    +0.000 A 
ATOM      8  C   UNL     1       3.359   5.902  19.482  0.00  0.00    +0.000 A 
ATOM      9  F   UNL     1       3.385   5.049  20.515  0.00  0.00    +0.000 F 
ENDBRANCH   1   2
BRANCH   1  11
ATOM     10  C   UNL     1       7.178   6.313  18.123  0.00  0.00    +0.000 C 
ATOM     11  C   UNL     1       6.600   4.949  17.723  0.00  0.00    +0.000 C 
BRANCH  11  12
ATOM     12  N   UNL     1       6.601   4.858  16.257  0.00  0.00    +0.000 N 
ATOM     13  C   UNL     1       5.885   4.003  15.471  0.00  0.00    +0.000 A 
ATOM     14  C   UNL     1       6.359   4.239  14.202  0.00  0.00    +0.000 A 
ATOM     15  N   UNL     1       7.339   5.195  14.261  0.00  0.00    +0.000 NA
ATOM     16  N   UNL     1       7.484   5.566  15.524  0.00  0.00    +0.000 NA
BRANCH  14  17
ATOM     17  C   UNL     1       5.952   3.569  12.990  0.00  0.00    +0.000 A 
ATOM     18  C   UNL     1       4.664   3.695  12.458  0.00  0.00    +0.000 A 
ATOM     19  C   UNL     1       4.325   3.011  11.293  0.00  0.00    +0.000 A 
ATOM     20  C   UNL     1       5.289   2.218  10.691  0.00  0.00    +0.000 A 
ATOM     21  N   UNL     1       6.544   2.075  11.166  0.00  0.00    +0.000 NA
ATOM     22  C   UNL     1       6.847   2.760  12.297  0.00  0.00    +0.000 A 
ENDBRANCH  14  17
ENDBRANCH  11  12
ENDBRANCH   1  11
BRANCH   1  23
ATOM     23  O   UNL     1       5.533   4.158  19.707  0.00  0.00    +0.000 OA
ATOM     24  H   UNL     1       5.968   3.275  19.665  0.00  0.00    +0.000 HD
ENDBRANCH   1  23
BRANCH   1  25
ATOM     25  C   UNL     1       4.580   3.289  17.628  0.00  0.00    +0.000 C 
BRANCH  25  26
ATOM     26  N   UNL     1       3.273   2.911  18.148  0.00  0.00    +0.000 N 
ATOM     27  C   UNL     1       2.058   3.096  17.567  0.00  0.00    +0.000 A 
ATOM     28  N   UNL     1       1.125   2.572  18.329  0.00  0.00    +0.000 NA
ATOM     29  C   UNL     1       1.832   2.040  19.367  0.00  0.00    +0.000 A 
ATOM     30  N   UNL     1       3.157   2.202  19.293  0.00  0.00    +0.000 NA
ENDBRANCH  25  26
ENDBRANCH   1  25
TORSDOF 7
ENDMDL
MODEL 6
REMARK VINA RESULT:      -7.3      7.114     10.290
REMARK  Name = 
REMARK  8 active torsions:
REMARK  status: ('A' for Active; 'I' for Inactive)
REMARK    1  A    between atoms: C_1  and  C_2
REMARK    2  A    between atoms: C_2  and  N_3
REMARK    3  A    between atoms: C_2  and  C_14
REMARK    4  A    between atoms: C_5  and  C_6
REMARK    5  A    between atoms: C_14  and  O_15
REMARK    6  A    between atoms: C_14  and  C_16
REMARK    7  A    between atoms: C_14  and  C_22
REMARK    8  A    between atoms: C_16  and  N_17
REMARK                            x       y       z     vdW  Elec       q    Type
REMARK                         _______ _______ _______ _____ _____    ______ ____
ROOT
ATOM      1  C   UNL     1       0.353  10.239  19.706  0.00  0.00    +0.000 C 
ENDROOT
BRANCH   1   2
ATOM      2  C   UNL     1       1.282   9.083  19.275  0.00  0.00    +0.000 A 
ATOM      3  C   UNL     1       1.869   9.048  17.992  0.00  0.00    +0.000 A 
ATOM      4  C   UNL     1       2.717   8.002  17.610  0.00  0.00    +0.000 A 
ATOM      5  C   UNL     1       3.009   6.990  18.511  0.00  0.00    +0.000 A 
ATOM      6  F   UNL     1       3.847   6.008  18.155  0.00  0.00    +0.000 F 
ATOM      7  C   UNL     1       2.437   6.979  19.771  0.00  0.00    +0.000 A 
ATOM      8  C   UNL     1       1.562   8.003  20.127  0.00  0.00    +0.000 A 
ATOM      9  F   UNL     1       0.975   7.927  21.328  0.00  0.00    +0.000 F 
ENDBRANCH   1   2
BRANCH   1  11
ATOM     10  C   UNL     1       0.378  12.660  18.591  0.00  0.00    +0.000 C 
ATOM     11  C   UNL     1       0.001  11.176  18.489  0.00  0.00    +0.000 C 
BRANCH  11  12
ATOM     12  N   UNL     1      -1.417  11.082  18.121  0.00  0.00    +0.000 N 
ATOM     13  C   UNL     1      -2.434  11.913  18.490  0.00  0.00    +0.000 A 
ATOM     14  C   UNL     1      -3.562  11.299  17.997  0.00  0.00    +0.000 A 
ATOM     15  N   UNL     1      -3.202  10.133  17.375  0.00  0.00    +0.000 NA
ATOM     16  N   UNL     1      -1.886  10.005  17.459  0.00  0.00    +0.000 NA
BRANCH  14  17
ATOM     17  C   UNL     1      -4.925  11.755  18.139  0.00  0.00    +0.000 A 
ATOM     18  C   UNL     1      -5.640  11.623  19.334  0.00  0.00    +0.000 A 
ATOM     19  C   UNL     1      -6.959  12.068  19.405  0.00  0.00    +0.000 A 
ATOM     20  C   UNL     1      -7.525  12.634  18.274  0.00  0.00    +0.000 A 
ATOM     21  N   UNL     1      -6.868  12.786  17.105  0.00  0.00    +0.000 NA
ATOM     22  C   UNL     1      -5.584  12.351  17.068  0.00  0.00    +0.000 A 
ENDBRANCH  14  17
ENDBRANCH  11  12
ENDBRANCH   1  11
BRANCH   1  23
ATOM     23  O   UNL     1      -0.928   9.645  20.069  0.00  0.00    +0.000 OA
ATOM     24  H   UNL     1      -1.614  10.120  19.545  0.00  0.00    +0.000 HD
ENDBRANCH   1  23
BRANCH   1  25
ATOM     25  C   UNL     1       0.903  11.015  20.940  0.00  0.00    +0.000 C 
BRANCH  25  26
ATOM     26  N   UNL     1      -0.125  11.449  21.876  0.00  0.00    +0.000 N 
ATOM     27  C   UNL     1      -0.680  12.683  21.994  0.00  0.00    +0.000 A 
ATOM     28  N   UNL     1      -1.608  12.659  22.924  0.00  0.00    +0.000 NA
ATOM     29  C   UNL     1      -1.608  11.357  23.330  0.00  0.00    +0.000 A 
ATOM     30  N   UNL     1      -0.730  10.567  22.703  0.00  0.00    +0.000 NA
ENDBRANCH  25  26
ENDBRANCH   1  25
TORSDOF 7
ENDMDL
MODEL 7
REMARK VINA RESULT:      -7.2      3.274      6.008
REMARK  Name = 
REMARK  8 active torsions:
REMARK  status: ('A' for Active; 'I' for Inactive)
REMARK    1  A    between atoms: C_1  and  C_2
REMARK    2  A    between atoms: C_2  and  N_3
REMARK    3  A    between atoms: C_2  and  C_14
REMARK    4  A    between atoms: C_5  and  C_6
REMARK    5  A    between atoms: C_14  and  O_15
REMARK    6  A    between atoms: C_14  and  C_16
REMARK    7  A    between atoms: C_14  and  C_22
REMARK    8  A    between atoms: C_16  and  N_17
REMARK                            x       y       z     vdW  Elec       q    Type
REMARK                         _______ _______ _______ _____ _____    ______ ____
ROOT
ATOM      1  C   UNL     1       5.381   4.520  16.448  0.00  0.00    +0.000 C 
ENDROOT
BRANCH   1   2
ATOM      2  C   UNL     1       6.330   5.487  17.190  0.00  0.00    +0.000 A 
ATOM      3  C   UNL     1       7.219   5.028  18.185  0.00  0.00    +0.000 A 
ATOM      4  C   UNL     1       8.083   5.907  18.848  0.00  0.00    +0.000 A 
ATOM      5  C   UNL     1       8.087   7.252  18.509  0.00  0.00    +0.000 A 
ATOM      6  F   UNL     1       8.938   8.086  19.121  0.00  0.00    +0.000 F 
ATOM      7  C   UNL     1       7.216   7.743  17.553  0.00  0.00    +0.000 A 
ATOM      8  C   UNL     1       6.332   6.866  16.929  0.00  0.00    +0.000 A 
ATOM      9  F   UNL     1       5.457   7.384  16.056  0.00  0.00    +0.000 F 
ENDBRANCH   1   2
BRANCH   1  11
ATOM     10  C   UNL     1       3.244   2.975  16.837  0.00  0.00    +0.000 C 
ATOM     11  C   UNL     1       4.330   3.881  17.433  0.00  0.00    +0.000 C 
BRANCH  11  12
ATOM     12  N   UNL     1       3.678   4.897  18.268  0.00  0.00    +0.000 N 
ATOM     13  C   UNL     1       2.959   5.982  17.859  0.00  0.00    +0.000 A 
ATOM     14  C   UNL     1       2.701   6.670  19.022  0.00  0.00    +0.000 A 
ATOM     15  N   UNL     1       3.275   6.004  20.073  0.00  0.00    +0.000 NA
ATOM     16  N   UNL     1       3.875   4.922  19.602  0.00  0.00    +0.000 NA
BRANCH  14  17
ATOM     17  C   UNL     1       1.990   7.921  19.146  0.00  0.00    +0.000 A 
ATOM     18  C   UNL     1       1.818   8.797  18.068  0.00  0.00    +0.000 A 
ATOM     19  C   UNL     1       1.135   9.997  18.254  0.00  0.00    +0.000 A 
ATOM     20  C   UNL     1       0.644  10.287  19.517  0.00  0.00    +0.000 A 
ATOM     21  N   UNL     1       0.781   9.467  20.580  0.00  0.00    +0.000 NA
ATOM     22  C   UNL     1       1.443   8.303  20.367  0.00  0.00    +0.000 A 
ENDBRANCH  14  17
ENDBRANCH  11  12
ENDBRANCH   1  11
BRANCH   1  23
ATOM     23  O   UNL     1       4.568   5.327  15.547  0.00  0.00    +0.000 OA
ATOM     24  H   UNL     1       3.686   5.421  15.976  0.00  0.00    +0.000 HD
ENDBRANCH   1  23
BRANCH   1  25
ATOM     25  C   UNL     1       6.152   3.463  15.602  0.00  0.00    +0.000 C 
BRANCH  25  26
ATOM     26  N   UNL     1       6.646   3.966  14.328  0.00  0.00    +0.000 N 
ATOM     27  C   UNL     1       6.308   3.552  13.078  0.00  0.00    +0.000 A 
ATOM     28  N   UNL     1       6.934   4.289  12.189  0.00  0.00    +0.000 NA
ATOM     29  C   UNL     1       7.630   5.178  12.954  0.00  0.00    +0.000 A 
ATOM     30  N   UNL     1       7.470   5.036  14.274  0.00  0.00    +0.000 NA
ENDBRANCH  25  26
ENDBRANCH   1  25
TORSDOF 7
ENDMDL
MODEL 8
REMARK VINA RESULT:      -7.1      3.458      6.450
REMARK  Name = 
REMARK  8 active torsions:
REMARK  status: ('A' for Active; 'I' for Inactive)
REMARK    1  A    between atoms: C_1  and  C_2
REMARK    2  A    between atoms: C_2  and  N_3
REMARK    3  A    between atoms: C_2  and  C_14
REMARK    4  A    between atoms: C_5  and  C_6
REMARK    5  A    between atoms: C_14  and  O_15
REMARK    6  A    between atoms: C_14  and  C_16
REMARK    7  A    between atoms: C_14  and  C_22
REMARK    8  A    between atoms: C_16  and  N_17
REMARK                            x       y       z     vdW  Elec       q    Type
REMARK                         _______ _______ _______ _____ _____    ______ ____
ROOT
ATOM      1  C   UNL     1       3.868   5.698  18.430  0.00  0.00    +0.000 C 
ENDROOT
BRANCH   1   2
ATOM      2  C   UNL     1       3.020   4.417  18.593  0.00  0.00    +0.000 A 
ATOM      3  C   UNL     1       1.714   4.326  18.068  0.00  0.00    +0.000 A 
ATOM      4  C   UNL     1       0.954   3.160  18.211  0.00  0.00    +0.000 A 
ATOM      5  C   UNL     1       1.497   2.061  18.860  0.00  0.00    +0.000 A 
ATOM      6  F   UNL     1       0.780   0.935  18.967  0.00  0.00    +0.000 F 
ATOM      7  C   UNL     1       2.767   2.120  19.407  0.00  0.00    +0.000 A 
ATOM      8  C   UNL     1       3.499   3.299  19.294  0.00  0.00    +0.000 A 
ATOM      9  F   UNL     1       4.697   3.345  19.891  0.00  0.00    +0.000 F 
ENDBRANCH   1   2
BRANCH   1  11
ATOM     10  C   UNL     1       3.649   8.135  17.371  0.00  0.00    +0.000 C 
ATOM     11  C   UNL     1       2.970   6.935  18.044  0.00  0.00    +0.000 C 
BRANCH  11  12
ATOM     12  N   UNL     1       2.194   7.424  19.191  0.00  0.00    +0.000 N 
ATOM     13  C   UNL     1       1.662   8.667  19.373  0.00  0.00    +0.000 A 
ATOM     14  C   UNL     1       1.169   8.634  20.657  0.00  0.00    +0.000 A 
ATOM     15  N   UNL     1       1.428   7.406  21.205  0.00  0.00    +0.000 NA
ATOM     16  N   UNL     1       2.061   6.672  20.303  0.00  0.00    +0.000 NA
BRANCH  14  17
ATOM     17  C   UNL     1       0.525   9.717  21.362  0.00  0.00    +0.000 A 
ATOM     18  C   UNL     1      -0.364   9.501  22.420  0.00  0.00    +0.000 A 
ATOM     19  C   UNL     1      -0.968  10.587  23.051  0.00  0.00    +0.000 A 
ATOM     20  C   UNL     1      -0.663  11.862  22.603  0.00  0.00    +0.000 A 
ATOM     21  N   UNL     1       0.195  12.115  21.591  0.00  0.00    +0.000 NA
ATOM     22  C   UNL     1       0.772  11.039  21.002  0.00  0.00    +0.000 A 
ENDBRANCH  14  17
ENDBRANCH  11  12
ENDBRANCH   1  11
BRANCH   1  23
ATOM     23  O   UNL     1       4.383   6.041  19.749  0.00  0.00    +0.000 OA
ATOM     24  H   UNL     1       3.654   6.506  20.222  0.00  0.00    +0.000 HD
ENDBRANCH   1  23
BRANCH   1  25
ATOM     25  C   UNL     1       5.076   5.493  17.468  0.00  0.00    +0.000 C 
BRANCH  25  26
ATOM     26  N   UNL     1       6.364   5.854  18.046  0.00  0.00    +0.000 N 
ATOM     27  C   UNL     1       7.110   6.961  17.796  0.00  0.00    +0.000 A 
ATOM     28  N   UNL     1       8.185   6.944  18.552  0.00  0.00    +0.000 NA
ATOM     29  C   UNL     1       8.032   5.804  19.284  0.00  0.00    +0.000 A 
ATOM     30  N   UNL     1       6.920   5.108  19.027  0.00  0.00    +0.000 NA
ENDBRANCH  25  26
ENDBRANCH   1  25
TORSDOF 7
ENDMDL
MODEL 9
REMARK VINA RESULT:      -7.1      3.262      5.875
REMARK  Name = 
REMARK  8 active torsions:
REMARK  status: ('A' for Active; 'I' for Inactive)
REMARK    1  A    between atoms: C_1  and  C_2
REMARK    2  A    between atoms: C_2  and  N_3
REMARK    3  A    between atoms: C_2  and  C_14
REMARK    4  A    between atoms: C_5  and  C_6
REMARK    5  A    between atoms: C_14  and  O_15
REMARK    6  A    between atoms: C_14  and  C_16
REMARK    7  A    between atoms: C_14  and  C_22
REMARK    8  A    between atoms: C_16  and  N_17
REMARK                            x       y       z     vdW  Elec       q    Type
REMARK                         _______ _______ _______ _____ _____    ______ ____
ROOT
ATOM      1  C   UNL     1       5.628   4.703  16.657  0.00  0.00    +0.000 C 
ENDROOT
BRANCH   1   2
ATOM      2  C   UNL     1       6.539   5.785  17.277  0.00  0.00    +0.000 A 
ATOM      3  C   UNL     1       6.483   7.129  16.852  0.00  0.00    +0.000 A 
ATOM      4  C   UNL     1       7.305   8.107  17.424  0.00  0.00    +0.000 A 
ATOM      5  C   UNL     1       8.177   7.760  18.444  0.00  0.00    +0.000 A 
ATOM      6  F   UNL     1       8.939   8.703  19.012  0.00  0.00    +0.000 F 
ATOM      7  C   UNL     1       8.276   6.448  18.873  0.00  0.00    +0.000 A 
ATOM      8  C   UNL     1       7.483   5.476  18.269  0.00  0.00    +0.000 A 
ATOM      9  F   UNL     1       7.650   4.206  18.663  0.00  0.00    +0.000 F 
ENDBRANCH   1   2
BRANCH   1  11
ATOM     10  C   UNL     1       3.849   2.834  17.326  0.00  0.00    +0.000 C 
ATOM     11  C   UNL     1       4.710   4.032  17.748  0.00  0.00    +0.000 C 
BRANCH  11  12
ATOM     12  N   UNL     1       3.845   5.014  18.412  0.00  0.00    +0.000 N 
ATOM     13  C   UNL     1       3.360   6.184  17.901  0.00  0.00    +0.000 A 
ATOM     14  C   UNL     1       2.734   6.781  18.971  0.00  0.00    +0.000 A 
ATOM     15  N   UNL     1       2.872   5.981  20.074  0.00  0.00    +0.000 NA
ATOM     16  N   UNL     1       3.558   4.903  19.725  0.00  0.00    +0.000 NA
BRANCH  14  17
ATOM     17  C   UNL     1       2.075   8.065  18.978  0.00  0.00    +0.000 A 
ATOM     18  C   UNL     1       2.018   8.886  17.847  0.00  0.00    +0.000 A 
ATOM     19  C   UNL     1       1.380  10.123  17.920  0.00  0.00    +0.000 A 
ATOM     20  C   UNL     1       0.816  10.503  19.127  0.00  0.00    +0.000 A 
ATOM     21  N   UNL     1       0.843   9.738  20.239  0.00  0.00    +0.000 NA
ATOM     22  C   UNL     1       1.463   8.537  20.135  0.00  0.00    +0.000 A 
ENDBRANCH  14  17
ENDBRANCH  11  12
ENDBRANCH   1  11
BRANCH   1  23
ATOM     23  O   UNL     1       4.684   5.389  15.783  0.00  0.00    +0.000 OA
ATOM     24  H   UNL     1       4.501   4.776  15.034  0.00  0.00    +0.000 HD
ENDBRANCH   1  23
BRANCH   1  25
ATOM     25  C   UNL     1       6.426   3.670  15.805  0.00  0.00    +0.000 C 
BRANCH  25  26
ATOM     26  N   UNL     1       6.785   4.146  14.477  0.00  0.00    +0.000 N 
ATOM     27  C   UNL     1       6.300   3.725  13.279  0.00  0.00    +0.000 A 
ATOM     28  N   UNL     1       6.839   4.436  12.315  0.00  0.00    +0.000 NA
ATOM     29  C   UNL     1       7.637   5.316  12.984  0.00  0.00    +0.000 A 
ATOM     30  N   UNL     1       7.624   5.195  14.316  0.00  0.00    +0.000 NA
ENDBRANCH  25  26
ENDBRANCH   1  25
TORSDOF 7
ENDMDL
