MODEL 1
REMARK VINA RESULT:      -7.2      0.000      0.000
REMARK  Name = 
REMARK  4 active torsions:
REMARK  status: ('A' for Active; 'I' for Inactive)
REMARK    1  A    between atoms: C_2  and  C_14
REMARK    2  A    between atoms: N_3  and  C_4
REMARK    3  A    between atoms: C_8  and  C_9
REMARK    4  A    between atoms: C_18  and  O_19
REMARK                            x       y       z     vdW  Elec       q    Type
REMARK                         _______ _______ _______ _____ _____    ______ ____
ROOT
ATOM      1  O   UNL     1       3.381   5.384  17.450  0.00  0.00    +0.000 OA
ATOM      2  C   UNL     1       3.806   4.338  17.925  0.00  0.00    +0.000 C 
ATOM      3  N   UNL     1       4.888   3.622  17.421  0.00  0.00    +0.000 N 
ATOM      4  H   UNL     1       5.032   2.701  17.826  0.00  0.00    +0.000 HD
ENDROOT
BRANCH   3   5
ATOM      5  C   UNL     1       5.702   4.018  16.337  0.00  0.00    +0.000 A 
ATOM      6  C   UNL     1       6.801   4.869  16.493  0.00  0.00    +0.000 A 
ATOM      7  C   UNL     1       7.565   5.267  15.398  0.00  0.00    +0.000 A 
ATOM      8  C   UNL     1       7.239   4.819  14.123  0.00  0.00    +0.000 A 
ATOM      9  C   UNL     1       6.153   3.952  13.936  0.00  0.00    +0.000 A 
ATOM     10  C   UNL     1       5.400   3.538  15.056  0.00  0.00    +0.000 A 
BRANCH   9  11
ATOM     11  C   UNL     1       5.779   3.493  12.548  0.00  0.00    +0.000 C 
ATOM     12  F   UNL     1       5.916   2.148  12.364  0.00  0.00    +0.000 F 
ATOM     13  F   UNL     1       4.489   3.783  12.230  0.00  0.00    +0.000 F 
ATOM     14  F   UNL     1       6.544   4.077  11.585  0.00  0.00    +0.000 F 
ENDBRANCH   9  11
ENDBRANCH   3   5
BRANCH   2  15
ATOM     15  C   UNL     1       3.164   3.718  19.087  0.00  0.00    +0.000 A 
ATOM     16  N   UNL     1       1.877   3.970  19.400  0.00  0.00    +0.000 NA
ATOM     17  S   UNL     1       1.565   3.019  20.752  0.00  0.00    +0.000 S 
ATOM     18  N   UNL     1       3.065   2.306  20.978  0.00  0.00    +0.000 NA
ATOM     19  C   UNL     1       3.796   2.800  19.988  0.00  0.00    +0.000 A 
BRANCH  19  20
ATOM     20  O   UNL     1       5.060   2.361  19.973  0.00  0.00    +0.000 OA
ATOM     21  H   UNL     1       5.492   2.783  19.211  0.00  0.00    +0.000 HD
ENDBRANCH  19  20
ENDBRANCH   2  15
TORSDOF 4
ENDMDL
MODEL 2
REMARK VINA RESULT:      -7.2      1.041      1.062
REMARK  Name = 
REMARK  4 active torsions:
REMARK  status: ('A' for Active; 'I' for Inactive)
REMARK    1  A    between atoms: C_2  and  C_14
REMARK    2  A    between atoms: N_3  and  C_4
REMARK    3  A    between atoms: C_8  and  C_9
REMARK    4  A    between atoms: C_18  and  O_19
REMARK                            x       y       z     vdW  Elec       q    Type
REMARK                         _______ _______ _______ _____ _____    ______ ____
ROOT
ATOM      1  O   UNL     1       3.402   5.517  17.488  0.00  0.00    +0.000 OA
ATOM      2  C   UNL     1       3.701   4.397  17.885  0.00  0.00    +0.000 C 
ATOM      3  N   UNL     1       4.711   3.607  17.341  0.00  0.00    +0.000 N 
ATOM      4  H   UNL     1       4.745   2.649  17.675  0.00  0.00    +0.000 HD
ENDROOT
BRANCH   3   5
ATOM      5  C   UNL     1       5.587   3.994  16.303  0.00  0.00    +0.000 A 
ATOM      6  C   UNL     1       6.701   4.808  16.524  0.00  0.00    +0.000 A 
ATOM      7  C   UNL     1       7.529   5.198  15.473  0.00  0.00    +0.000 A 
ATOM      8  C   UNL     1       7.250   4.779  14.177  0.00  0.00    +0.000 A 
ATOM      9  C   UNL     1       6.148   3.949  13.926  0.00  0.00    +0.000 A 
ATOM     10  C   UNL     1       5.332   3.542  15.002  0.00  0.00    +0.000 A 
BRANCH   9  11
ATOM     11  C   UNL     1       5.828   3.521  12.514  0.00  0.00    +0.000 C 
ATOM     12  F   UNL     1       5.980   2.183  12.303  0.00  0.00    +0.000 F 
ATOM     13  F   UNL     1       4.547   3.812  12.157  0.00  0.00    +0.000 F 
ATOM     14  F   UNL     1       6.622   4.133  11.593  0.00  0.00    +0.000 F 
ENDBRANCH   9  11
ENDBRANCH   3   5
BRANCH   2  15
ATOM     15  C   UNL     1       2.970   3.764  18.986  0.00  0.00    +0.000 A 
ATOM     16  N   UNL     1       2.850   4.360  20.189  0.00  0.00    +0.000 NA
ATOM     17  S   UNL     1       1.906   3.310  21.102  0.00  0.00    +0.000 S 
ATOM     18  N   UNL     1       1.667   2.072  19.996  0.00  0.00    +0.000 NA
ATOM     19  C   UNL     1       2.312   2.493  18.916  0.00  0.00    +0.000 A 
BRANCH  19  20
ATOM     20  O   UNL     1       2.257   1.642  17.884  0.00  0.00    +0.000 OA
ATOM     21  H   UNL     1       3.121   1.200  17.841  0.00  0.00    +0.000 HD
ENDBRANCH  19  20
ENDBRANCH   2  15
TORSDOF 4
ENDMDL
MODEL 3
REMARK VINA RESULT:      -7.1      0.969      1.890
REMARK  Name = 
REMARK  4 active torsions:
REMARK  status: ('A' for Active; 'I' for Inactive)
REMARK    1  A    between atoms: C_2  and  C_14
REMARK    2  A    between atoms: N_3  and  C_4
REMARK    3  A    between atoms: C_8  and  C_9
REMARK    4  A    between atoms: C_18  and  O_19
REMARK                            x       y       z     vdW  Elec       q    Type
REMARK                         _______ _______ _______ _____ _____    ______ ____
ROOT
ATOM      1  O   UNL     1       5.383   3.519  19.167  0.00  0.00    +0.000 OA
ATOM      2  C   UNL     1       4.295   3.606  18.609  0.00  0.00    +0.000 C 
ATOM      3  N   UNL     1       4.115   3.990  17.283  0.00  0.00    +0.000 N 
ATOM      4  H   UNL     1       3.153   4.160  17.003  0.00  0.00    +0.000 HD
ENDROOT
BRANCH   3   5
ATOM      5  C   UNL     1       5.147   4.269  16.360  0.00  0.00    +0.000 A 
ATOM      6  C   UNL     1       6.269   5.031  16.696  0.00  0.00    +0.000 A 
ATOM      7  C   UNL     1       7.255   5.316  15.753  0.00  0.00    +0.000 A 
ATOM      8  C   UNL     1       7.130   4.842  14.452  0.00  0.00    +0.000 A 
ATOM      9  C   UNL     1       6.023   4.062  14.089  0.00  0.00    +0.000 A 
ATOM     10  C   UNL     1       5.044   3.761  15.058  0.00  0.00    +0.000 A 
BRANCH   9  11
ATOM     11  C   UNL     1       5.872   3.575  12.668  0.00  0.00    +0.000 C 
ATOM     12  F   UNL     1       6.729   4.175  11.792  0.00  0.00    +0.000 F 
ATOM     13  F   UNL     1       6.090   2.238  12.546  0.00  0.00    +0.000 F 
ATOM     14  F   UNL     1       4.623   3.798  12.173  0.00  0.00    +0.000 F 
ENDBRANCH   9  11
ENDBRANCH   3   5
BRANCH   2  15
ATOM     15  C   UNL     1       3.050   3.333  19.331  0.00  0.00    +0.000 A 
ATOM     16  N   UNL     1       3.049   3.008  20.639  0.00  0.00    +0.000 NA
ATOM     17  S   UNL     1       1.426   2.839  21.044  0.00  0.00    +0.000 S 
ATOM     18  N   UNL     1       0.707   3.141  19.560  0.00  0.00    +0.000 NA
ATOM     19  C   UNL     1       1.737   3.389  18.761  0.00  0.00    +0.000 A 
BRANCH  19  20
ATOM     20  O   UNL     1       1.391   3.659  17.496  0.00  0.00    +0.000 OA
ATOM     21  H   UNL     1       1.497   4.618  17.379  0.00  0.00    +0.000 HD
ENDBRANCH  19  20
ENDBRANCH   2  15
TORSDOF 4
ENDMDL
MODEL 4
REMARK VINA RESULT:      -7.0      4.797      6.981
REMARK  Name = 
REMARK  4 active torsions:
REMARK  status: ('A' for Active; 'I' for Inactive)
REMARK    1  A    between atoms: C_2  and  C_14
REMARK    2  A    between atoms: N_3  and  C_4
REMARK    3  A    between atoms: C_8  and  C_9
REMARK    4  A    between atoms: C_18  and  O_19
REMARK                            x       y       z     vdW  Elec       q    Type
REMARK                         _______ _______ _______ _____ _____    ______ ____
ROOT
ATOM      1  O   UNL     1       6.080   4.473  18.117  0.00  0.00    +0.000 OA
ATOM      2  C   UNL     1       5.439   4.710  17.100  0.00  0.00    +0.000 C 
ATOM      3  N   UNL     1       4.077   5.002  17.073  0.00  0.00    +0.000 N 
ATOM      4  H   UNL     1       3.653   5.030  16.151  0.00  0.00    +0.000 HD
ENDROOT
BRANCH   3   5
ATOM      5  C   UNL     1       3.243   5.138  18.205  0.00  0.00    +0.000 A 
ATOM      6  C   UNL     1       3.056   6.360  18.858  0.00  0.00    +0.000 A 
ATOM      7  C   UNL     1       2.251   6.455  19.992  0.00  0.00    +0.000 A 
ATOM      8  C   UNL     1       1.621   5.321  20.494  0.00  0.00    +0.000 A 
ATOM      9  C   UNL     1       1.778   4.085  19.852  0.00  0.00    +0.000 A 
ATOM     10  C   UNL     1       2.577   4.006  18.692  0.00  0.00    +0.000 A 
BRANCH   9  11
ATOM     11  C   UNL     1       1.121   2.849  20.417  0.00  0.00    +0.000 C 
ATOM     12  F   UNL     1      -0.084   2.564  19.846  0.00  0.00    +0.000 F 
ATOM     13  F   UNL     1       1.882   1.732  20.258  0.00  0.00    +0.000 F 
ATOM     14  F   UNL     1       0.881   2.953  21.753  0.00  0.00    +0.000 F 
ENDBRANCH   9  11
ENDBRANCH   3   5
BRANCH   2  15
ATOM     15  C   UNL     1       6.072   4.673  15.780  0.00  0.00    +0.000 A 
ATOM     16  N   UNL     1       5.652   3.825  14.819  0.00  0.00    +0.000 NA
ATOM     17  S   UNL     1       6.619   4.166  13.486  0.00  0.00    +0.000 S 
ATOM     18  N   UNL     1       7.604   5.366  14.120  0.00  0.00    +0.000 NA
ATOM     19  C   UNL     1       7.162   5.505  15.363  0.00  0.00    +0.000 A 
BRANCH  19  20
ATOM     20  O   UNL     1       7.819   6.430  16.074  0.00  0.00    +0.000 OA
ATOM     21  H   UNL     1       7.527   7.295  15.741  0.00  0.00    +0.000 HD
ENDBRANCH  19  20
ENDBRANCH   2  15
TORSDOF 4
ENDMDL
MODEL 5
REMARK VINA RESULT:      -6.8      4.692      6.802
REMARK  Name = 
REMARK  4 active torsions:
REMARK  status: ('A' for Active; 'I' for Inactive)
REMARK    1  A    between atoms: C_2  and  C_14
REMARK    2  A    between atoms: N_3  and  C_4
REMARK    3  A    between atoms: C_8  and  C_9
REMARK    4  A    between atoms: C_18  and  O_19
REMARK                            x       y       z     vdW  Elec       q    Type
REMARK                         _______ _______ _______ _____ _____    ______ ____
ROOT
ATOM      1  O   UNL     1       4.650   3.059  16.869  0.00  0.00    +0.000 OA
ATOM      2  C   UNL     1       4.882   4.197  16.477  0.00  0.00    +0.000 C 
ATOM      3  N   UNL     1       4.294   5.347  16.996  0.00  0.00    +0.000 N 
ATOM      4  H   UNL     1       4.468   6.202  16.476  0.00  0.00    +0.000 HD
ENDROOT
BRANCH   3   5
ATOM      5  C   UNL     1       3.401   5.392  18.089  0.00  0.00    +0.000 A 
ATOM      6  C   UNL     1       3.152   6.565  18.809  0.00  0.00    +0.000 A 
ATOM      7  C   UNL     1       2.289   6.570  19.904  0.00  0.00    +0.000 A 
ATOM      8  C   UNL     1       1.661   5.394  20.298  0.00  0.00    +0.000 A 
ATOM      9  C   UNL     1       1.879   4.205  19.588  0.00  0.00    +0.000 A 
ATOM     10  C   UNL     1       2.737   4.218  18.467  0.00  0.00    +0.000 A 
BRANCH   9  11
ATOM     11  C   UNL     1       1.223   2.922  20.037  0.00  0.00    +0.000 C 
ATOM     12  F   UNL     1       2.041   1.834  19.957  0.00  0.00    +0.000 F 
ATOM     13  F   UNL     1       0.798   2.975  21.328  0.00  0.00    +0.000 F 
ATOM     14  F   UNL     1       0.125   2.613  19.293  0.00  0.00    +0.000 F 
ENDBRANCH   9  11
ENDBRANCH   3   5
BRANCH   2  15
ATOM     15  C   UNL     1       5.807   4.442  15.368  0.00  0.00    +0.000 A 
ATOM     16  N   UNL     1       5.662   3.825  14.178  0.00  0.00    +0.000 NA
ATOM     17  S   UNL     1       6.896   4.441  13.217  0.00  0.00    +0.000 S 
ATOM     18  N   UNL     1       7.651   5.468  14.306  0.00  0.00    +0.000 NA
ATOM     19  C   UNL     1       6.925   5.337  15.409  0.00  0.00    +0.000 A 
BRANCH  19  20
ATOM     20  O   UNL     1       7.356   6.081  16.435  0.00  0.00    +0.000 OA
ATOM     21  H   UNL     1       6.616   6.146  17.061  0.00  0.00    +0.000 HD
ENDBRANCH  19  20
ENDBRANCH   2  15
TORSDOF 4
ENDMDL
MODEL 6
REMARK VINA RESULT:      -6.8      1.292      1.346
REMARK  Name = 
REMARK  4 active torsions:
REMARK  status: ('A' for Active; 'I' for Inactive)
REMARK    1  A    between atoms: C_2  and  C_14
REMARK    2  A    between atoms: N_3  and  C_4
REMARK    3  A    between atoms: C_8  and  C_9
REMARK    4  A    between atoms: C_18  and  O_19
REMARK                            x       y       z     vdW  Elec       q    Type
REMARK                         _______ _______ _______ _____ _____    ______ ____
ROOT
ATOM      1  O   UNL     1       3.404   5.819  17.486  0.00  0.00    +0.000 OA
ATOM      2  C   UNL     1       3.605   4.678  17.886  0.00  0.00    +0.000 C 
ATOM      3  N   UNL     1       4.554   3.809  17.355  0.00  0.00    +0.000 N 
ATOM      4  H   UNL     1       4.505   2.850  17.687  0.00  0.00    +0.000 HD
ENDROOT
BRANCH   3   5
ATOM      5  C   UNL     1       5.474   4.123  16.330  0.00  0.00    +0.000 A 
ATOM      6  C   UNL     1       6.619   4.892  16.557  0.00  0.00    +0.000 A 
ATOM      7  C   UNL     1       7.490   5.212  15.517  0.00  0.00    +0.000 A 
ATOM      8  C   UNL     1       7.225   4.766  14.227  0.00  0.00    +0.000 A 
ATOM      9  C   UNL     1       6.093   3.980  13.970  0.00  0.00    +0.000 A 
ATOM     10  C   UNL     1       5.231   3.644  15.036  0.00  0.00    +0.000 A 
BRANCH   9  11
ATOM     11  C   UNL     1       5.789   3.524  12.564  0.00  0.00    +0.000 C 
ATOM     12  F   UNL     1       5.981   2.188  12.371  0.00  0.00    +0.000 F 
ATOM     13  F   UNL     1       4.501   3.772  12.200  0.00  0.00    +0.000 F 
ATOM     14  F   UNL     1       6.567   4.147  11.637  0.00  0.00    +0.000 F 
ENDBRANCH   9  11
ENDBRANCH   3   5
BRANCH   2  15
ATOM     15  C   UNL     1       2.809   4.107  18.975  0.00  0.00    +0.000 A 
ATOM     16  N   UNL     1       2.396   2.824  18.950  0.00  0.00    +0.000 NA
ATOM     17  S   UNL     1       1.576   2.603  20.401  0.00  0.00    +0.000 S 
ATOM     18  N   UNL     1       1.703   4.138  21.062  0.00  0.00    +0.000 NA
ATOM     19  C   UNL     1       2.399   4.810  20.154  0.00  0.00    +0.000 A 
BRANCH  19  20
ATOM     20  O   UNL     1       2.623   6.090  20.478  0.00  0.00    +0.000 OA
ATOM     21  H   UNL     1       2.298   6.207  21.387  0.00  0.00    +0.000 HD
ENDBRANCH  19  20
ENDBRANCH   2  15
TORSDOF 4
ENDMDL
MODEL 7
REMARK VINA RESULT:      -6.8      1.305      1.569
REMARK  Name = 
REMARK  4 active torsions:
REMARK  status: ('A' for Active; 'I' for Inactive)
REMARK    1  A    between atoms: C_2  and  C_14
REMARK    2  A    between atoms: N_3  and  C_4
REMARK    3  A    between atoms: C_8  and  C_9
REMARK    4  A    between atoms: C_18  and  O_19
REMARK                            x       y       z     vdW  Elec       q    Type
REMARK                         _______ _______ _______ _____ _____    ______ ____
ROOT
ATOM      1  O   UNL     1       3.686   6.035  17.545  0.00  0.00    +0.000 OA
ATOM      2  C   UNL     1       3.594   4.827  17.727  0.00  0.00    +0.000 C 
ATOM      3  N   UNL     1       4.363   3.868  17.073  0.00  0.00    +0.000 N 
ATOM      4  H   UNL     1       4.075   2.904  17.214  0.00  0.00    +0.000 HD
ENDROOT
BRANCH   3   5
ATOM      5  C   UNL     1       5.408   4.134  16.160  0.00  0.00    +0.000 A 
ATOM      6  C   UNL     1       6.578   4.803  16.531  0.00  0.00    +0.000 A 
ATOM      7  C   UNL     1       7.576   5.079  15.599  0.00  0.00    +0.000 A 
ATOM      8  C   UNL     1       7.417   4.690  14.274  0.00  0.00    +0.000 A 
ATOM      9  C   UNL     1       6.261   4.004  13.875  0.00  0.00    +0.000 A 
ATOM     10  C   UNL     1       5.268   3.710  14.832  0.00  0.00    +0.000 A 
BRANCH   9  11
ATOM     11  C   UNL     1       6.074   3.611  12.429  0.00  0.00    +0.000 C 
ATOM     12  F   UNL     1       6.926   4.249  11.576  0.00  0.00    +0.000 F 
ATOM     13  F   UNL     1       6.265   2.280  12.220  0.00  0.00    +0.000 F 
ATOM     14  F   UNL     1       4.821   3.887  11.974  0.00  0.00    +0.000 F 
ENDBRANCH   9  11
ENDBRANCH   3   5
BRANCH   2  15
ATOM     15  C   UNL     1       2.607   4.274  18.657  0.00  0.00    +0.000 A 
ATOM     16  N   UNL     1       2.229   4.942  19.765  0.00  0.00    +0.000 NA
ATOM     17  S   UNL     1       1.065   3.966  20.486  0.00  0.00    +0.000 S 
ATOM     18  N   UNL     1       1.051   2.669  19.423  0.00  0.00    +0.000 NA
ATOM     19  C   UNL     1       1.943   3.013  18.503  0.00  0.00    +0.000 A 
BRANCH  19  20
ATOM     20  O   UNL     1       2.103   2.104  17.534  0.00  0.00    +0.000 OA
ATOM     21  H   UNL     1       1.283   1.582  17.504  0.00  0.00    +0.000 HD
ENDBRANCH  19  20
ENDBRANCH   2  15
TORSDOF 4
ENDMDL
MODEL 8
REMARK VINA RESULT:      -6.8      0.991      1.312
REMARK  Name = 
REMARK  4 active torsions:
REMARK  status: ('A' for Active; 'I' for Inactive)
REMARK    1  A    between atoms: C_2  and  C_14
REMARK    2  A    between atoms: N_3  and  C_4
REMARK    3  A    between atoms: C_8  and  C_9
REMARK    4  A    between atoms: C_18  and  O_19
REMARK                            x       y       z     vdW  Elec       q    Type
REMARK                         _______ _______ _______ _____ _____    ______ ____
ROOT
ATOM      1  O   UNL     1       5.585   3.905  19.218  0.00  0.00    +0.000 OA
ATOM      2  C   UNL     1       4.486   3.877  18.677  0.00  0.00    +0.000 C 
ATOM      3  N   UNL     1       4.265   4.111  17.322  0.00  0.00    +0.000 N 
ATOM      4  H   UNL     1       3.292   4.201  17.045  0.00  0.00    +0.000 HD
ENDROOT
BRANCH   3   5
ATOM      5  C   UNL     1       5.267   4.345  16.354  0.00  0.00    +0.000 A 
ATOM      6  C   UNL     1       6.416   5.093  16.628  0.00  0.00    +0.000 A 
ATOM      7  C   UNL     1       7.371   5.334  15.642  0.00  0.00    +0.000 A 
ATOM      8  C   UNL     1       7.188   4.829  14.359  0.00  0.00    +0.000 A 
ATOM      9  C   UNL     1       6.054   4.062  14.058  0.00  0.00    +0.000 A 
ATOM     10  C   UNL     1       5.106   3.806  15.071  0.00  0.00    +0.000 A 
BRANCH   9  11
ATOM     11  C   UNL     1       5.840   3.541  12.658  0.00  0.00    +0.000 C 
ATOM     12  F   UNL     1       6.669   4.107  11.734  0.00  0.00    +0.000 F 
ATOM     13  F   UNL     1       6.037   2.199  12.562  0.00  0.00    +0.000 F 
ATOM     14  F   UNL     1       4.576   3.768  12.207  0.00  0.00    +0.000 F 
ENDBRANCH   9  11
ENDBRANCH   3   5
BRANCH   2  15
ATOM     15  C   UNL     1       3.268   3.618  19.448  0.00  0.00    +0.000 A 
ATOM     16  N   UNL     1       2.088   4.179  19.115  0.00  0.00    +0.000 NA
ATOM     17  S   UNL     1       0.987   3.567  20.229  0.00  0.00    +0.000 S 
ATOM     18  N   UNL     1       1.997   2.613  21.167  0.00  0.00    +0.000 NA
ATOM     19  C   UNL     1       3.185   2.764  20.597  0.00  0.00    +0.000 A 
BRANCH  19  20
ATOM     20  O   UNL     1       4.167   2.080  21.195  0.00  0.00    +0.000 OA
ATOM     21  H   UNL     1       4.164   1.190  20.804  0.00  0.00    +0.000 HD
ENDBRANCH  19  20
ENDBRANCH   2  15
TORSDOF 4
ENDMDL
MODEL 9
REMARK VINA RESULT:      -6.7      4.960      7.130
REMARK  Name = 
REMARK  4 active torsions:
REMARK  status: ('A' for Active; 'I' for Inactive)
REMARK    1  A    between atoms: C_2  and  C_14
REMARK    2  A    between atoms: N_3  and  C_4
REMARK    3  A    between atoms: C_8  and  C_9
REMARK    4  A    between atoms: C_18  and  O_19
REMARK                            x       y       z     vdW  Elec       q    Type
REMARK                         _______ _______ _______ _____ _____    ______ ____
ROOT
ATOM      1  O   UNL     1       5.901   5.788  18.169  0.00  0.00    +0.000 OA
ATOM      2  C   UNL     1       5.276   5.240  17.268  0.00  0.00    +0.000 C 
ATOM      3  N   UNL     1       3.969   4.775  17.382  0.00  0.00    +0.000 N 
ATOM      4  H   UNL     1       3.635   4.212  16.605  0.00  0.00    +0.000 HD
ENDROOT
BRANCH   3   5
ATOM      5  C   UNL     1       3.140   4.922  18.516  0.00  0.00    +0.000 A 
ATOM      6  C   UNL     1       2.614   6.156  18.908  0.00  0.00    +0.000 A 
ATOM      7  C   UNL     1       1.825   6.273  20.052  0.00  0.00    +0.000 A 
ATOM      8  C   UNL     1       1.552   5.150  20.825  0.00  0.00    +0.000 A 
ATOM      9  C   UNL     1       2.053   3.896  20.449  0.00  0.00    +0.000 A 
ATOM     10  C   UNL     1       2.831   3.787  19.277  0.00  0.00    +0.000 A 
BRANCH   9  11
ATOM     11  C   UNL     1       1.783   2.684  21.307  0.00  0.00    +0.000 C 
ATOM     12  F   UNL     1       2.851   2.305  22.066  0.00  0.00    +0.000 F 
ATOM     13  F   UNL     1       0.756   2.877  22.179  0.00  0.00    +0.000 F 
ATOM     14  F   UNL     1       1.448   1.590  20.569  0.00  0.00    +0.000 F 
ENDBRANCH   9  11
ENDBRANCH   3   5
BRANCH   2  15
ATOM     15  C   UNL     1       5.891   4.993  15.962  0.00  0.00    +0.000 A 
ATOM     16  N   UNL     1       5.347   4.134  15.076  0.00  0.00    +0.000 NA
ATOM     17  S   UNL     1       6.347   4.210  13.727  0.00  0.00    +0.000 S 
ATOM     18  N   UNL     1       7.501   5.302  14.261  0.00  0.00    +0.000 NA
ATOM     19  C   UNL     1       7.090   5.615  15.483  0.00  0.00    +0.000 A 
BRANCH  19  20
ATOM     20  O   UNL     1       7.880   6.492  16.115  0.00  0.00    +0.000 OA
ATOM     21  H   UNL     1       7.319   6.959  16.756  0.00  0.00    +0.000 HD
ENDBRANCH  19  20
ENDBRANCH   2  15
TORSDOF 4
ENDMDL
