MODEL 1
REMARK VINA RESULT:      -8.2      0.000      0.000
REMARK  Name = 
REMARK  12 active torsions:
REMARK  status: ('A' for Active; 'I' for Inactive)
REMARK    1  A    between atoms: C_1  and  O_2
REMARK    2  A    between atoms: O_2  and  C_3
REMARK    3  A    between atoms: C_6  and  C_7
REMARK    4  A    between atoms: C_8  and  C_9
REMARK    5  A    between atoms: C_11  and  C_12
REMARK    6  A    between atoms: C_15  and  O_16
REMARK    7  A    between atoms: O_16  and  C_17
REMARK    8  A    between atoms: C_18  and  O_19
REMARK    9  A    between atoms: O_19  and  C_20
REMARK   10  A    between atoms: C_23  and  C_24
REMARK   11  A    between atoms: C_30  and  O_31
REMARK   12  A    between atoms: O_31  and  C_32
REMARK                            x       y       z     vdW  Elec       q    Type
REMARK                         _______ _______ _______ _____ _____    ______ ____
ROOT
ATOM      1  C   UNL     1       1.666   9.660  18.616  0.00  0.00    +0.000 C 
ATOM      2  C   UNL     1       0.527   9.264  19.224  0.00  0.00    +0.000 C 
ATOM      3  C   UNL     1      -0.525  10.276  19.632  0.00  0.00    +0.000 C 
ATOM      4  N   UNL     1       0.183  11.543  19.912  0.00  0.00    +0.000 N 
ATOM      5  C   UNL     1      -0.487  12.705  20.376  0.00  0.00    +0.000 C 
ATOM      6  C   UNL     1      -0.012  13.190  21.746  0.00  0.00    +0.000 C 
ATOM      7  C   UNL     1      -0.457  13.698  19.446  0.00  0.00    +0.000 C 
ATOM      8  S   UNL     1       1.020  13.516  18.457  0.00  0.00    +0.000 S 
ATOM      9  C   UNL     1       1.135  11.816  18.934  0.00  0.00    +0.000 C 
ATOM     10  N   UNL     1       1.900  10.985  18.308  0.00  0.00    +0.000 NA
ENDROOT
BRANCH   3  11
ATOM     11  C   UNL     1      -1.596  10.452  18.532  0.00  0.00    +0.000 A 
ATOM     12  C   UNL     1      -1.410   9.931  17.240  0.00  0.00    +0.000 A 
ATOM     13  C   UNL     1      -2.368  10.094  16.244  0.00  0.00    +0.000 A 
ATOM     14  C   UNL     1      -3.547  10.795  16.489  0.00  0.00    +0.000 A 
ATOM     15  C   UNL     1      -3.751  11.364  17.757  0.00  0.00    +0.000 A 
ATOM     16  C   UNL     1      -2.773  11.192  18.764  0.00  0.00    +0.000 A 
BRANCH  14  17
ATOM     17  O   UNL     1      -4.351  10.817  15.382  0.00  0.00    +0.000 OA
ATOM     18  C   UNL     1      -3.939  10.138  14.208  0.00  0.00    +0.000 C 
ENDBRANCH  14  17
BRANCH  15  19
ATOM     19  O   UNL     1      -4.907  12.078  17.945  0.00  0.00    +0.000 OA
ATOM     20  C   UNL     1      -5.174  12.632  19.224  0.00  0.00    +0.000 C 
ENDBRANCH  15  19
ENDBRANCH   3  11
BRANCH   1  22
ATOM     21  C   UNL     1       2.788   7.445  18.462  0.00  0.00    +0.000 C 
ATOM     22  C   UNL     1       2.550   8.684  18.002  0.00  0.00    +0.000 C 
BRANCH  21  26
ATOM     23  C   UNL     1       5.462   4.688  16.530  0.00  0.00    +0.000 A 
ATOM     24  C   UNL     1       4.185   4.294  16.958  0.00  0.00    +0.000 A 
ATOM     25  C   UNL     1       3.329   5.197  17.596  0.00  0.00    +0.000 A 
ATOM     26  C   UNL     1       3.744   6.503  17.861  0.00  0.00    +0.000 A 
ATOM     27  C   UNL     1       5.045   6.870  17.495  0.00  0.00    +0.000 A 
ATOM     28  C   UNL     1       5.916   5.978  16.844  0.00  0.00    +0.000 A 
BRANCH  23  30
ATOM     29  C   UNL     1       6.246   3.940  14.423  0.00  0.00    +0.000 C 
ATOM     30  O   UNL     1       6.276   3.826  15.845  0.00  0.00    +0.000 OA
ENDBRANCH  23  30
BRANCH  28  31
ATOM     31  O   UNL     1       7.134   6.550  16.587  0.00  0.00    +0.000 OA
ATOM     32  C   UNL     1       7.607   7.584  17.436  0.00  0.00    +0.000 C 
ENDBRANCH  28  31
ENDBRANCH  21  26
ENDBRANCH   1  22
TORSDOF 7
ENDMDL
MODEL 2
REMARK VINA RESULT:      -8.2      1.509      2.091
REMARK  Name = 
REMARK  12 active torsions:
REMARK  status: ('A' for Active; 'I' for Inactive)
REMARK    1  A    between atoms: C_1  and  O_2
REMARK    2  A    between atoms: O_2  and  C_3
REMARK    3  A    between atoms: C_6  and  C_7
REMARK    4  A    between atoms: C_8  and  C_9
REMARK    5  A    between atoms: C_11  and  C_12
REMARK    6  A    between atoms: C_15  and  O_16
REMARK    7  A    between atoms: O_16  and  C_17
REMARK    8  A    between atoms: C_18  and  O_19
REMARK    9  A    between atoms: O_19  and  C_20
REMARK   10  A    between atoms: C_23  and  C_24
REMARK   11  A    between atoms: C_30  and  O_31
REMARK   12  A    between atoms: O_31  and  C_32
REMARK                            x       y       z     vdW  Elec       q    Type
REMARK                         _______ _______ _______ _____ _____    ______ ____
ROOT
ATOM      1  C   UNL     1       0.886   9.708  20.058  0.00  0.00    +0.000 C 
ATOM      2  C   UNL     1      -0.397   9.825  20.463  0.00  0.00    +0.000 C 
ATOM      3  C   UNL     1      -1.188  11.085  20.172  0.00  0.00    +0.000 C 
ATOM      4  N   UNL     1      -0.218  12.198  20.113  0.00  0.00    +0.000 N 
ATOM      5  C   UNL     1      -0.614  13.545  19.910  0.00  0.00    +0.000 C 
ATOM      6  C   UNL     1      -0.243  14.482  21.060  0.00  0.00    +0.000 C 
ATOM      7  C   UNL     1      -0.176  14.015  18.710  0.00  0.00    +0.000 C 
ATOM      8  S   UNL     1       1.332  13.162  18.274  0.00  0.00    +0.000 S 
ATOM      9  C   UNL     1       0.911  11.845  19.379  0.00  0.00    +0.000 C 
ATOM     10  N   UNL     1       1.512  10.703  19.335  0.00  0.00    +0.000 NA
ENDROOT
BRANCH   3  11
ATOM     11  C   UNL     1      -1.990  10.956  18.857  0.00  0.00    +0.000 A 
ATOM     12  C   UNL     1      -1.514  10.186  17.782  0.00  0.00    +0.000 A 
ATOM     13  C   UNL     1      -2.229  10.075  16.594  0.00  0.00    +0.000 A 
ATOM     14  C   UNL     1      -3.442  10.737  16.419  0.00  0.00    +0.000 A 
ATOM     15  C   UNL     1      -3.932  11.547  17.458  0.00  0.00    +0.000 A 
ATOM     16  C   UNL     1      -3.200  11.653  18.663  0.00  0.00    +0.000 A 
BRANCH  14  17
ATOM     17  O   UNL     1      -3.980  10.473  15.189  0.00  0.00    +0.000 OA
ATOM     18  C   UNL     1      -3.139  10.023  14.142  0.00  0.00    +0.000 C 
ENDBRANCH  14  17
BRANCH  15  19
ATOM     19  O   UNL     1      -5.111  12.210  17.233  0.00  0.00    +0.000 OA
ATOM     20  C   UNL     1      -6.306  11.703  17.805  0.00  0.00    +0.000 C 
ENDBRANCH  15  19
ENDBRANCH   3  11
BRANCH   1  22
ATOM     21  C   UNL     1       2.206   7.834  19.089  0.00  0.00    +0.000 C 
ATOM     22  C   UNL     1       1.559   8.421  20.110  0.00  0.00    +0.000 C 
BRANCH  21  26
ATOM     23  C   UNL     1       3.813   3.848  19.185  0.00  0.00    +0.000 A 
ATOM     24  C   UNL     1       2.797   4.251  20.065  0.00  0.00    +0.000 A 
ATOM     25  C   UNL     1       2.291   5.554  20.032  0.00  0.00    +0.000 A 
ATOM     26  C   UNL     1       2.817   6.497  19.149  0.00  0.00    +0.000 A 
ATOM     27  C   UNL     1       3.878   6.110  18.323  0.00  0.00    +0.000 A 
ATOM     28  C   UNL     1       4.393   4.801  18.336  0.00  0.00    +0.000 A 
BRANCH  23  30
ATOM     29  C   UNL     1       3.400   1.604  18.549  0.00  0.00    +0.000 C 
ATOM     30  O   UNL     1       4.263   2.555  19.170  0.00  0.00    +0.000 OA
ENDBRANCH  23  30
BRANCH  28  31
ATOM     31  O   UNL     1       5.429   4.651  17.450  0.00  0.00    +0.000 OA
ATOM     32  C   UNL     1       5.143   4.344  16.095  0.00  0.00    +0.000 C 
ENDBRANCH  28  31
ENDBRANCH  21  26
ENDBRANCH   1  22
TORSDOF 7
ENDMDL
MODEL 3
REMARK VINA RESULT:      -8.1      7.320      9.986
REMARK  Name = 
REMARK  12 active torsions:
REMARK  status: ('A' for Active; 'I' for Inactive)
REMARK    1  A    between atoms: C_1  and  O_2
REMARK    2  A    between atoms: O_2  and  C_3
REMARK    3  A    between atoms: C_6  and  C_7
REMARK    4  A    between atoms: C_8  and  C_9
REMARK    5  A    between atoms: C_11  and  C_12
REMARK    6  A    between atoms: C_15  and  O_16
REMARK    7  A    between atoms: O_16  and  C_17
REMARK    8  A    between atoms: C_18  and  O_19
REMARK    9  A    between atoms: O_19  and  C_20
REMARK   10  A    between atoms: C_23  and  C_24
REMARK   11  A    between atoms: C_30  and  O_31
REMARK   12  A    between atoms: O_31  and  C_32
REMARK                            x       y       z     vdW  Elec       q    Type
REMARK                         _______ _______ _______ _____ _____    ______ ____
ROOT
ATOM      1  C   UNL     1       9.419  11.118  18.738  0.00  0.00    +0.000 C 
ATOM      2  C   UNL     1      10.468  11.504  19.498  0.00  0.00    +0.000 C 
ATOM      3  C   UNL     1      10.778  12.974  19.698  0.00  0.00    +0.000 C 
ATOM      4  N   UNL     1      10.309  13.682  18.488  0.00  0.00    +0.000 N 
ATOM      5  C   UNL     1      10.488  15.077  18.303  0.00  0.00    +0.000 C 
ATOM      6  C   UNL     1      11.335  15.438  17.083  0.00  0.00    +0.000 C 
ATOM      7  C   UNL     1       9.295  15.733  18.307  0.00  0.00    +0.000 C 
ATOM      8  S   UNL     1       8.027  14.626  17.706  0.00  0.00    +0.000 S 
ATOM      9  C   UNL     1       9.049  13.236  18.100  0.00  0.00    +0.000 C 
ATOM     10  N   UNL     1       8.574  12.036  18.150  0.00  0.00    +0.000 NA
ENDROOT
BRANCH   3  11
ATOM     11  C   UNL     1      10.107  13.523  20.977  0.00  0.00    +0.000 A 
ATOM     12  C   UNL     1      10.424  14.797  21.481  0.00  0.00    +0.000 A 
ATOM     13  C   UNL     1       9.828  15.292  22.636  0.00  0.00    +0.000 A 
ATOM     14  C   UNL     1       8.900  14.534  23.348  0.00  0.00    +0.000 A 
ATOM     15  C   UNL     1       8.586  13.241  22.897  0.00  0.00    +0.000 A 
ATOM     16  C   UNL     1       9.195  12.746  21.721  0.00  0.00    +0.000 A 
BRANCH  14  17
ATOM     17  O   UNL     1       8.428  15.219  24.434  0.00  0.00    +0.000 OA
ATOM     18  C   UNL     1       9.065  15.058  25.690  0.00  0.00    +0.000 C 
ENDBRANCH  14  17
BRANCH  15  19
ATOM     19  O   UNL     1       7.696  12.514  23.646  0.00  0.00    +0.000 OA
ATOM     20  C   UNL     1       6.325  12.520  23.283  0.00  0.00    +0.000 C 
ENDBRANCH  15  19
ENDBRANCH   3  11
BRANCH   1  22
ATOM     21  C   UNL     1       8.209   9.152  17.811  0.00  0.00    +0.000 C 
ATOM     22  C   UNL     1       8.971   9.736  18.751  0.00  0.00    +0.000 C 
BRANCH  21  26
ATOM     23  C   UNL     1       6.661   5.161  18.214  0.00  0.00    +0.000 A 
ATOM     24  C   UNL     1       7.719   5.623  19.013  0.00  0.00    +0.000 A 
ATOM     25  C   UNL     1       8.221   6.919  18.865  0.00  0.00    +0.000 A 
ATOM     26  C   UNL     1       7.709   7.771  17.885  0.00  0.00    +0.000 A 
ATOM     27  C   UNL     1       6.703   7.281  17.044  0.00  0.00    +0.000 A 
ATOM     28  C   UNL     1       6.179   5.983  17.185  0.00  0.00    +0.000 A 
BRANCH  23  30
ATOM     29  C   UNL     1       4.917   3.871  19.164  0.00  0.00    +0.000 C 
ATOM     30  O   UNL     1       6.123   3.917  18.403  0.00  0.00    +0.000 OA
ENDBRANCH  23  30
BRANCH  28  31
ATOM     31  O   UNL     1       5.210   5.719  16.253  0.00  0.00    +0.000 OA
ATOM     32  C   UNL     1       5.577   5.117  15.022  0.00  0.00    +0.000 C 
ENDBRANCH  28  31
ENDBRANCH  21  26
ENDBRANCH   1  22
TORSDOF 7
ENDMDL
MODEL 4
REMARK VINA RESULT:      -8.0      1.283      2.666
REMARK  Name = 
REMARK  12 active torsions:
REMARK  status: ('A' for Active; 'I' for Inactive)
REMARK    1  A    between atoms: C_1  and  O_2
REMARK    2  A    between atoms: O_2  and  C_3
REMARK    3  A    between atoms: C_6  and  C_7
REMARK    4  A    between atoms: C_8  and  C_9
REMARK    5  A    between atoms: C_11  and  C_12
REMARK    6  A    between atoms: C_15  and  O_16
REMARK    7  A    between atoms: O_16  and  C_17
REMARK    8  A    between atoms: C_18  and  O_19
REMARK    9  A    between atoms: O_19  and  C_20
REMARK   10  A    between atoms: C_23  and  C_24
REMARK   11  A    between atoms: C_30  and  O_31
REMARK   12  A    between atoms: O_31  and  C_32
REMARK                            x       y       z     vdW  Elec       q    Type
REMARK                         _______ _______ _______ _____ _____    ______ ____
ROOT
ATOM      1  C   UNL     1       1.219  10.056  18.842  0.00  0.00    +0.000 C 
ATOM      2  C   UNL     1       0.195   9.822  19.691  0.00  0.00    +0.000 C 
ATOM      3  C   UNL     1      -0.670  10.962  20.192  0.00  0.00    +0.000 C 
ATOM      4  N   UNL     1       0.179  12.172  20.208  0.00  0.00    +0.000 N 
ATOM      5  C   UNL     1      -0.289  13.426  20.676  0.00  0.00    +0.000 C 
ATOM      6  C   UNL     1       0.486  13.970  21.877  0.00  0.00    +0.000 C 
ATOM      7  C   UNL     1      -0.363  14.335  19.665  0.00  0.00    +0.000 C 
ATOM      8  S   UNL     1       0.869  13.931  18.436  0.00  0.00    +0.000 S 
ATOM      9  C   UNL     1       0.938  12.271  19.045  0.00  0.00    +0.000 C 
ATOM     10  N   UNL     1       1.495  11.322  18.369  0.00  0.00    +0.000 NA
ENDROOT
BRANCH   3  11
ATOM     11  C   UNL     1      -1.919  11.154  19.303  0.00  0.00    +0.000 A 
ATOM     12  C   UNL     1      -2.958  12.025  19.678  0.00  0.00    +0.000 A 
ATOM     13  C   UNL     1      -4.088  12.194  18.885  0.00  0.00    +0.000 A 
ATOM     14  C   UNL     1      -4.240  11.494  17.690  0.00  0.00    +0.000 A 
ATOM     15  C   UNL     1      -3.240  10.585  17.300  0.00  0.00    +0.000 A 
ATOM     16  C   UNL     1      -2.094  10.421  18.112  0.00  0.00    +0.000 A 
BRANCH  14  17
ATOM     17  O   UNL     1      -5.410  11.826  17.064  0.00  0.00    +0.000 OA
ATOM     18  C   UNL     1      -6.606  11.906  17.819  0.00  0.00    +0.000 C 
ENDBRANCH  14  17
BRANCH  15  19
ATOM     19  O   UNL     1      -3.445   9.889  16.137  0.00  0.00    +0.000 OA
ATOM     20  C   UNL     1      -2.990  10.445  14.914  0.00  0.00    +0.000 C 
ENDBRANCH  15  19
ENDBRANCH   3  11
BRANCH   1  22
ATOM     21  C   UNL     1       2.235   7.786  18.736  0.00  0.00    +0.000 C 
ATOM     22  C   UNL     1       1.882   8.952  18.168  0.00  0.00    +0.000 C 
BRANCH  21  26
ATOM     23  C   UNL     1       4.540   4.676  16.868  0.00  0.00    +0.000 A 
ATOM     24  C   UNL     1       4.923   6.023  16.785  0.00  0.00    +0.000 A 
ATOM     25  C   UNL     1       4.158   7.027  17.387  0.00  0.00    +0.000 A 
ATOM     26  C   UNL     1       2.970   6.714  18.049  0.00  0.00    +0.000 A 
ATOM     27  C   UNL     1       2.556   5.377  18.066  0.00  0.00    +0.000 A 
ATOM     28  C   UNL     1       3.317   4.353  17.475  0.00  0.00    +0.000 A 
BRANCH  23  30
ATOM     29  C   UNL     1       6.451   4.121  15.583  0.00  0.00    +0.000 C 
ATOM     30  O   UNL     1       5.321   3.685  16.337  0.00  0.00    +0.000 OA
ENDBRANCH  23  30
BRANCH  28  31
ATOM     31  O   UNL     1       2.718   3.128  17.610  0.00  0.00    +0.000 OA
ATOM     32  C   UNL     1       1.513   3.024  18.352  0.00  0.00    +0.000 C 
ENDBRANCH  28  31
ENDBRANCH  21  26
ENDBRANCH   1  22
TORSDOF 7
ENDMDL
MODEL 5
REMARK VINA RESULT:      -7.9      2.131      2.928
REMARK  Name = 
REMARK  12 active torsions:
REMARK  status: ('A' for Active; 'I' for Inactive)
REMARK    1  A    between atoms: C_1  and  O_2
REMARK    2  A    between atoms: O_2  and  C_3
REMARK    3  A    between atoms: C_6  and  C_7
REMARK    4  A    between atoms: C_8  and  C_9
REMARK    5  A    between atoms: C_11  and  C_12
REMARK    6  A    between atoms: C_15  and  O_16
REMARK    7  A    between atoms: O_16  and  C_17
REMARK    8  A    between atoms: C_18  and  O_19
REMARK    9  A    between atoms: O_19  and  C_20
REMARK   10  A    between atoms: C_23  and  C_24
REMARK   11  A    between atoms: C_30  and  O_31
REMARK   12  A    between atoms: O_31  and  C_32
REMARK                            x       y       z     vdW  Elec       q    Type
REMARK                         _______ _______ _______ _____ _____    ______ ____
ROOT
ATOM      1  C   UNL     1       0.920   9.500  20.073  0.00  0.00    +0.000 C 
ATOM      2  C   UNL     1      -0.336   9.729  20.516  0.00  0.00    +0.000 C 
ATOM      3  C   UNL     1      -1.022  11.053  20.247  0.00  0.00    +0.000 C 
ATOM      4  N   UNL     1       0.039  12.078  20.157  0.00  0.00    +0.000 N 
ATOM      5  C   UNL     1      -0.244  13.454  19.965  0.00  0.00    +0.000 C 
ATOM      6  C   UNL     1       0.241  14.353  21.103  0.00  0.00    +0.000 C 
ATOM      7  C   UNL     1       0.198  13.886  18.752  0.00  0.00    +0.000 C 
ATOM      8  S   UNL     1       1.612  12.905  18.272  0.00  0.00    +0.000 S 
ATOM      9  C   UNL     1       1.110  11.629  19.391  0.00  0.00    +0.000 C 
ATOM     10  N   UNL     1       1.608  10.438  19.331  0.00  0.00    +0.000 NA
ENDROOT
BRANCH   3  11
ATOM     11  C   UNL     1      -1.871  10.996  18.957  0.00  0.00    +0.000 A 
ATOM     12  C   UNL     1      -1.406  10.341  17.803  0.00  0.00    +0.000 A 
ATOM     13  C   UNL     1      -2.164  10.295  16.637  0.00  0.00    +0.000 A 
ATOM     14  C   UNL     1      -3.411  10.912  16.565  0.00  0.00    +0.000 A 
ATOM     15  C   UNL     1      -3.892  11.611  17.686  0.00  0.00    +0.000 A 
ATOM     16  C   UNL     1      -3.117  11.651  18.867  0.00  0.00    +0.000 A 
BRANCH  14  17
ATOM     17  O   UNL     1      -3.987  10.726  15.338  0.00  0.00    +0.000 OA
ATOM     18  C   UNL     1      -3.264  10.052  14.323  0.00  0.00    +0.000 C 
ENDBRANCH  14  17
BRANCH  15  19
ATOM     19  O   UNL     1      -5.107  12.235  17.561  0.00  0.00    +0.000 OA
ATOM     20  C   UNL     1      -6.280  11.541  17.954  0.00  0.00    +0.000 C 
ENDBRANCH  15  19
ENDBRANCH   3  11
BRANCH   1  22
ATOM     21  C   UNL     1       2.194   7.585  19.125  0.00  0.00    +0.000 C 
ATOM     22  C   UNL     1       1.479   8.160  20.106  0.00  0.00    +0.000 C 
BRANCH  21  26
ATOM     23  C   UNL     1       3.778   3.596  19.359  0.00  0.00    +0.000 A 
ATOM     24  C   UNL     1       4.502   4.638  18.761  0.00  0.00    +0.000 A 
ATOM     25  C   UNL     1       3.971   5.930  18.680  0.00  0.00    +0.000 A 
ATOM     26  C   UNL     1       2.687   6.200  19.156  0.00  0.00    +0.000 A 
ATOM     27  C   UNL     1       1.942   5.140  19.687  0.00  0.00    +0.000 A 
ATOM     28  C   UNL     1       2.464   3.837  19.785  0.00  0.00    +0.000 A 
BRANCH  23  30
ATOM     29  C   UNL     1       3.859   1.360  18.580  0.00  0.00    +0.000 C 
ATOM     30  O   UNL     1       4.323   2.347  19.500  0.00  0.00    +0.000 OA
ENDBRANCH  23  30
BRANCH  28  31
ATOM     31  O   UNL     1       1.559   2.964  20.330  0.00  0.00    +0.000 OA
ATOM     32  C   UNL     1       1.629   2.670  21.716  0.00  0.00    +0.000 C 
ENDBRANCH  28  31
ENDBRANCH  21  26
ENDBRANCH   1  22
TORSDOF 7
ENDMDL
MODEL 6
REMARK VINA RESULT:      -7.9      7.609     10.348
REMARK  Name = 
REMARK  12 active torsions:
REMARK  status: ('A' for Active; 'I' for Inactive)
REMARK    1  A    between atoms: C_1  and  O_2
REMARK    2  A    between atoms: O_2  and  C_3
REMARK    3  A    between atoms: C_6  and  C_7
REMARK    4  A    between atoms: C_8  and  C_9
REMARK    5  A    between atoms: C_11  and  C_12
REMARK    6  A    between atoms: C_15  and  O_16
REMARK    7  A    between atoms: O_16  and  C_17
REMARK    8  A    between atoms: C_18  and  O_19
REMARK    9  A    between atoms: O_19  and  C_20
REMARK   10  A    between atoms: C_23  and  C_24
REMARK   11  A    between atoms: C_30  and  O_31
REMARK   12  A    between atoms: O_31  and  C_32
REMARK                            x       y       z     vdW  Elec       q    Type
REMARK                         _______ _______ _______ _____ _____    ______ ____
ROOT
ATOM      1  C   UNL     1       9.447  11.168  18.701  0.00  0.00    +0.000 C 
ATOM      2  C   UNL     1      10.523  11.554  19.420  0.00  0.00    +0.000 C 
ATOM      3  C   UNL     1      10.837  13.024  19.614  0.00  0.00    +0.000 C 
ATOM      4  N   UNL     1      10.317  13.736  18.428  0.00  0.00    +0.000 N 
ATOM      5  C   UNL     1      10.483  15.132  18.241  0.00  0.00    +0.000 C 
ATOM      6  C   UNL     1      11.278  15.502  16.990  0.00  0.00    +0.000 C 
ATOM      7  C   UNL     1       9.289  15.784  18.297  0.00  0.00    +0.000 C 
ATOM      8  S   UNL     1       8.002  14.676  17.743  0.00  0.00    +0.000 S 
ATOM      9  C   UNL     1       9.044  13.288  18.089  0.00  0.00    +0.000 C 
ATOM     10  N   UNL     1       8.574  12.086  18.152  0.00  0.00    +0.000 NA
ENDROOT
BRANCH   3  11
ATOM     11  C   UNL     1      10.216  13.566  20.921  0.00  0.00    +0.000 A 
ATOM     12  C   UNL     1       9.276  12.817  21.650  0.00  0.00    +0.000 A 
ATOM     13  C   UNL     1       8.709  13.305  22.823  0.00  0.00    +0.000 A 
ATOM     14  C   UNL     1       9.043  14.565  23.314  0.00  0.00    +0.000 A 
ATOM     15  C   UNL     1       9.951  15.360  22.592  0.00  0.00    +0.000 A 
ATOM     16  C   UNL     1      10.524  14.856  21.402  0.00  0.00    +0.000 A 
BRANCH  14  17
ATOM     17  O   UNL     1       8.386  14.834  24.484  0.00  0.00    +0.000 OA
ATOM     18  C   UNL     1       8.457  13.905  25.552  0.00  0.00    +0.000 C 
ENDBRANCH  14  17
BRANCH  15  19
ATOM     19  O   UNL     1      10.224  16.608  23.089  0.00  0.00    +0.000 OA
ATOM     20  C   UNL     1      11.340  16.777  23.949  0.00  0.00    +0.000 C 
ENDBRANCH  15  19
ENDBRANCH   3  11
BRANCH   1  22
ATOM     21  C   UNL     1       8.212   9.199  17.811  0.00  0.00    +0.000 C 
ATOM     22  C   UNL     1       9.003   9.784  18.725  0.00  0.00    +0.000 C 
BRANCH  21  26
ATOM     23  C   UNL     1       6.689   5.204  18.254  0.00  0.00    +0.000 A 
ATOM     24  C   UNL     1       7.749   5.677  19.041  0.00  0.00    +0.000 A 
ATOM     25  C   UNL     1       8.244   6.975  18.880  0.00  0.00    +0.000 A 
ATOM     26  C   UNL     1       7.720   7.816  17.898  0.00  0.00    +0.000 A 
ATOM     27  C   UNL     1       6.711   7.315  17.068  0.00  0.00    +0.000 A 
ATOM     28  C   UNL     1       6.194   6.016  17.222  0.00  0.00    +0.000 A 
BRANCH  23  30
ATOM     29  C   UNL     1       4.919   3.917  19.162  0.00  0.00    +0.000 C 
ATOM     30  O   UNL     1       6.158   3.958  18.455  0.00  0.00    +0.000 OA
ENDBRANCH  23  30
BRANCH  28  31
ATOM     31  O   UNL     1       5.220   5.741  16.299  0.00  0.00    +0.000 OA
ATOM     32  C   UNL     1       5.581   5.126  15.072  0.00  0.00    +0.000 C 
ENDBRANCH  28  31
ENDBRANCH  21  26
ENDBRANCH   1  22
TORSDOF 7
ENDMDL
MODEL 7
REMARK VINA RESULT:      -7.8      0.990      1.868
REMARK  Name = 
REMARK  12 active torsions:
REMARK  status: ('A' for Active; 'I' for Inactive)
REMARK    1  A    between atoms: C_1  and  O_2
REMARK    2  A    between atoms: O_2  and  C_3
REMARK    3  A    between atoms: C_6  and  C_7
REMARK    4  A    between atoms: C_8  and  C_9
REMARK    5  A    between atoms: C_11  and  C_12
REMARK    6  A    between atoms: C_15  and  O_16
REMARK    7  A    between atoms: O_16  and  C_17
REMARK    8  A    between atoms: C_18  and  O_19
REMARK    9  A    between atoms: O_19  and  C_20
REMARK   10  A    between atoms: C_23  and  C_24
REMARK   11  A    between atoms: C_30  and  O_31
REMARK   12  A    between atoms: O_31  and  C_32
REMARK                            x       y       z     vdW  Elec       q    Type
REMARK                         _______ _______ _______ _____ _____    ______ ____
ROOT
ATOM      1  C   UNL     1       1.361  10.184  19.010  0.00  0.00    +0.000 C 
ATOM      2  C   UNL     1       0.305   9.862  19.789  0.00  0.00    +0.000 C 
ATOM      3  C   UNL     1      -0.675  10.927  20.242  0.00  0.00    +0.000 C 
ATOM      4  N   UNL     1       0.077  12.196  20.324  0.00  0.00    +0.000 N 
ATOM      5  C   UNL     1      -0.513  13.406  20.771  0.00  0.00    +0.000 C 
ATOM      6  C   UNL     1       0.139  13.990  22.025  0.00  0.00    +0.000 C 
ATOM      7  C   UNL     1      -0.592  14.320  19.766  0.00  0.00    +0.000 C 
ATOM      8  S   UNL     1       0.744  14.027  18.616  0.00  0.00    +0.000 S 
ATOM      9  C   UNL     1       0.899  12.369  19.214  0.00  0.00    +0.000 C 
ATOM     10  N   UNL     1       1.569  11.474  18.567  0.00  0.00    +0.000 NA
ENDROOT
BRANCH   3  11
ATOM     11  C   UNL     1      -1.875  11.036  19.276  0.00  0.00    +0.000 A 
ATOM     12  C   UNL     1      -2.970  11.872  19.560  0.00  0.00    +0.000 A 
ATOM     13  C   UNL     1      -4.056  11.967  18.696  0.00  0.00    +0.000 A 
ATOM     14  C   UNL     1      -4.107  11.224  17.519  0.00  0.00    +0.000 A 
ATOM     15  C   UNL     1      -3.049  10.348  17.220  0.00  0.00    +0.000 A 
ATOM     16  C   UNL     1      -1.948  10.258  18.102  0.00  0.00    +0.000 A 
BRANCH  14  17
ATOM     17  O   UNL     1      -5.251  11.485  16.815  0.00  0.00    +0.000 OA
ATOM     18  C   UNL     1      -6.012  12.639  17.125  0.00  0.00    +0.000 C 
ENDBRANCH  14  17
BRANCH  15  19
ATOM     19  O   UNL     1      -3.155   9.607  16.070  0.00  0.00    +0.000 OA
ATOM     20  C   UNL     1      -2.833  10.213  14.829  0.00  0.00    +0.000 C 
ENDBRANCH  15  19
ENDBRANCH   3  11
BRANCH   1  22
ATOM     21  C   UNL     1       2.165   7.846  18.724  0.00  0.00    +0.000 C 
ATOM     22  C   UNL     1       2.148   9.142  18.371  0.00  0.00    +0.000 C 
BRANCH  21  26
ATOM     23  C   UNL     1       4.539   4.845  16.765  0.00  0.00    +0.000 A 
ATOM     24  C   UNL     1       3.333   4.524  17.406  0.00  0.00    +0.000 A 
ATOM     25  C   UNL     1       2.575   5.507  18.050  0.00  0.00    +0.000 A 
ATOM     26  C   UNL     1       3.026   6.826  18.107  0.00  0.00    +0.000 A 
ATOM     27  C   UNL     1       4.264   7.127  17.528  0.00  0.00    +0.000 A 
ATOM     28  C   UNL     1       5.035   6.153  16.868  0.00  0.00    +0.000 A 
BRANCH  23  30
ATOM     29  C   UNL     1       5.429   4.148  14.684  0.00  0.00    +0.000 C 
ATOM     30  O   UNL     1       5.248   3.898  16.077  0.00  0.00    +0.000 OA
ENDBRANCH  23  30
BRANCH  28  31
ATOM     31  O   UNL     1       6.208   6.672  16.384  0.00  0.00    +0.000 OA
ATOM     32  C   UNL     1       7.360   6.671  17.212  0.00  0.00    +0.000 C 
ENDBRANCH  28  31
ENDBRANCH  21  26
ENDBRANCH   1  22
TORSDOF 7
ENDMDL
MODEL 8
REMARK VINA RESULT:      -7.7      1.244      1.896
REMARK  Name = 
REMARK  12 active torsions:
REMARK  status: ('A' for Active; 'I' for Inactive)
REMARK    1  A    between atoms: C_1  and  O_2
REMARK    2  A    between atoms: O_2  and  C_3
REMARK    3  A    between atoms: C_6  and  C_7
REMARK    4  A    between atoms: C_8  and  C_9
REMARK    5  A    between atoms: C_11  and  C_12
REMARK    6  A    between atoms: C_15  and  O_16
REMARK    7  A    between atoms: O_16  and  C_17
REMARK    8  A    between atoms: C_18  and  O_19
REMARK    9  A    between atoms: O_19  and  C_20
REMARK   10  A    between atoms: C_23  and  C_24
REMARK   11  A    between atoms: C_30  and  O_31
REMARK   12  A    between atoms: O_31  and  C_32
REMARK                            x       y       z     vdW  Elec       q    Type
REMARK                         _______ _______ _______ _____ _____    ______ ____
ROOT
ATOM      1  C   UNL     1       1.075   9.797  19.411  0.00  0.00    +0.000 C 
ATOM      2  C   UNL     1      -0.187   9.568  19.835  0.00  0.00    +0.000 C 
ATOM      3  C   UNL     1      -1.209  10.687  19.862  0.00  0.00    +0.000 C 
ATOM      4  N   UNL     1      -0.464  11.945  20.076  0.00  0.00    +0.000 N 
ATOM      5  C   UNL     1      -1.110  13.201  20.210  0.00  0.00    +0.000 C 
ATOM      6  C   UNL     1      -0.862  13.887  21.554  0.00  0.00    +0.000 C 
ATOM      7  C   UNL     1      -0.823  14.020  19.160  0.00  0.00    +0.000 C 
ATOM      8  S   UNL     1       0.793  13.598  18.527  0.00  0.00    +0.000 S 
ATOM      9  C   UNL     1       0.674  12.000  19.277  0.00  0.00    +0.000 C 
ATOM     10  N   UNL     1       1.473  11.037  18.953  0.00  0.00    +0.000 NA
ENDROOT
BRANCH   3  11
ATOM     11  C   UNL     1      -2.035  10.728  18.557  0.00  0.00    +0.000 A 
ATOM     12  C   UNL     1      -1.588  10.089  17.387  0.00  0.00    +0.000 A 
ATOM     13  C   UNL     1      -2.325  10.131  16.208  0.00  0.00    +0.000 A 
ATOM     14  C   UNL     1      -3.533  10.823  16.138  0.00  0.00    +0.000 A 
ATOM     15  C   UNL     1      -3.993  11.507  17.277  0.00  0.00    +0.000 A 
ATOM     16  C   UNL     1      -3.239  11.458  18.472  0.00  0.00    +0.000 A 
BRANCH  14  17
ATOM     17  O   UNL     1      -4.096  10.717  14.896  0.00  0.00    +0.000 OA
ATOM     18  C   UNL     1      -3.436   9.963  13.894  0.00  0.00    +0.000 C 
ENDBRANCH  14  17
BRANCH  15  19
ATOM     19  O   UNL     1      -5.167  12.206  17.156  0.00  0.00    +0.000 OA
ATOM     20  C   UNL     1      -6.337  11.698  17.777  0.00  0.00    +0.000 C 
ENDBRANCH  15  19
ENDBRANCH   3  11
BRANCH   1  22
ATOM     21  C   UNL     1       2.571   8.427  17.970  0.00  0.00    +0.000 C 
ATOM     22  C   UNL     1       1.975   8.687  19.145  0.00  0.00    +0.000 C 
BRANCH  21  26
ATOM     23  C   UNL     1       5.223   5.121  17.250  0.00  0.00    +0.000 A 
ATOM     24  C   UNL     1       5.148   6.208  16.365  0.00  0.00    +0.000 A 
ATOM     25  C   UNL     1       4.273   7.272  16.604  0.00  0.00    +0.000 A 
ATOM     26  C   UNL     1       3.421   7.255  17.709  0.00  0.00    +0.000 A 
ATOM     27  C   UNL     1       3.450   6.136  18.550  0.00  0.00    +0.000 A 
ATOM     28  C   UNL     1       4.330   5.061  18.330  0.00  0.00    +0.000 A 
BRANCH  23  30
ATOM     29  C   UNL     1       7.488   4.433  17.333  0.00  0.00    +0.000 C 
ATOM     30  O   UNL     1       6.127   4.111  17.055  0.00  0.00    +0.000 OA
ENDBRANCH  23  30
BRANCH  28  31
ATOM     31  O   UNL     1       4.180   4.078  19.273  0.00  0.00    +0.000 OA
ATOM     32  C   UNL     1       3.180   3.088  19.090  0.00  0.00    +0.000 C 
ENDBRANCH  28  31
ENDBRANCH  21  26
ENDBRANCH   1  22
TORSDOF 7
ENDMDL
MODEL 9
REMARK VINA RESULT:      -7.7      2.214      3.384
REMARK  Name = 
REMARK  12 active torsions:
REMARK  status: ('A' for Active; 'I' for Inactive)
REMARK    1  A    between atoms: C_1  and  O_2
REMARK    2  A    between atoms: O_2  and  C_3
REMARK    3  A    between atoms: C_6  and  C_7
REMARK    4  A    between atoms: C_8  and  C_9
REMARK    5  A    between atoms: C_11  and  C_12
REMARK    6  A    between atoms: C_15  and  O_16
REMARK    7  A    between atoms: O_16  and  C_17
REMARK    8  A    between atoms: C_18  and  O_19
REMARK    9  A    between atoms: O_19  and  C_20
REMARK   10  A    between atoms: C_23  and  C_24
REMARK   11  A    between atoms: C_30  and  O_31
REMARK   12  A    between atoms: O_31  and  C_32
REMARK                            x       y       z     vdW  Elec       q    Type
REMARK                         _______ _______ _______ _____ _____    ______ ____
ROOT
ATOM      1  C   UNL     1       1.012   9.887  19.662  0.00  0.00    +0.000 C 
ATOM      2  C   UNL     1      -0.102  10.019  20.415  0.00  0.00    +0.000 C 
ATOM      3  C   UNL     1      -0.790  11.362  20.550  0.00  0.00    +0.000 C 
ATOM      4  N   UNL     1       0.254  12.398  20.401  0.00  0.00    +0.000 N 
ATOM      5  C   UNL     1      -0.022  13.784  20.526  0.00  0.00    +0.000 C 
ATOM      6  C   UNL     1       0.737  14.469  21.662  0.00  0.00    +0.000 C 
ATOM      7  C   UNL     1       0.144  14.430  19.339  0.00  0.00    +0.000 C 
ATOM      8  S   UNL     1       1.380  13.566  18.382  0.00  0.00    +0.000 S 
ATOM      9  C   UNL     1       1.108  12.105  19.342  0.00  0.00    +0.000 C 
ATOM     10  N   UNL     1       1.542  10.950  18.959  0.00  0.00    +0.000 NA
ENDROOT
BRANCH   3  11
ATOM     11  C   UNL     1      -1.912  11.529  19.500  0.00  0.00    +0.000 A 
ATOM     12  C   UNL     1      -3.198  11.964  19.865  0.00  0.00    +0.000 A 
ATOM     13  C   UNL     1      -4.212  12.107  18.925  0.00  0.00    +0.000 A 
ATOM     14  C   UNL     1      -3.995  11.810  17.581  0.00  0.00    +0.000 A 
ATOM     15  C   UNL     1      -2.733  11.335  17.183  0.00  0.00    +0.000 A 
ATOM     16  C   UNL     1      -1.707  11.195  18.146  0.00  0.00    +0.000 A 
BRANCH  14  17
ATOM     17  O   UNL     1      -5.117  12.040  16.832  0.00  0.00    +0.000 OA
ATOM     18  C   UNL     1      -6.150  12.854  17.358  0.00  0.00    +0.000 C 
ENDBRANCH  14  17
BRANCH  15  19
ATOM     19  O   UNL     1      -2.571  11.020  15.858  0.00  0.00    +0.000 OA
ATOM     20  C   UNL     1      -3.039   9.766  15.388  0.00  0.00    +0.000 C 
ENDBRANCH  15  19
ENDBRANCH   3  11
BRANCH   1  22
ATOM     21  C   UNL     1       1.747   7.572  20.201  0.00  0.00    +0.000 C 
ATOM     22  C   UNL     1       1.523   8.568  19.328  0.00  0.00    +0.000 C 
BRANCH  21  26
ATOM     23  C   UNL     1       3.651   3.854  19.183  0.00  0.00    +0.000 A 
ATOM     24  C   UNL     1       3.662   4.949  18.306  0.00  0.00    +0.000 A 
ATOM     25  C   UNL     1       3.030   6.149  18.643  0.00  0.00    +0.000 A 
ATOM     26  C   UNL     1       2.333   6.270  19.846  0.00  0.00    +0.000 A 
ATOM     27  C   UNL     1       2.264   5.152  20.686  0.00  0.00    +0.000 A 
ATOM     28  C   UNL     1       2.903   3.940  20.367  0.00  0.00    +0.000 A 
BRANCH  23  30
ATOM     29  C   UNL     1       3.558   1.676  18.259  0.00  0.00    +0.000 C 
ATOM     30  O   UNL     1       4.327   2.702  18.885  0.00  0.00    +0.000 OA
ENDBRANCH  23  30
BRANCH  28  31
ATOM     31  O   UNL     1       2.697   2.986  21.329  0.00  0.00    +0.000 OA
ATOM     32  C   UNL     1       1.370   2.613  21.663  0.00  0.00    +0.000 C 
ENDBRANCH  28  31
ENDBRANCH  21  26
ENDBRANCH   1  22
TORSDOF 7
ENDMDL
