MODEL 1
REMARK VINA RESULT:      -7.5      0.000      0.000
REMARK  Name = 
REMARK  5 active torsions:
REMARK  status: ('A' for Active; 'I' for Inactive)
REMARK    1  A    between atoms: S_2  and  N_4
REMARK    2  A    between atoms: S_2  and  C_18
REMARK    3  A    between atoms: N_4  and  C_5
REMARK    4  A    between atoms: C_11  and  C_12
REMARK    5  A    between atoms: C_12  and  N_13
REMARK                            x       y       z     vdW  Elec       q    Type
REMARK                         _______ _______ _______ _____ _____    ______ ____
ROOT
ATOM      1  C   UNL     1       2.698   6.548  19.787  0.00  0.00    +0.000 A 
ATOM      2  C   UNL     1       1.734   7.501  20.139  0.00  0.00    +0.000 A 
ATOM      3  C   UNL     1       1.465   8.570  19.287  0.00  0.00    +0.000 A 
ATOM      4 CL   UNL     1       0.303   9.758  19.740  0.00  0.00    +0.000 Cl
ATOM      5  C   UNL     1       2.143   8.699  18.082  0.00  0.00    +0.000 A 
ATOM      6  C   UNL     1       3.066   7.725  17.703  0.00  0.00    +0.000 A 
ATOM      7  C   UNL     1       3.335   6.617  18.534  0.00  0.00    +0.000 A 
ENDROOT
BRANCH   1   8
ATOM      8  N   UNL     1       3.007   5.544  20.760  0.00  0.00    +0.000 N 
ATOM      9  H   UNL     1       3.991   5.259  20.780  0.00  0.00    +0.000 HD
BRANCH   8  11
ATOM     10  O   UNL     1       2.100   3.628  22.205  0.00  0.00    +0.000 OA
ATOM     11  S   UNL     1       1.941   4.232  20.898  0.00  0.00    +0.000 S 
ATOM     12  O   UNL     1       0.641   4.666  20.428  0.00  0.00    +0.000 OA
BRANCH  11  13
ATOM     13  C   UNL     1       2.614   3.116  19.687  0.00  0.00    +0.000 A 
ATOM     14  C   UNL     1       1.975   2.966  18.455  0.00  0.00    +0.000 A 
ATOM     15  C   UNL     1       2.498   2.085  17.505  0.00  0.00    +0.000 A 
ATOM     16  C   UNL     1       3.662   1.365  17.788  0.00  0.00    +0.000 A 
ATOM     17  C   UNL     1       4.312   1.536  19.013  0.00  0.00    +0.000 A 
ATOM     18  C   UNL     1       3.795   2.417  19.965  0.00  0.00    +0.000 A 
ENDBRANCH  11  13
ENDBRANCH   8  11
ENDBRANCH   1   8
BRANCH   7  19
ATOM     19  C   UNL     1       4.283   5.561  18.022  0.00  0.00    +0.000 C 
BRANCH  19  20
ATOM     20  N   UNL     1       5.635   5.731  18.515  0.00  0.00    +0.000 N 
ATOM     21  C   UNL     1       6.694   6.291  17.861  0.00  0.00    +0.000 A 
ATOM     22  C   UNL     1       7.758   6.038  18.691  0.00  0.00    +0.000 A 
ATOM     23  N   UNL     1       7.325   5.354  19.793  0.00  0.00    +0.000 NA
ATOM     24  N   UNL     1       6.019   5.154  19.669  0.00  0.00    +0.000 NA
ENDBRANCH  19  20
ENDBRANCH   7  19
TORSDOF 5
ENDMDL
MODEL 2
REMARK VINA RESULT:      -7.5      0.121      1.018
REMARK  Name = 
REMARK  5 active torsions:
REMARK  status: ('A' for Active; 'I' for Inactive)
REMARK    1  A    between atoms: S_2  and  N_4
REMARK    2  A    between atoms: S_2  and  C_18
REMARK    3  A    between atoms: N_4  and  C_5
REMARK    4  A    between atoms: C_11  and  C_12
REMARK    5  A    between atoms: C_12  and  N_13
REMARK                            x       y       z     vdW  Elec       q    Type
REMARK                         _______ _______ _______ _____ _____    ______ ____
ROOT
ATOM      1  C   UNL     1       2.772   6.593  19.693  0.00  0.00    +0.000 A 
ATOM      2  C   UNL     1       1.798   7.548  20.010  0.00  0.00    +0.000 A 
ATOM      3  C   UNL     1       1.536   8.598  19.131  0.00  0.00    +0.000 A 
ATOM      4 CL   UNL     1       0.362   9.788  19.540  0.00  0.00    +0.000 Cl
ATOM      5  C   UNL     1       2.232   8.704  17.933  0.00  0.00    +0.000 A 
ATOM      6  C   UNL     1       3.166   7.727  17.589  0.00  0.00    +0.000 A 
ATOM      7  C   UNL     1       3.428   6.639  18.448  0.00  0.00    +0.000 A 
ENDROOT
BRANCH   1   8
ATOM      8  N   UNL     1       3.071   5.612  20.692  0.00  0.00    +0.000 N 
ATOM      9  H   UNL     1       4.053   5.316  20.718  0.00  0.00    +0.000 HD
BRANCH   8  11
ATOM     10  O   UNL     1       2.176   3.719  22.174  0.00  0.00    +0.000 OA
ATOM     11  S   UNL     1       1.990   4.318  20.869  0.00  0.00    +0.000 S 
ATOM     12  O   UNL     1       0.685   4.768  20.431  0.00  0.00    +0.000 OA
BRANCH  11  13
ATOM     13  C   UNL     1       2.613   3.184  19.647  0.00  0.00    +0.000 A 
ATOM     14  C   UNL     1       3.743   2.416  19.930  0.00  0.00    +0.000 A 
ATOM     15  C   UNL     1       4.238   1.529  18.970  0.00  0.00    +0.000 A 
ATOM     16  C   UNL     1       3.596   1.409  17.735  0.00  0.00    +0.000 A 
ATOM     17  C   UNL     1       2.450   2.163  17.464  0.00  0.00    +0.000 A 
ATOM     18  C   UNL     1       1.950   3.048  18.421  0.00  0.00    +0.000 A 
ENDBRANCH  11  13
ENDBRANCH   8  11
ENDBRANCH   1   8
BRANCH   7  19
ATOM     19  C   UNL     1       4.388   5.576  17.974  0.00  0.00    +0.000 C 
BRANCH  19  20
ATOM     20  N   UNL     1       5.721   5.740  18.517  0.00  0.00    +0.000 N 
ATOM     21  C   UNL     1       6.797   6.329  17.919  0.00  0.00    +0.000 A 
ATOM     22  C   UNL     1       7.834   6.056  18.775  0.00  0.00    +0.000 A 
ATOM     23  N   UNL     1       7.371   5.333  19.839  0.00  0.00    +0.000 NA
ATOM     24  N   UNL     1       6.072   5.128  19.664  0.00  0.00    +0.000 NA
ENDBRANCH  19  20
ENDBRANCH   7  19
TORSDOF 5
ENDMDL
MODEL 3
REMARK VINA RESULT:      -7.5      3.505      4.418
REMARK  Name = 
REMARK  5 active torsions:
REMARK  status: ('A' for Active; 'I' for Inactive)
REMARK    1  A    between atoms: S_2  and  N_4
REMARK    2  A    between atoms: S_2  and  C_18
REMARK    3  A    between atoms: N_4  and  C_5
REMARK    4  A    between atoms: C_11  and  C_12
REMARK    5  A    between atoms: C_12  and  N_13
REMARK                            x       y       z     vdW  Elec       q    Type
REMARK                         _______ _______ _______ _____ _____    ______ ____
ROOT
ATOM      1  C   UNL     1       4.708   4.607  17.348  0.00  0.00    +0.000 A 
ATOM      2  C   UNL     1       3.851   5.555  17.919  0.00  0.00    +0.000 A 
ATOM      3  C   UNL     1       3.807   6.853  17.412  0.00  0.00    +0.000 A 
ATOM      4 CL   UNL     1       2.776   8.024  18.140  0.00  0.00    +0.000 Cl
ATOM      5  C   UNL     1       4.607   7.217  16.337  0.00  0.00    +0.000 A 
ATOM      6  C   UNL     1       5.425   6.263  15.732  0.00  0.00    +0.000 A 
ATOM      7  C   UNL     1       5.465   4.935  16.206  0.00  0.00    +0.000 A 
ENDROOT
BRANCH   1   8
ATOM      8  N   UNL     1       4.788   3.330  17.990  0.00  0.00    +0.000 N 
ATOM      9  H   UNL     1       5.689   2.853  17.878  0.00  0.00    +0.000 HD
BRANCH   8  11
ATOM     10  O   UNL     1       2.636   2.739  16.724  0.00  0.00    +0.000 OA
ATOM     11  S   UNL     1       3.465   2.283  17.821  0.00  0.00    +0.000 S 
ATOM     12  O   UNL     1       3.965   0.925  17.868  0.00  0.00    +0.000 OA
BRANCH  11  13
ATOM     13  C   UNL     1       2.589   2.593  19.339  0.00  0.00    +0.000 A 
ATOM     14  C   UNL     1       3.258   2.477  20.558  0.00  0.00    +0.000 A 
ATOM     15  C   UNL     1       2.571   2.713  21.752  0.00  0.00    +0.000 A 
ATOM     16  C   UNL     1       1.222   3.073  21.720  0.00  0.00    +0.000 A 
ATOM     17  C   UNL     1       0.562   3.212  20.496  0.00  0.00    +0.000 A 
ATOM     18  C   UNL     1       1.244   2.980  19.300  0.00  0.00    +0.000 A 
ENDBRANCH  11  13
ENDBRANCH   8  11
ENDBRANCH   1   8
BRANCH   7  19
ATOM     19  C   UNL     1       6.308   3.937  15.451  0.00  0.00    +0.000 C 
BRANCH  19  20
ATOM     20  N   UNL     1       6.774   4.445  14.177  0.00  0.00    +0.000 N 
ATOM     21  C   UNL     1       6.477   3.968  12.933  0.00  0.00    +0.000 A 
ATOM     22  C   UNL     1       7.309   4.680  12.105  0.00  0.00    +0.000 A 
ATOM     23  N   UNL     1       8.063   5.545  12.849  0.00  0.00    +0.000 NA
ATOM     24  N   UNL     1       7.739   5.382  14.126  0.00  0.00    +0.000 NA
ENDBRANCH  19  20
ENDBRANCH   7  19
TORSDOF 5
ENDMDL
MODEL 4
REMARK VINA RESULT:      -7.2      3.513      4.672
REMARK  Name = 
REMARK  5 active torsions:
REMARK  status: ('A' for Active; 'I' for Inactive)
REMARK    1  A    between atoms: S_2  and  N_4
REMARK    2  A    between atoms: S_2  and  C_18
REMARK    3  A    between atoms: N_4  and  C_5
REMARK    4  A    between atoms: C_11  and  C_12
REMARK    5  A    between atoms: C_12  and  N_13
REMARK                            x       y       z     vdW  Elec       q    Type
REMARK                         _______ _______ _______ _____ _____    ______ ____
ROOT
ATOM      1  C   UNL     1       5.284   3.988  16.416  0.00  0.00    +0.000 A 
ATOM      2  C   UNL     1       5.543   3.316  15.216  0.00  0.00    +0.000 A 
ATOM      3  C   UNL     1       5.724   4.037  14.036  0.00  0.00    +0.000 A 
ATOM      4 CL   UNL     1       6.009   3.205  12.557  0.00  0.00    +0.000 Cl
ATOM      5  C   UNL     1       5.653   5.424  14.041  0.00  0.00    +0.000 A 
ATOM      6  C   UNL     1       5.445   6.100  15.243  0.00  0.00    +0.000 A 
ATOM      7  C   UNL     1       5.290   5.395  16.455  0.00  0.00    +0.000 A 
ENDROOT
BRANCH   1   8
ATOM      8  N   UNL     1       4.994   3.182  17.564  0.00  0.00    +0.000 N 
ATOM      9  H   UNL     1       5.713   2.487  17.789  0.00  0.00    +0.000 HD
BRANCH   8  11
ATOM     10  O   UNL     1       2.638   2.981  16.568  0.00  0.00    +0.000 OA
ATOM     11  S   UNL     1       3.419   2.573  17.717  0.00  0.00    +0.000 S 
ATOM     12  O   UNL     1       3.518   1.179  18.098  0.00  0.00    +0.000 OA
BRANCH  11  13
ATOM     13  C   UNL     1       2.837   3.483  19.132  0.00  0.00    +0.000 A 
ATOM     14  C   UNL     1       2.442   4.813  18.983  0.00  0.00    +0.000 A 
ATOM     15  C   UNL     1       1.991   5.532  20.092  0.00  0.00    +0.000 A 
ATOM     16  C   UNL     1       1.929   4.915  21.344  0.00  0.00    +0.000 A 
ATOM     17  C   UNL     1       2.303   3.575  21.485  0.00  0.00    +0.000 A 
ATOM     18  C   UNL     1       2.751   2.851  20.378  0.00  0.00    +0.000 A 
ENDBRANCH  11  13
ENDBRANCH   8  11
ENDBRANCH   1   8
BRANCH   7  19
ATOM     19  C   UNL     1       5.153   6.194  17.727  0.00  0.00    +0.000 C 
BRANCH  19  20
ATOM     20  N   UNL     1       6.310   6.077  18.592  0.00  0.00    +0.000 N 
ATOM     21  C   UNL     1       7.567   6.561  18.372  0.00  0.00    +0.000 A 
ATOM     22  C   UNL     1       8.306   6.023  19.395  0.00  0.00    +0.000 A 
ATOM     23  N   UNL     1       7.499   5.252  20.186  0.00  0.00    +0.000 NA
ATOM     24  N   UNL     1       6.275   5.276  19.675  0.00  0.00    +0.000 NA
ENDBRANCH  19  20
ENDBRANCH   7  19
TORSDOF 5
ENDMDL
MODEL 5
REMARK VINA RESULT:      -7.2      3.841      4.978
REMARK  Name = 
REMARK  5 active torsions:
REMARK  status: ('A' for Active; 'I' for Inactive)
REMARK    1  A    between atoms: S_2  and  N_4
REMARK    2  A    between atoms: S_2  and  C_18
REMARK    3  A    between atoms: N_4  and  C_5
REMARK    4  A    between atoms: C_11  and  C_12
REMARK    5  A    between atoms: C_12  and  N_13
REMARK                            x       y       z     vdW  Elec       q    Type
REMARK                         _______ _______ _______ _____ _____    ______ ____
ROOT
ATOM      1  C   UNL     1       5.536   3.766  16.286  0.00  0.00    +0.000 A 
ATOM      2  C   UNL     1       5.301   3.341  14.973  0.00  0.00    +0.000 A 
ATOM      3  C   UNL     1       6.058   3.862  13.924  0.00  0.00    +0.000 A 
ATOM      4 CL   UNL     1       5.742   3.362  12.307  0.00  0.00    +0.000 Cl
ATOM      5  C   UNL     1       7.052   4.800  14.170  0.00  0.00    +0.000 A 
ATOM      6  C   UNL     1       7.324   5.188  15.482  0.00  0.00    +0.000 A 
ATOM      7  C   UNL     1       6.593   4.653  16.563  0.00  0.00    +0.000 A 
ENDROOT
BRANCH   1   8
ATOM      8  N   UNL     1       4.647   3.279  17.297  0.00  0.00    +0.000 N 
ATOM      9  H   UNL     1       4.573   2.258  17.344  0.00  0.00    +0.000 HD
BRANCH   8  11
ATOM     10  O   UNL     1       3.353   5.487  17.475  0.00  0.00    +0.000 OA
ATOM     11  S   UNL     1       3.148   4.054  17.462  0.00  0.00    +0.000 S 
ATOM     12  O   UNL     1       2.225   3.438  16.531  0.00  0.00    +0.000 OA
BRANCH  11  13
ATOM     13  C   UNL     1       2.682   3.548  19.104  0.00  0.00    +0.000 A 
ATOM     14  C   UNL     1       3.608   2.890  19.913  0.00  0.00    +0.000 A 
ATOM     15  C   UNL     1       3.243   2.486  21.200  0.00  0.00    +0.000 A 
ATOM     16  C   UNL     1       1.956   2.750  21.674  0.00  0.00    +0.000 A 
ATOM     17  C   UNL     1       1.038   3.432  20.869  0.00  0.00    +0.000 A 
ATOM     18  C   UNL     1       1.399   3.840  19.584  0.00  0.00    +0.000 A 
ENDBRANCH  11  13
ENDBRANCH   8  11
ENDBRANCH   1   8
BRANCH   7  19
ATOM     19  C   UNL     1       6.998   5.055  17.960  0.00  0.00    +0.000 C 
BRANCH  19  20
ATOM     20  N   UNL     1       7.338   6.459  18.066  0.00  0.00    +0.000 N 
ATOM     21  C   UNL     1       6.859   7.491  17.311  0.00  0.00    +0.000 A 
ATOM     22  C   UNL     1       7.630   8.559  17.694  0.00  0.00    +0.000 A 
ATOM     23  N   UNL     1       8.526   8.158  18.646  0.00  0.00    +0.000 NA
ATOM     24  N   UNL     1       8.351   6.860  18.857  0.00  0.00    +0.000 NA
ENDBRANCH  19  20
ENDBRANCH   7  19
TORSDOF 5
ENDMDL
MODEL 6
REMARK VINA RESULT:      -7.2      3.822      4.911
REMARK  Name = 
REMARK  5 active torsions:
REMARK  status: ('A' for Active; 'I' for Inactive)
REMARK    1  A    between atoms: S_2  and  N_4
REMARK    2  A    between atoms: S_2  and  C_18
REMARK    3  A    between atoms: N_4  and  C_5
REMARK    4  A    between atoms: C_11  and  C_12
REMARK    5  A    between atoms: C_12  and  N_13
REMARK                            x       y       z     vdW  Elec       q    Type
REMARK                         _______ _______ _______ _____ _____    ______ ____
ROOT
ATOM      1  C   UNL     1       5.603   3.800  16.274  0.00  0.00    +0.000 A 
ATOM      2  C   UNL     1       5.249   3.395  14.982  0.00  0.00    +0.000 A 
ATOM      3  C   UNL     1       5.970   3.857  13.882  0.00  0.00    +0.000 A 
ATOM      4 CL   UNL     1       5.509   3.384  12.292  0.00  0.00    +0.000 Cl
ATOM      5  C   UNL     1       7.047   4.717  14.056  0.00  0.00    +0.000 A 
ATOM      6  C   UNL     1       7.436   5.082  15.345  0.00  0.00    +0.000 A 
ATOM      7  C   UNL     1       6.741   4.604  16.476  0.00  0.00    +0.000 A 
ENDROOT
BRANCH   1   8
ATOM      8  N   UNL     1       4.750   3.381  17.345  0.00  0.00    +0.000 N 
ATOM      9  H   UNL     1       4.708   2.366  17.484  0.00  0.00    +0.000 HD
BRANCH   8  11
ATOM     10  O   UNL     1       3.406   5.562  17.477  0.00  0.00    +0.000 OA
ATOM     11  S   UNL     1       3.232   4.125  17.475  0.00  0.00    +0.000 S 
ATOM     12  O   UNL     1       2.340   3.480  16.533  0.00  0.00    +0.000 OA
BRANCH  11  13
ATOM     13  C   UNL     1       2.746   3.625  19.112  0.00  0.00    +0.000 A 
ATOM     14  C   UNL     1       1.487   3.980  19.598  0.00  0.00    +0.000 A 
ATOM     15  C   UNL     1       1.106   3.594  20.886  0.00  0.00    +0.000 A 
ATOM     16  C   UNL     1       1.982   2.848  21.678  0.00  0.00    +0.000 A 
ATOM     17  C   UNL     1       3.234   2.474  21.179  0.00  0.00    +0.000 A 
ATOM     18  C   UNL     1       3.618   2.855  19.892  0.00  0.00    +0.000 A 
ENDBRANCH  11  13
ENDBRANCH   8  11
ENDBRANCH   1   8
BRANCH   7  19
ATOM     19  C   UNL     1       7.268   4.973  17.840  0.00  0.00    +0.000 C 
BRANCH  19  20
ATOM     20  N   UNL     1       7.478   6.398  17.996  0.00  0.00    +0.000 N 
ATOM     21  C   UNL     1       6.960   7.404  17.233  0.00  0.00    +0.000 A 
ATOM     22  C   UNL     1       7.610   8.524  17.687  0.00  0.00    +0.000 A 
ATOM     23  N   UNL     1       8.476   8.176  18.687  0.00  0.00    +0.000 NA
ATOM     24  N   UNL     1       8.401   6.862  18.860  0.00  0.00    +0.000 NA
ENDBRANCH  19  20
ENDBRANCH   7  19
TORSDOF 5
ENDMDL
MODEL 7
REMARK VINA RESULT:      -7.2      3.832      5.383
REMARK  Name = 
REMARK  5 active torsions:
REMARK  status: ('A' for Active; 'I' for Inactive)
REMARK    1  A    between atoms: S_2  and  N_4
REMARK    2  A    between atoms: S_2  and  C_18
REMARK    3  A    between atoms: N_4  and  C_5
REMARK    4  A    between atoms: C_11  and  C_12
REMARK    5  A    between atoms: C_12  and  N_13
REMARK                            x       y       z     vdW  Elec       q    Type
REMARK                         _______ _______ _______ _____ _____    ______ ____
ROOT
ATOM      1  C   UNL     1       3.884   5.907  17.606  0.00  0.00    +0.000 A 
ATOM      2  C   UNL     1       3.486   7.204  17.262  0.00  0.00    +0.000 A 
ATOM      3  C   UNL     1       2.711   7.955  18.144  0.00  0.00    +0.000 A 
ATOM      4 CL   UNL     1       2.195   9.537  17.702  0.00  0.00    +0.000 Cl
ATOM      5  C   UNL     1       2.329   7.427  19.371  0.00  0.00    +0.000 A 
ATOM      6  C   UNL     1       2.766   6.155  19.741  0.00  0.00    +0.000 A 
ATOM      7  C   UNL     1       3.577   5.387  18.878  0.00  0.00    +0.000 A 
ENDROOT
BRANCH   1   8
ATOM      8  N   UNL     1       4.579   5.151  16.608  0.00  0.00    +0.000 N 
ATOM      9  H   UNL     1       4.335   4.156  16.581  0.00  0.00    +0.000 HD
BRANCH   8  11
ATOM     10  O   UNL     1       6.497   6.850  16.496  0.00  0.00    +0.000 OA
ATOM     11  S   UNL     1       6.242   5.426  16.433  0.00  0.00    +0.000 S 
ATOM     12  O   UNL     1       6.938   4.502  17.305  0.00  0.00    +0.000 OA
BRANCH  11  13
ATOM     13  C   UNL     1       6.502   4.892  14.756  0.00  0.00    +0.000 A 
ATOM     14  C   UNL     1       5.624   3.973  14.180  0.00  0.00    +0.000 A 
ATOM     15  C   UNL     1       5.829   3.547  12.865  0.00  0.00    +0.000 A 
ATOM     16  C   UNL     1       6.906   4.048  12.130  0.00  0.00    +0.000 A 
ATOM     17  C   UNL     1       7.770   4.986  12.702  0.00  0.00    +0.000 A 
ATOM     18  C   UNL     1       7.568   5.418  14.015  0.00  0.00    +0.000 A 
ENDBRANCH  11  13
ENDBRANCH   8  11
ENDBRANCH   1   8
BRANCH   7  19
ATOM     19  C   UNL     1       4.080   4.056  19.378  0.00  0.00    +0.000 C 
BRANCH  19  20
ATOM     20  N   UNL     1       3.072   3.309  20.103  0.00  0.00    +0.000 N 
ATOM     21  C   UNL     1       1.824   2.961  19.673  0.00  0.00    +0.000 A 
ATOM     22  C   UNL     1       1.230   2.436  20.793  0.00  0.00    +0.000 A 
ATOM     23  N   UNL     1       2.110   2.475  21.839  0.00  0.00    +0.000 NA
ATOM     24  N   UNL     1       3.237   3.030  21.410  0.00  0.00    +0.000 NA
ENDBRANCH  19  20
ENDBRANCH   7  19
TORSDOF 5
ENDMDL
MODEL 8
REMARK VINA RESULT:      -7.1      4.798      5.741
REMARK  Name = 
REMARK  5 active torsions:
REMARK  status: ('A' for Active; 'I' for Inactive)
REMARK    1  A    between atoms: S_2  and  N_4
REMARK    2  A    between atoms: S_2  and  C_18
REMARK    3  A    between atoms: N_4  and  C_5
REMARK    4  A    between atoms: C_11  and  C_12
REMARK    5  A    between atoms: C_12  and  N_13
REMARK                            x       y       z     vdW  Elec       q    Type
REMARK                         _______ _______ _______ _____ _____    ______ ____
ROOT
ATOM      1  C   UNL     1       5.325   4.247  17.092  0.00  0.00    +0.000 A 
ATOM      2  C   UNL     1       3.939   4.053  17.034  0.00  0.00    +0.000 A 
ATOM      3  C   UNL     1       3.143   4.374  18.132  0.00  0.00    +0.000 A 
ATOM      4 CL   UNL     1       1.444   4.103  18.070  0.00  0.00    +0.000 Cl
ATOM      5  C   UNL     1       3.713   4.892  19.289  0.00  0.00    +0.000 A 
ATOM      6  C   UNL     1       5.085   5.135  19.332  0.00  0.00    +0.000 A 
ATOM      7  C   UNL     1       5.909   4.847  18.224  0.00  0.00    +0.000 A 
ENDROOT
BRANCH   1   8
ATOM      8  N   UNL     1       6.093   3.788  15.974  0.00  0.00    +0.000 N 
ATOM      9  H   UNL     1       6.908   3.217  16.223  0.00  0.00    +0.000 HD
BRANCH   8  11
ATOM     10  O   UNL     1       5.437   5.960  14.778  0.00  0.00    +0.000 OA
ATOM     11  S   UNL     1       6.425   4.902  14.740  0.00  0.00    +0.000 S 
ATOM     12  O   UNL     1       7.842   5.198  14.780  0.00  0.00    +0.000 OA
BRANCH  11  13
ATOM     13  C   UNL     1       6.117   3.910  13.294  0.00  0.00    +0.000 A 
ATOM     14  C   UNL     1       4.804   3.690  12.875  0.00  0.00    +0.000 A 
ATOM     15  C   UNL     1       4.559   2.907  11.744  0.00  0.00    +0.000 A 
ATOM     16  C   UNL     1       5.628   2.355  11.033  0.00  0.00    +0.000 A 
ATOM     17  C   UNL     1       6.943   2.598  11.443  0.00  0.00    +0.000 A 
ATOM     18  C   UNL     1       7.193   3.383  12.570  0.00  0.00    +0.000 A 
ENDBRANCH  11  13
ENDBRANCH   8  11
ENDBRANCH   1   8
BRANCH   7  19
ATOM     19  C   UNL     1       7.370   5.213  18.311  0.00  0.00    +0.000 C 
BRANCH  19  20
ATOM     20  N   UNL     1       7.597   6.642  18.245  0.00  0.00    +0.000 N 
ATOM     21  C   UNL     1       7.105   7.521  17.323  0.00  0.00    +0.000 A 
ATOM     22  C   UNL     1       7.763   8.691  17.607  0.00  0.00    +0.000 A 
ATOM     23  N   UNL     1       8.608   8.496  18.664  0.00  0.00    +0.000 NA
ATOM     24  N   UNL     1       8.512   7.227  19.040  0.00  0.00    +0.000 NA
ENDBRANCH  19  20
ENDBRANCH   7  19
TORSDOF 5
ENDMDL
MODEL 9
REMARK VINA RESULT:      -7.1      2.529      5.224
REMARK  Name = 
REMARK  5 active torsions:
REMARK  status: ('A' for Active; 'I' for Inactive)
REMARK    1  A    between atoms: S_2  and  N_4
REMARK    2  A    between atoms: S_2  and  C_18
REMARK    3  A    between atoms: N_4  and  C_5
REMARK    4  A    between atoms: C_11  and  C_12
REMARK    5  A    between atoms: C_12  and  N_13
REMARK                            x       y       z     vdW  Elec       q    Type
REMARK                         _______ _______ _______ _____ _____    ______ ____
ROOT
ATOM      1  C   UNL     1       3.446   4.828  19.700  0.00  0.00    +0.000 A 
ATOM      2  C   UNL     1       2.567   4.368  20.689  0.00  0.00    +0.000 A 
ATOM      3  C   UNL     1       2.271   3.009  20.783  0.00  0.00    +0.000 A 
ATOM      4 CL   UNL     1       1.164   2.453  21.979  0.00  0.00    +0.000 Cl
ATOM      5  C   UNL     1       2.846   2.099  19.905  0.00  0.00    +0.000 A 
ATOM      6  C   UNL     1       3.761   2.546  18.952  0.00  0.00    +0.000 A 
ATOM      7  C   UNL     1       4.101   3.912  18.855  0.00  0.00    +0.000 A 
ENDROOT
BRANCH   1   8
ATOM      8  N   UNL     1       3.614   6.245  19.586  0.00  0.00    +0.000 N 
ATOM      9  H   UNL     1       3.577   6.751  20.477  0.00  0.00    +0.000 HD
BRANCH   8  11
ATOM     10  O   UNL     1       3.715   7.777  17.532  0.00  0.00    +0.000 OA
ATOM     11  S   UNL     1       2.773   7.037  18.345  0.00  0.00    +0.000 S 
ATOM     12  O   UNL     1       1.859   6.084  17.751  0.00  0.00    +0.000 OA
BRANCH  11  13
ATOM     13  C   UNL     1       1.810   8.207  19.278  0.00  0.00    +0.000 A 
ATOM     14  C   UNL     1       1.541   7.962  20.625  0.00  0.00    +0.000 A 
ATOM     15  C   UNL     1       0.780   8.876  21.358  0.00  0.00    +0.000 A 
ATOM     16  C   UNL     1       0.298  10.033  20.743  0.00  0.00    +0.000 A 
ATOM     17  C   UNL     1       0.589  10.287  19.399  0.00  0.00    +0.000 A 
ATOM     18  C   UNL     1       1.352   9.379  18.663  0.00  0.00    +0.000 A 
ENDBRANCH  11  13
ENDBRANCH   8  11
ENDBRANCH   1   8
BRANCH   7  19
ATOM     19  C   UNL     1       5.160   4.310  17.857  0.00  0.00    +0.000 C 
BRANCH  19  20
ATOM     20  N   UNL     1       6.217   5.106  18.447  0.00  0.00    +0.000 N 
ATOM     21  C   UNL     1       7.033   6.003  17.819  0.00  0.00    +0.000 A 
ATOM     22  C   UNL     1       7.957   6.329  18.779  0.00  0.00    +0.000 A 
ATOM     23  N   UNL     1       7.682   5.643  19.930  0.00  0.00    +0.000 NA
ATOM     24  N   UNL     1       6.619   4.879  19.712  0.00  0.00    +0.000 NA
ENDBRANCH  19  20
ENDBRANCH   7  19
TORSDOF 5
ENDMDL
