MODEL 1
REMARK VINA RESULT:      -7.8      0.000      0.000
REMARK  Name = 
REMARK  7 active torsions:
REMARK  status: ('A' for Active; 'I' for Inactive)
REMARK    1  A    between atoms: C_1  and  O_2
REMARK    2  A    between atoms: O_2  and  C_3
REMARK    3  A    between atoms: C_5  and  C_6
REMARK    4  A    between atoms: N_7  and  N_8
REMARK    5  A    between atoms: N_8  and  C_9
REMARK    6  A    between atoms: C_20  and  O_21
REMARK    7  A    between atoms: C_22  and  O_23
REMARK                            x       y       z     vdW  Elec       q    Type
REMARK                         _______ _______ _______ _____ _____    ______ ____
ROOT
ATOM      1  C   UNL     1       8.840   9.239  18.782  0.00  0.00    +0.000 C 
ATOM      2  N   UNL     1       8.239   8.427  17.987  0.00  0.00    +0.000 NA
ENDROOT
BRANCH   1   5
ATOM      3  C   UNL     1       8.609  12.844  17.633  0.00  0.00    +0.000 A 
ATOM      4  C   UNL     1       8.257  11.560  18.097  0.00  0.00    +0.000 A 
ATOM      5  C   UNL     1       9.236  10.584  18.309  0.00  0.00    +0.000 A 
ATOM      6  C   UNL     1      10.582  10.893  18.060  0.00  0.00    +0.000 A 
ATOM      7  C   UNL     1      10.947  12.164  17.602  0.00  0.00    +0.000 A 
ATOM      8  C   UNL     1       9.960  13.141  17.384  0.00  0.00    +0.000 A 
BRANCH   3  10
ATOM      9  C   UNL     1       7.143  14.642  18.374  0.00  0.00    +0.000 C 
ATOM     10  O   UNL     1       7.679  13.810  17.411  0.00  0.00    +0.000 OA
ENDBRANCH   3  10
BRANCH   7  11
ATOM     11  O   UNL     1      12.245  12.447  17.368  0.00  0.00    +0.000 OA
ATOM     12  H   UNL     1      12.764  11.981  16.696  0.00  0.00    +0.000 HD
ENDBRANCH   7  11
BRANCH   8  13
ATOM     13  O   UNL     1      10.291  14.372  16.935  0.00  0.00    +0.000 OA
ATOM     14  H   UNL     1      10.049  14.691  16.053  0.00  0.00    +0.000 HD
ENDBRANCH   8  13
ENDBRANCH   1   5
BRANCH   2  15
ATOM     15  N   UNL     1       7.830   7.174  18.376  0.00  0.00    +0.000 N 
ATOM     16  H   UNL     1       7.967   6.878  19.353  0.00  0.00    +0.000 HD
BRANCH  15  17
ATOM     17  C   UNL     1       7.221   6.323  17.413  0.00  0.00    +0.000 A 
ATOM     18  N   UNL     1       7.712   6.342  16.141  0.00  0.00    +0.000 NA
ATOM     19  N   UNL     1       7.215   5.580  15.170  0.00  0.00    +0.000 NA
ATOM     20  C   UNL     1       6.182   4.735  15.392  0.00  0.00    +0.000 A 
ATOM     21  C   UNL     1       5.618   4.654  16.666  0.00  0.00    +0.000 A 
ATOM     22  C   UNL     1       4.547   3.781  16.907  0.00  0.00    +0.000 A 
ATOM     23  C   UNL     1       3.984   3.699  18.179  0.00  0.00    +0.000 A 
ATOM     24  C   UNL     1       4.483   4.485  19.218  0.00  0.00    +0.000 A 
ATOM     25  C   UNL     1       5.550   5.360  18.993  0.00  0.00    +0.000 A 
ATOM     26  C   UNL     1       6.137   5.459  17.711  0.00  0.00    +0.000 A 
ENDBRANCH  15  17
ENDBRANCH   2  15
TORSDOF 6
ENDMDL
MODEL 2
REMARK VINA RESULT:      -7.7      7.459     10.079
REMARK  Name = 
REMARK  7 active torsions:
REMARK  status: ('A' for Active; 'I' for Inactive)
REMARK    1  A    between atoms: C_1  and  O_2
REMARK    2  A    between atoms: O_2  and  C_3
REMARK    3  A    between atoms: C_5  and  C_6
REMARK    4  A    between atoms: N_7  and  N_8
REMARK    5  A    between atoms: N_8  and  C_9
REMARK    6  A    between atoms: C_20  and  O_21
REMARK    7  A    between atoms: C_22  and  O_23
REMARK                            x       y       z     vdW  Elec       q    Type
REMARK                         _______ _______ _______ _____ _____    ______ ____
ROOT
ATOM      1  C   UNL     1       2.647   7.106  18.792  0.00  0.00    +0.000 C 
ATOM      2  N   UNL     1       2.038   7.706  19.752  0.00  0.00    +0.000 NA
ENDROOT
BRANCH   1   5
ATOM      3  C   UNL     1       3.124   3.511  19.894  0.00  0.00    +0.000 A 
ATOM      4  C   UNL     1       2.543   4.773  19.652  0.00  0.00    +0.000 A 
ATOM      5  C   UNL     1       3.273   5.786  19.020  0.00  0.00    +0.000 A 
ATOM      6  C   UNL     1       4.594   5.535  18.619  0.00  0.00    +0.000 A 
ATOM      7  C   UNL     1       5.183   4.286  18.850  0.00  0.00    +0.000 A 
ATOM      8  C   UNL     1       4.449   3.272  19.491  0.00  0.00    +0.000 A 
BRANCH   3  10
ATOM      9  C   UNL     1       1.616   2.662  21.609  0.00  0.00    +0.000 C 
ATOM     10  O   UNL     1       2.442   2.511  20.512  0.00  0.00    +0.000 OA
ENDBRANCH   3  10
BRANCH   7  11
ATOM     11  O   UNL     1       6.453   4.060  18.458  0.00  0.00    +0.000 OA
ATOM     12  H   UNL     1       6.957   3.288  18.755  0.00  0.00    +0.000 HD
ENDBRANCH   7  11
BRANCH   8  13
ATOM     13  O   UNL     1       5.002   2.063  19.729  0.00  0.00    +0.000 OA
ATOM     14  H   UNL     1       4.492   1.310  20.061  0.00  0.00    +0.000 HD
ENDBRANCH   8  13
ENDBRANCH   1   5
BRANCH   2  15
ATOM     15  N   UNL     1       1.420   8.924  19.594  0.00  0.00    +0.000 N 
ATOM     16  H   UNL     1       1.461   9.396  18.680  0.00  0.00    +0.000 HD
BRANCH  15  17
ATOM     17  C   UNL     1       0.736   9.493  20.702  0.00  0.00    +0.000 A 
ATOM     18  N   UNL     1       1.031   9.022  21.947  0.00  0.00    +0.000 NA
ATOM     19  N   UNL     1       0.449   9.492  23.048  0.00  0.00    +0.000 NA
ATOM     20  C   UNL     1      -0.478  10.475  22.993  0.00  0.00    +0.000 A 
ATOM     21  C   UNL     1      -0.841  11.014  21.759  0.00  0.00    +0.000 A 
ATOM     22  C   UNL     1      -1.802  12.033  21.690  0.00  0.00    +0.000 A 
ATOM     23  C   UNL     1      -2.164  12.573  20.457  0.00  0.00    +0.000 A 
ATOM     24  C   UNL     1      -1.572  12.101  19.286  0.00  0.00    +0.000 A 
ATOM     25  C   UNL     1      -0.612  11.085  19.337  0.00  0.00    +0.000 A 
ATOM     26  C   UNL     1      -0.230  10.524  20.577  0.00  0.00    +0.000 A 
ENDBRANCH  15  17
ENDBRANCH   2  15
TORSDOF 6
ENDMDL
MODEL 3
REMARK VINA RESULT:      -7.5      7.452     10.221
REMARK  Name = 
REMARK  7 active torsions:
REMARK  status: ('A' for Active; 'I' for Inactive)
REMARK    1  A    between atoms: C_1  and  O_2
REMARK    2  A    between atoms: O_2  and  C_3
REMARK    3  A    between atoms: C_5  and  C_6
REMARK    4  A    between atoms: N_7  and  N_8
REMARK    5  A    between atoms: N_8  and  C_9
REMARK    6  A    between atoms: C_20  and  O_21
REMARK    7  A    between atoms: C_22  and  O_23
REMARK                            x       y       z     vdW  Elec       q    Type
REMARK                         _______ _______ _______ _____ _____    ______ ____
ROOT
ATOM      1  C   UNL     1       1.527   5.879  20.786  0.00  0.00    +0.000 C 
ATOM      2  N   UNL     1       2.017   7.065  20.724  0.00  0.00    +0.000 NA
ENDROOT
BRANCH   1   5
ATOM      3  C   UNL     1       4.197   3.777  19.109  0.00  0.00    +0.000 A 
ATOM      4  C   UNL     1       3.555   4.818  19.810  0.00  0.00    +0.000 A 
ATOM      5  C   UNL     1       2.180   4.767  20.062  0.00  0.00    +0.000 A 
ATOM      6  C   UNL     1       1.439   3.662  19.616  0.00  0.00    +0.000 A 
ATOM      7  C   UNL     1       2.062   2.620  18.921  0.00  0.00    +0.000 A 
ATOM      8  C   UNL     1       3.444   2.677  18.663  0.00  0.00    +0.000 A 
BRANCH   3  10
ATOM      9  C   UNL     1       6.139   4.571  17.871  0.00  0.00    +0.000 C 
ATOM     10  O   UNL     1       5.531   3.802  18.843  0.00  0.00    +0.000 OA
ENDBRANCH   3  10
BRANCH   7  11
ATOM     11  O   UNL     1       1.337   1.565  18.499  0.00  0.00    +0.000 OA
ATOM     12  H   UNL     1       1.667   0.941  17.836  0.00  0.00    +0.000 HD
ENDBRANCH   7  11
BRANCH   8  13
ATOM     13  O   UNL     1       4.064   1.684  17.988  0.00  0.00    +0.000 OA
ATOM     14  H   UNL     1       3.615   1.144  17.322  0.00  0.00    +0.000 HD
ENDBRANCH   8  13
ENDBRANCH   1   5
BRANCH   2  15
ATOM     15  N   UNL     1       1.465   8.134  21.390  0.00  0.00    +0.000 N 
ATOM     16  H   UNL     1       1.522   8.171  22.418  0.00  0.00    +0.000 HD
BRANCH  15  17
ATOM     17  C   UNL     1       0.837   9.161  20.635  0.00  0.00    +0.000 A 
ATOM     18  N   UNL     1       1.109   9.232  19.301  0.00  0.00    +0.000 NA
ATOM     19  N   UNL     1       0.568  10.153  18.507  0.00  0.00    +0.000 NA
ATOM     20  C   UNL     1      -0.292  11.082  18.985  0.00  0.00    +0.000 A 
ATOM     21  C   UNL     1      -0.625  11.082  20.340  0.00  0.00    +0.000 A 
ATOM     22  C   UNL     1      -1.515  12.041  20.846  0.00  0.00    +0.000 A 
ATOM     23  C   UNL     1      -1.848  12.041  22.199  0.00  0.00    +0.000 A 
ATOM     24  C   UNL     1      -1.297  11.089  23.057  0.00  0.00    +0.000 A 
ATOM     25  C   UNL     1      -0.408  10.127  22.568  0.00  0.00    +0.000 A 
ATOM     26  C   UNL     1      -0.056  10.107  21.198  0.00  0.00    +0.000 A 
ENDBRANCH  15  17
ENDBRANCH   2  15
TORSDOF 6
ENDMDL
MODEL 4
REMARK VINA RESULT:      -7.4      7.023      8.692
REMARK  Name = 
REMARK  7 active torsions:
REMARK  status: ('A' for Active; 'I' for Inactive)
REMARK    1  A    between atoms: C_1  and  O_2
REMARK    2  A    between atoms: O_2  and  C_3
REMARK    3  A    between atoms: C_5  and  C_6
REMARK    4  A    between atoms: N_7  and  N_8
REMARK    5  A    between atoms: N_8  and  C_9
REMARK    6  A    between atoms: C_20  and  O_21
REMARK    7  A    between atoms: C_22  and  O_23
REMARK                            x       y       z     vdW  Elec       q    Type
REMARK                         _______ _______ _______ _____ _____    ______ ____
ROOT
ATOM      1  C   UNL     1       1.126   9.667  18.714  0.00  0.00    +0.000 C 
ATOM      2  N   UNL     1       1.730   8.944  17.840  0.00  0.00    +0.000 NA
ENDROOT
BRANCH   1   5
ATOM      3  C   UNL     1      -2.228  10.301  17.067  0.00  0.00    +0.000 A 
ATOM      4  C   UNL     1      -0.988   9.720  17.402  0.00  0.00    +0.000 A 
ATOM      5  C   UNL     1      -0.178  10.287  18.391  0.00  0.00    +0.000 A 
ATOM      6  C   UNL     1      -0.613  11.442  19.058  0.00  0.00    +0.000 A 
ATOM      7  C   UNL     1      -1.843  12.029  18.739  0.00  0.00    +0.000 A 
ATOM      8  C   UNL     1      -2.652  11.460  17.739  0.00  0.00    +0.000 A 
BRANCH   3  10
ATOM      9  C   UNL     1      -2.984  10.089  14.761  0.00  0.00    +0.000 C 
ATOM     10  O   UNL     1      -3.033   9.776  16.104  0.00  0.00    +0.000 OA
ENDBRANCH   3  10
BRANCH   7  11
ATOM     11  O   UNL     1      -2.247  13.138  19.389  0.00  0.00    +0.000 OA
ATOM     12  H   UNL     1      -1.634  13.847  19.634  0.00  0.00    +0.000 HD
ENDBRANCH   7  11
BRANCH   8  13
ATOM     13  O   UNL     1      -3.839  12.015  17.411  0.00  0.00    +0.000 OA
ATOM     14  H   UNL     1      -4.053  12.302  16.511  0.00  0.00    +0.000 HD
ENDBRANCH   8  13
ENDBRANCH   1   5
BRANCH   2  15
ATOM     15  N   UNL     1       2.934   8.328  18.090  0.00  0.00    +0.000 N 
ATOM     16  H   UNL     1       3.780   8.902  18.209  0.00  0.00    +0.000 HD
BRANCH  15  17
ATOM     17  C   UNL     1       2.970   6.910  18.183  0.00  0.00    +0.000 A 
ATOM     18  N   UNL     1       2.146   6.307  19.086  0.00  0.00    +0.000 NA
ATOM     19  N   UNL     1       2.102   4.986  19.246  0.00  0.00    +0.000 NA
ATOM     20  C   UNL     1       2.881   4.158  18.512  0.00  0.00    +0.000 A 
ATOM     21  C   UNL     1       3.754   4.692  17.564  0.00  0.00    +0.000 A 
ATOM     22  C   UNL     1       4.567   3.844  16.799  0.00  0.00    +0.000 A 
ATOM     23  C   UNL     1       5.439   4.376  15.851  0.00  0.00    +0.000 A 
ATOM     24  C   UNL     1       5.508   5.756  15.661  0.00  0.00    +0.000 A 
ATOM     25  C   UNL     1       4.705   6.616  16.417  0.00  0.00    +0.000 A 
ATOM     26  C   UNL     1       3.813   6.097  17.383  0.00  0.00    +0.000 A 
ENDBRANCH  15  17
ENDBRANCH   2  15
TORSDOF 6
ENDMDL
MODEL 5
REMARK VINA RESULT:      -7.4      5.465      7.042
REMARK  Name = 
REMARK  7 active torsions:
REMARK  status: ('A' for Active; 'I' for Inactive)
REMARK    1  A    between atoms: C_1  and  O_2
REMARK    2  A    between atoms: O_2  and  C_3
REMARK    3  A    between atoms: C_5  and  C_6
REMARK    4  A    between atoms: N_7  and  N_8
REMARK    5  A    between atoms: N_8  and  C_9
REMARK    6  A    between atoms: C_20  and  O_21
REMARK    7  A    between atoms: C_22  and  O_23
REMARK                            x       y       z     vdW  Elec       q    Type
REMARK                         _______ _______ _______ _____ _____    ______ ____
ROOT
ATOM      1  C   UNL     1       2.775   6.614  18.816  0.00  0.00    +0.000 C 
ATOM      2  N   UNL     1       3.259   5.863  19.740  0.00  0.00    +0.000 NA
ENDROOT
BRANCH   1   5
ATOM      3  C   UNL     1       0.589   9.067  20.706  0.00  0.00    +0.000 A 
ATOM      4  C   UNL     1       1.302   7.903  20.353  0.00  0.00    +0.000 A 
ATOM      5  C   UNL     1       2.048   7.853  19.171  0.00  0.00    +0.000 A 
ATOM      6  C   UNL     1       2.089   8.978  18.334  0.00  0.00    +0.000 A 
ATOM      7  C   UNL     1       1.388  10.142  18.672  0.00  0.00    +0.000 A 
ATOM      8  C   UNL     1       0.634  10.188  19.858  0.00  0.00    +0.000 A 
BRANCH   3  10
ATOM      9  C   UNL     1       0.336   9.471  23.094  0.00  0.00    +0.000 C 
ATOM     10  O   UNL     1      -0.150   9.143  21.845  0.00  0.00    +0.000 OA
ENDBRANCH   3  10
BRANCH   7  11
ATOM     11  O   UNL     1       1.438  11.216  17.858  0.00  0.00    +0.000 OA
ATOM     12  H   UNL     1       0.638  11.650  17.525  0.00  0.00    +0.000 HD
ENDBRANCH   7  11
BRANCH   8  13
ATOM     13  O   UNL     1      -0.055  11.299  20.198  0.00  0.00    +0.000 OA
ATOM     14  H   UNL     1      -0.975  11.274  20.499  0.00  0.00    +0.000 HD
ENDBRANCH   8  13
ENDBRANCH   1   5
BRANCH   2  15
ATOM     15  N   UNL     1       3.960   4.712  19.470  0.00  0.00    +0.000 N 
ATOM     16  H   UNL     1       3.517   3.799  19.645  0.00  0.00    +0.000 HD
BRANCH  15  17
ATOM     17  C   UNL     1       5.278   4.819  18.949  0.00  0.00    +0.000 A 
ATOM     18  N   UNL     1       6.285   5.126  19.814  0.00  0.00    +0.000 NA
ATOM     19  N   UNL     1       7.553   5.244  19.427  0.00  0.00    +0.000 NA
ATOM     20  C   UNL     1       7.918   5.064  18.137  0.00  0.00    +0.000 A 
ATOM     21  C   UNL     1       6.950   4.747  17.183  0.00  0.00    +0.000 A 
ATOM     22  C   UNL     1       7.316   4.559  15.843  0.00  0.00    +0.000 A 
ATOM     23  C   UNL     1       6.350   4.242  14.890  0.00  0.00    +0.000 A 
ATOM     24  C   UNL     1       5.013   4.112  15.266  0.00  0.00    +0.000 A 
ATOM     25  C   UNL     1       4.631   4.297  16.598  0.00  0.00    +0.000 A 
ATOM     26  C   UNL     1       5.595   4.618  17.581  0.00  0.00    +0.000 A 
ENDBRANCH  15  17
ENDBRANCH   2  15
TORSDOF 6
ENDMDL
MODEL 6
REMARK VINA RESULT:      -7.4      7.369      9.570
REMARK  Name = 
REMARK  7 active torsions:
REMARK  status: ('A' for Active; 'I' for Inactive)
REMARK    1  A    between atoms: C_1  and  O_2
REMARK    2  A    between atoms: O_2  and  C_3
REMARK    3  A    between atoms: C_5  and  C_6
REMARK    4  A    between atoms: N_7  and  N_8
REMARK    5  A    between atoms: N_8  and  C_9
REMARK    6  A    between atoms: C_20  and  O_21
REMARK    7  A    between atoms: C_22  and  O_23
REMARK                            x       y       z     vdW  Elec       q    Type
REMARK                         _______ _______ _______ _____ _____    ______ ____
ROOT
ATOM      1  C   UNL     1       3.049   7.632  17.779  0.00  0.00    +0.000 C 
ATOM      2  N   UNL     1       1.875   8.057  18.086  0.00  0.00    +0.000 NA
ENDROOT
BRANCH   1   5
ATOM      3  C   UNL     1       5.356   4.746  18.621  0.00  0.00    +0.000 A 
ATOM      4  C   UNL     1       4.873   5.976  18.131  0.00  0.00    +0.000 A 
ATOM      5  C   UNL     1       3.535   6.343  18.315  0.00  0.00    +0.000 A 
ATOM      6  C   UNL     1       2.672   5.474  19.000  0.00  0.00    +0.000 A 
ATOM      7  C   UNL     1       3.137   4.250  19.494  0.00  0.00    +0.000 A 
ATOM      8  C   UNL     1       4.481   3.882  19.302  0.00  0.00    +0.000 A 
BRANCH   3  10
ATOM      9  C   UNL     1       7.475   4.760  17.420  0.00  0.00    +0.000 C 
ATOM     10  O   UNL     1       6.649   4.360  18.451  0.00  0.00    +0.000 OA
ENDBRANCH   3  10
BRANCH   7  11
ATOM     11  O   UNL     1       2.296   3.427  20.151  0.00  0.00    +0.000 OA
ATOM     12  H   UNL     1       2.006   2.580  19.781  0.00  0.00    +0.000 HD
ENDBRANCH   7  11
BRANCH   8  13
ATOM     13  O   UNL     1       4.948   2.702  19.765  0.00  0.00    +0.000 OA
ATOM     14  H   UNL     1       5.855   2.587  20.087  0.00  0.00    +0.000 HD
ENDBRANCH   8  13
ENDBRANCH   1   5
BRANCH   2  15
ATOM     15  N   UNL     1       1.362   9.238  17.603  0.00  0.00    +0.000 N 
ATOM     16  H   UNL     1       1.527   9.494  16.619  0.00  0.00    +0.000 HD
BRANCH  15  17
ATOM     17  C   UNL     1       0.610  10.067  18.479  0.00  0.00    +0.000 A 
ATOM     18  N   UNL     1       1.240  10.573  19.578  0.00  0.00    +0.000 NA
ATOM     19  N   UNL     1       0.626  11.363  20.455  0.00  0.00    +0.000 NA
ATOM     20  C   UNL     1      -0.672  11.712  20.305  0.00  0.00    +0.000 A 
ATOM     21  C   UNL     1      -1.392  11.238  19.208  0.00  0.00    +0.000 A 
ATOM     22  C   UNL     1      -2.739  11.593  19.043  0.00  0.00    +0.000 A 
ATOM     23  C   UNL     1      -3.459  11.120  17.947  0.00  0.00    +0.000 A 
ATOM     24  C   UNL     1      -2.843  10.290  17.011  0.00  0.00    +0.000 A 
ATOM     25  C   UNL     1      -1.501   9.926  17.162  0.00  0.00    +0.000 A 
ATOM     26  C   UNL     1      -0.752  10.395  18.265  0.00  0.00    +0.000 A 
ENDBRANCH  15  17
ENDBRANCH   2  15
TORSDOF 6
ENDMDL
MODEL 7
REMARK VINA RESULT:      -7.4      1.094      2.061
REMARK  Name = 
REMARK  7 active torsions:
REMARK  status: ('A' for Active; 'I' for Inactive)
REMARK    1  A    between atoms: C_1  and  O_2
REMARK    2  A    between atoms: O_2  and  C_3
REMARK    3  A    between atoms: C_5  and  C_6
REMARK    4  A    between atoms: N_7  and  N_8
REMARK    5  A    between atoms: N_8  and  C_9
REMARK    6  A    between atoms: C_20  and  O_21
REMARK    7  A    between atoms: C_22  and  O_23
REMARK                            x       y       z     vdW  Elec       q    Type
REMARK                         _______ _______ _______ _____ _____    ______ ____
ROOT
ATOM      1  C   UNL     1       8.819   8.842  18.934  0.00  0.00    +0.000 C 
ATOM      2  N   UNL     1       8.061   8.156  18.156  0.00  0.00    +0.000 NA
ENDROOT
BRANCH   1   5
ATOM      3  C   UNL     1      10.182  12.368  19.210  0.00  0.00    +0.000 A 
ATOM      4  C   UNL     1       9.994  10.985  19.407  0.00  0.00    +0.000 A 
ATOM      5  C   UNL     1       9.007  10.291  18.699  0.00  0.00    +0.000 A 
ATOM      6  C   UNL     1       8.202  10.983  17.781  0.00  0.00    +0.000 A 
ATOM      7  C   UNL     1       8.379  12.356  17.573  0.00  0.00    +0.000 A 
ATOM      8  C   UNL     1       9.368  13.052  18.291  0.00  0.00    +0.000 A 
BRANCH   3  10
ATOM      9  C   UNL     1      12.333  13.501  19.369  0.00  0.00    +0.000 C 
ATOM     10  O   UNL     1      11.128  13.071  19.889  0.00  0.00    +0.000 OA
ENDBRANCH   3  10
BRANCH   7  11
ATOM     11  O   UNL     1       7.598  13.007  16.687  0.00  0.00    +0.000 OA
ATOM     12  H   UNL     1       7.958  13.428  15.892  0.00  0.00    +0.000 HD
ENDBRANCH   7  11
BRANCH   8  13
ATOM     13  O   UNL     1       9.549  14.379  18.110  0.00  0.00    +0.000 OA
ATOM     14  H   UNL     1      10.422  14.774  17.973  0.00  0.00    +0.000 HD
ENDBRANCH   8  13
ENDBRANCH   1   5
BRANCH   2  15
ATOM     15  N   UNL     1       7.833   6.812  18.336  0.00  0.00    +0.000 N 
ATOM     16  H   UNL     1       8.204   6.346  19.176  0.00  0.00    +0.000 HD
BRANCH  15  17
ATOM     17  C   UNL     1       7.082   6.107  17.356  0.00  0.00    +0.000 A 
ATOM     18  N   UNL     1       7.484   6.198  16.056  0.00  0.00    +0.000 NA
ATOM     19  N   UNL     1       6.852   5.572  15.066  0.00  0.00    +0.000 NA
ATOM     20  C   UNL     1       5.764   4.802  15.296  0.00  0.00    +0.000 A 
ATOM     21  C   UNL     1       5.284   4.656  16.598  0.00  0.00    +0.000 A 
ATOM     22  C   UNL     1       4.156   3.861  16.848  0.00  0.00    +0.000 A 
ATOM     23  C   UNL     1       3.678   3.714  18.148  0.00  0.00    +0.000 A 
ATOM     24  C   UNL     1       4.318   4.357  19.207  0.00  0.00    +0.000 A 
ATOM     25  C   UNL     1       5.443   5.154  18.975  0.00  0.00    +0.000 A 
ATOM     26  C   UNL     1       5.947   5.316  17.663  0.00  0.00    +0.000 A 
ENDBRANCH  15  17
ENDBRANCH   2  15
TORSDOF 6
ENDMDL
MODEL 8
REMARK VINA RESULT:      -7.4      6.289      8.359
REMARK  Name = 
REMARK  7 active torsions:
REMARK  status: ('A' for Active; 'I' for Inactive)
REMARK    1  A    between atoms: C_1  and  O_2
REMARK    2  A    between atoms: O_2  and  C_3
REMARK    3  A    between atoms: C_5  and  C_6
REMARK    4  A    between atoms: N_7  and  N_8
REMARK    5  A    between atoms: N_8  and  C_9
REMARK    6  A    between atoms: C_20  and  O_21
REMARK    7  A    between atoms: C_22  and  O_23
REMARK                            x       y       z     vdW  Elec       q    Type
REMARK                         _______ _______ _______ _____ _____    ______ ____
ROOT
ATOM      1  C   UNL     1       2.493   7.006  18.157  0.00  0.00    +0.000 C 
ATOM      2  N   UNL     1       2.447   8.286  18.050  0.00  0.00    +0.000 NA
ENDROOT
BRANCH   1   5
ATOM      3  C   UNL     1       6.168   6.284  17.579  0.00  0.00    +0.000 A 
ATOM      4  C   UNL     1       4.918   6.936  17.604  0.00  0.00    +0.000 A 
ATOM      5  C   UNL     1       3.796   6.308  18.156  0.00  0.00    +0.000 A 
ATOM      6  C   UNL     1       3.925   5.018  18.694  0.00  0.00    +0.000 A 
ATOM      7  C   UNL     1       5.159   4.360  18.678  0.00  0.00    +0.000 A 
ATOM      8  C   UNL     1       6.284   4.991  18.117  0.00  0.00    +0.000 A 
BRANCH   3  10
ATOM      9  C   UNL     1       7.901   7.996  17.531  0.00  0.00    +0.000 C 
ATOM     10  O   UNL     1       7.274   6.867  17.043  0.00  0.00    +0.000 OA
ENDBRANCH   3  10
BRANCH   7  11
ATOM     11  O   UNL     1       5.267   3.121  19.200  0.00  0.00    +0.000 OA
ATOM     12  H   UNL     1       4.658   2.789  19.876  0.00  0.00    +0.000 HD
ENDBRANCH   7  11
BRANCH   8  13
ATOM     13  O   UNL     1       7.483   4.370  18.086  0.00  0.00    +0.000 OA
ATOM     14  H   UNL     1       7.815   3.833  18.821  0.00  0.00    +0.000 HD
ENDBRANCH   8  13
ENDBRANCH   1   5
BRANCH   2  15
ATOM     15  N   UNL     1       1.266   8.991  18.064  0.00  0.00    +0.000 N 
ATOM     16  H   UNL     1       0.507   8.718  17.425  0.00  0.00    +0.000 HD
BRANCH  15  17
ATOM     17  C   UNL     1       1.128  10.076  18.972  0.00  0.00    +0.000 A 
ATOM     18  N   UNL     1       1.564  11.305  18.571  0.00  0.00    +0.000 NA
ATOM     19  N   UNL     1       1.474  12.384  19.344  0.00  0.00    +0.000 NA
ATOM     20  C   UNL     1       0.940  12.323  20.585  0.00  0.00    +0.000 A 
ATOM     21  C   UNL     1       0.470  11.104  21.075  0.00  0.00    +0.000 A 
ATOM     22  C   UNL     1      -0.086  11.029  22.361  0.00  0.00    +0.000 A 
ATOM     23  C   UNL     1      -0.557   9.812  22.850  0.00  0.00    +0.000 A 
ATOM     24  C   UNL     1      -0.476   8.663  22.064  0.00  0.00    +0.000 A 
ATOM     25  C   UNL     1       0.075   8.721  20.780  0.00  0.00    +0.000 A 
ATOM     26  C   UNL     1       0.558   9.945  20.263  0.00  0.00    +0.000 A 
ENDBRANCH  15  17
ENDBRANCH   2  15
TORSDOF 6
ENDMDL
MODEL 9
REMARK VINA RESULT:      -7.4      7.400      9.548
REMARK  Name = 
REMARK  7 active torsions:
REMARK  status: ('A' for Active; 'I' for Inactive)
REMARK    1  A    between atoms: C_1  and  O_2
REMARK    2  A    between atoms: O_2  and  C_3
REMARK    3  A    between atoms: C_5  and  C_6
REMARK    4  A    between atoms: N_7  and  N_8
REMARK    5  A    between atoms: N_8  and  C_9
REMARK    6  A    between atoms: C_20  and  O_21
REMARK    7  A    between atoms: C_22  and  O_23
REMARK                            x       y       z     vdW  Elec       q    Type
REMARK                         _______ _______ _______ _____ _____    ______ ____
ROOT
ATOM      1  C   UNL     1       3.084   7.798  17.838  0.00  0.00    +0.000 C 
ATOM      2  N   UNL     1       1.836   8.083  17.944  0.00  0.00    +0.000 NA
ENDROOT
BRANCH   1   5
ATOM      3  C   UNL     1       3.359   4.520  19.721  0.00  0.00    +0.000 A 
ATOM      4  C   UNL     1       2.894   5.773  19.272  0.00  0.00    +0.000 A 
ATOM      5  C   UNL     1       3.585   6.478  18.281  0.00  0.00    +0.000 A 
ATOM      6  C   UNL     1       4.750   5.925  17.728  0.00  0.00    +0.000 A 
ATOM      7  C   UNL     1       5.223   4.681  18.161  0.00  0.00    +0.000 A 
ATOM      8  C   UNL     1       4.529   3.977  19.162  0.00  0.00    +0.000 A 
BRANCH   3  10
ATOM      9  C   UNL     1       1.343   3.710  20.821  0.00  0.00    +0.000 C 
ATOM     10  O   UNL     1       2.713   3.815  20.687  0.00  0.00    +0.000 OA
ENDBRANCH   3  10
BRANCH   7  11
ATOM     11  O   UNL     1       6.343   4.163  17.620  0.00  0.00    +0.000 OA
ATOM     12  H   UNL     1       6.918   4.673  17.030  0.00  0.00    +0.000 HD
ENDBRANCH   7  11
BRANCH   8  13
ATOM     13  O   UNL     1       4.974   2.779  19.600  0.00  0.00    +0.000 OA
ATOM     14  H   UNL     1       5.760   2.347  19.236  0.00  0.00    +0.000 HD
ENDBRANCH   8  13
ENDBRANCH   1   5
BRANCH   2  15
ATOM     15  N   UNL     1       1.310   9.284  17.531  0.00  0.00    +0.000 N 
ATOM     16  H   UNL     1       1.449   9.588  16.557  0.00  0.00    +0.000 HD
BRANCH  15  17
ATOM     17  C   UNL     1       0.582  10.070  18.466  0.00  0.00    +0.000 A 
ATOM     18  N   UNL     1       1.236  10.511  19.578  0.00  0.00    +0.000 NA
ATOM     19  N   UNL     1       0.645  11.256  20.509  0.00  0.00    +0.000 NA
ATOM     20  C   UNL     1      -0.653  11.623  20.403  0.00  0.00    +0.000 A 
ATOM     21  C   UNL     1      -1.397  11.214  19.296  0.00  0.00    +0.000 A 
ATOM     22  C   UNL     1      -2.744  11.587  19.176  0.00  0.00    +0.000 A 
ATOM     23  C   UNL     1      -3.488  11.179  18.070  0.00  0.00    +0.000 A 
ATOM     24  C   UNL     1      -2.897  10.397  17.078  0.00  0.00    +0.000 A 
ATOM     25  C   UNL     1      -1.555  10.016  17.183  0.00  0.00    +0.000 A 
ATOM     26  C   UNL     1      -0.782  10.419  18.296  0.00  0.00    +0.000 A 
ENDBRANCH  15  17
ENDBRANCH   2  15
TORSDOF 6
ENDMDL
