MODEL 1
REMARK VINA RESULT:      -8.5      0.000      0.000
REMARK  Name = 
REMARK  3 active torsions:
REMARK  status: ('A' for Active; 'I' for Inactive)
REMARK    1  A    between atoms: C_2  and  C_14
REMARK    2  A    between atoms: N_3  and  C_4
REMARK    3  A    between atoms: N_21  and  C_22
REMARK                            x       y       z     vdW  Elec       q    Type
REMARK                         _______ _______ _______ _____ _____    ______ ____
ROOT
ATOM      1  C   UNL     1       1.947   3.901  19.577  0.00  0.00    +0.000 C 
ATOM      2  C   UNL     1       1.369   3.918  20.995  0.00  0.00    +0.000 C 
ATOM      3  C   UNL     1       2.067   2.764  21.699  0.00  0.00    +0.000 C 
ATOM      4  C   UNL     1       3.420   2.658  21.014  0.00  0.00    +0.000 C 
ATOM      5  N   UNL     1       3.333   3.458  19.806  0.00  0.00    +0.000 N 
ATOM      6  C   UNL     1       4.396   3.389  18.914  0.00  0.00    +0.000 C 
ATOM      7  O   UNL     1       5.324   2.609  19.119  0.00  0.00    +0.000 OA
ATOM      8  N   UNL     1       4.349   4.288  17.874  0.00  0.00    +0.000 N 
ATOM      9  H   UNL     1       3.798   5.115  18.067  0.00  0.00    +0.000 HD
ENDROOT
BRANCH   8  10
ATOM     10  C   UNL     1       5.319   4.476  16.861  0.00  0.00    +0.000 A 
ATOM     11  C   UNL     1       6.560   5.082  17.075  0.00  0.00    +0.000 A 
ATOM     12  C   UNL     1       7.441   5.292  16.009  0.00  0.00    +0.000 A 
ATOM     13  C   UNL     1       7.092   4.873  14.733  0.00  0.00    +0.000 A 
ATOM     14  F   UNL     1       7.935   5.080  13.714  0.00  0.00    +0.000 F 
ATOM     15  C   UNL     1       5.878   4.242  14.502  0.00  0.00    +0.000 A 
ATOM     16  C   UNL     1       4.992   4.044  15.565  0.00  0.00    +0.000 A 
ENDBRANCH   8  10
BRANCH   1  18
ATOM     17  O   UNL     1       1.373   5.441  17.835  0.00  0.00    +0.000 OA
ATOM     18  C   UNL     1       1.794   5.299  18.985  0.00  0.00    +0.000 C 
ATOM     19  N   UNL     1       2.128   6.347  19.830  0.00  0.00    +0.000 N 
ATOM     20  H   UNL     1       2.662   6.146  20.668  0.00  0.00    +0.000 HD
BRANCH  19  21
ATOM     21  C   UNL     1       1.824   7.709  19.575  0.00  0.00    +0.000 A 
ATOM     22  C   UNL     1       2.091   8.323  18.343  0.00  0.00    +0.000 A 
ATOM     23  C   UNL     1       1.775   9.661  18.114  0.00  0.00    +0.000 A 
ATOM     24  C   UNL     1       1.189  10.409  19.123  0.00  0.00    +0.000 A 
ATOM     25  C   UNL     1       0.892   9.809  20.351  0.00  0.00    +0.000 A 
ATOM     26  C   UNL     1       1.199   8.460  20.574  0.00  0.00    +0.000 A 
ATOM     27  O   UNL     1       0.318  10.493  21.393  0.00  0.00    +0.000 OA
ATOM     28  C   UNL     1      -0.252  11.734  20.957  0.00  0.00    +0.000 C 
ATOM     29  C   UNL     1       0.682  12.478  20.016  0.00  0.00    +0.000 C 
ATOM     30  O   UNL     1       0.926  11.719  18.832  0.00  0.00    +0.000 OA
ENDBRANCH  19  21
ENDBRANCH   1  18
TORSDOF 3
ENDMDL
MODEL 2
REMARK VINA RESULT:      -8.3      0.473      1.021
REMARK  Name = 
REMARK  3 active torsions:
REMARK  status: ('A' for Active; 'I' for Inactive)
REMARK    1  A    between atoms: C_2  and  C_14
REMARK    2  A    between atoms: N_3  and  C_4
REMARK    3  A    between atoms: N_21  and  C_22
REMARK                            x       y       z     vdW  Elec       q    Type
REMARK                         _______ _______ _______ _____ _____    ______ ____
ROOT
ATOM      1  C   UNL     1       2.000   4.014  19.776  0.00  0.00    +0.000 C 
ATOM      2  C   UNL     1       1.545   3.960  21.237  0.00  0.00    +0.000 C 
ATOM      3  C   UNL     1       2.224   2.719  21.796  0.00  0.00    +0.000 C 
ATOM      4  C   UNL     1       3.506   2.585  20.989  0.00  0.00    +0.000 C 
ATOM      5  N   UNL     1       3.369   3.475  19.851  0.00  0.00    +0.000 N 
ATOM      6  C   UNL     1       4.347   3.411  18.865  0.00  0.00    +0.000 C 
ATOM      7  O   UNL     1       5.237   2.565  18.933  0.00  0.00    +0.000 OA
ATOM      8  N   UNL     1       4.270   4.385  17.897  0.00  0.00    +0.000 N 
ATOM      9  H   UNL     1       3.792   5.227  18.194  0.00  0.00    +0.000 HD
ENDROOT
BRANCH   8  10
ATOM     10  C   UNL     1       5.163   4.590  16.818  0.00  0.00    +0.000 A 
ATOM     11  C   UNL     1       4.995   4.024  15.552  0.00  0.00    +0.000 A 
ATOM     12  C   UNL     1       5.956   4.219  14.554  0.00  0.00    +0.000 A 
ATOM     13  C   UNL     1       7.073   5.002  14.814  0.00  0.00    +0.000 A 
ATOM     14  F   UNL     1       7.993   5.182  13.859  0.00  0.00    +0.000 F 
ATOM     15  C   UNL     1       7.245   5.599  16.056  0.00  0.00    +0.000 A 
ATOM     16  C   UNL     1       6.291   5.392  17.057  0.00  0.00    +0.000 A 
ENDBRANCH   8  10
BRANCH   1  18
ATOM     17  O   UNL     1       1.676   5.700  18.106  0.00  0.00    +0.000 OA
ATOM     18  C   UNL     1       1.888   5.458  19.296  0.00  0.00    +0.000 C 
ATOM     19  N   UNL     1       2.011   6.427  20.281  0.00  0.00    +0.000 N 
ATOM     20  H   UNL     1       2.393   6.161  21.181  0.00  0.00    +0.000 HD
BRANCH  19  21
ATOM     21  C   UNL     1       1.691   7.796  20.101  0.00  0.00    +0.000 A 
ATOM     22  C   UNL     1       1.830   8.447  18.866  0.00  0.00    +0.000 A 
ATOM     23  C   UNL     1       1.500   9.792  18.712  0.00  0.00    +0.000 A 
ATOM     24  C   UNL     1       1.030  10.511  19.799  0.00  0.00    +0.000 A 
ATOM     25  C   UNL     1       0.861   9.876  21.034  0.00  0.00    +0.000 A 
ATOM     26  C   UNL     1       1.181   8.520  21.183  0.00  0.00    +0.000 A 
ATOM     27  O   UNL     1       0.406  10.531  22.150  0.00  0.00    +0.000 OA
ATOM     28  C   UNL     1      -0.199  11.786  21.815  0.00  0.00    +0.000 C 
ATOM     29  C   UNL     1       0.635  12.555  20.802  0.00  0.00    +0.000 C 
ATOM     30  O   UNL     1       0.746  11.831  19.577  0.00  0.00    +0.000 OA
ENDBRANCH  19  21
ENDBRANCH   1  18
TORSDOF 3
ENDMDL
MODEL 3
REMARK VINA RESULT:      -8.0      0.831      1.523
REMARK  Name = 
REMARK  3 active torsions:
REMARK  status: ('A' for Active; 'I' for Inactive)
REMARK    1  A    between atoms: C_2  and  C_14
REMARK    2  A    between atoms: N_3  and  C_4
REMARK    3  A    between atoms: N_21  and  C_22
REMARK                            x       y       z     vdW  Elec       q    Type
REMARK                         _______ _______ _______ _____ _____    ______ ____
ROOT
ATOM      1  C   UNL     1       1.880   3.801  19.916  0.00  0.00    +0.000 C 
ATOM      2  C   UNL     1       1.337   3.687  21.344  0.00  0.00    +0.000 C 
ATOM      3  C   UNL     1       1.949   2.400  21.876  0.00  0.00    +0.000 C 
ATOM      4  C   UNL     1       3.272   2.270  21.140  0.00  0.00    +0.000 C 
ATOM      5  N   UNL     1       3.227   3.219  20.043  0.00  0.00    +0.000 N 
ATOM      6  C   UNL     1       4.261   3.176  19.115  0.00  0.00    +0.000 C 
ATOM      7  O   UNL     1       5.122   2.302  19.191  0.00  0.00    +0.000 OA
ATOM      8  N   UNL     1       4.268   4.199  18.196  0.00  0.00    +0.000 N 
ATOM      9  H   UNL     1       3.794   5.038  18.508  0.00  0.00    +0.000 HD
ENDROOT
BRANCH   8  10
ATOM     10  C   UNL     1       5.228   4.432  17.183  0.00  0.00    +0.000 A 
ATOM     11  C   UNL     1       6.523   4.896  17.430  0.00  0.00    +0.000 A 
ATOM     12  C   UNL     1       7.394   5.166  16.370  0.00  0.00    +0.000 A 
ATOM     13  C   UNL     1       6.980   4.947  15.063  0.00  0.00    +0.000 A 
ATOM     14  F   UNL     1       7.815   5.211  14.050  0.00  0.00    +0.000 F 
ATOM     15  C   UNL     1       5.709   4.459  14.795  0.00  0.00    +0.000 A 
ATOM     16  C   UNL     1       4.834   4.202  15.854  0.00  0.00    +0.000 A 
ENDBRANCH   8  10
BRANCH   1  18
ATOM     17  O   UNL     1       1.783   5.578  18.314  0.00  0.00    +0.000 OA
ATOM     18  C   UNL     1       1.834   5.270  19.506  0.00  0.00    +0.000 C 
ATOM     19  N   UNL     1       1.827   6.183  20.551  0.00  0.00    +0.000 N 
ATOM     20  H   UNL     1       2.086   5.865  21.478  0.00  0.00    +0.000 HD
BRANCH  19  21
ATOM     21  C   UNL     1       1.536   7.563  20.406  0.00  0.00    +0.000 A 
ATOM     22  C   UNL     1       0.834   8.291  21.377  0.00  0.00    +0.000 A 
ATOM     23  C   UNL     1       0.568   9.650  21.216  0.00  0.00    +0.000 A 
ATOM     24  C   UNL     1       0.997  10.301  20.070  0.00  0.00    +0.000 A 
ATOM     25  C   UNL     1       1.719   9.599  19.100  0.00  0.00    +0.000 A 
ATOM     26  C   UNL     1       1.997   8.236  19.271  0.00  0.00    +0.000 A 
ATOM     27  O   UNL     1       2.168  10.181  17.941  0.00  0.00    +0.000 OA
ATOM     28  C   UNL     1       2.131  11.611  18.022  0.00  0.00    +0.000 C 
ATOM     29  C   UNL     1       0.829  12.103  18.634  0.00  0.00    +0.000 C 
ATOM     30  O   UNL     1       0.682  11.628  19.973  0.00  0.00    +0.000 OA
ENDBRANCH  19  21
ENDBRANCH   1  18
TORSDOF 3
ENDMDL
MODEL 4
REMARK VINA RESULT:      -7.8      2.953      7.444
REMARK  Name = 
REMARK  3 active torsions:
REMARK  status: ('A' for Active; 'I' for Inactive)
REMARK    1  A    between atoms: C_2  and  C_14
REMARK    2  A    between atoms: N_3  and  C_4
REMARK    3  A    between atoms: N_21  and  C_22
REMARK                            x       y       z     vdW  Elec       q    Type
REMARK                         _______ _______ _______ _____ _____    ______ ____
ROOT
ATOM      1  C   UNL     1       4.035   3.807  20.145  0.00  0.00    +0.000 C 
ATOM      2  C   UNL     1       4.136   2.301  19.887  0.00  0.00    +0.000 C 
ATOM      3  C   UNL     1       2.891   1.724  20.542  0.00  0.00    +0.000 C 
ATOM      4  C   UNL     1       1.857   2.835  20.450  0.00  0.00    +0.000 C 
ATOM      5  N   UNL     1       2.582   4.040  20.089  0.00  0.00    +0.000 N 
ATOM      6  C   UNL     1       1.879   5.240  20.105  0.00  0.00    +0.000 C 
ATOM      7  O   UNL     1       0.714   5.267  20.496  0.00  0.00    +0.000 OA
ATOM      8  N   UNL     1       2.555   6.323  19.594  0.00  0.00    +0.000 N 
ATOM      9  H   UNL     1       3.288   6.081  18.939  0.00  0.00    +0.000 HD
ENDROOT
BRANCH   8  10
ATOM     10  C   UNL     1       2.064   7.640  19.437  0.00  0.00    +0.000 A 
ATOM     11  C   UNL     1       1.446   8.368  20.457  0.00  0.00    +0.000 A 
ATOM     12  C   UNL     1       0.925   9.642  20.206  0.00  0.00    +0.000 A 
ATOM     13  C   UNL     1       1.046  10.200  18.941  0.00  0.00    +0.000 A 
ATOM     14  F   UNL     1       0.542  11.417  18.702  0.00  0.00    +0.000 F 
ATOM     15  C   UNL     1       1.682   9.508  17.919  0.00  0.00    +0.000 A 
ATOM     16  C   UNL     1       2.190   8.229  18.167  0.00  0.00    +0.000 A 
ENDBRANCH   8  10
BRANCH   1  18
ATOM     17  O   UNL     1       5.606   5.452  19.397  0.00  0.00    +0.000 OA
ATOM     18  C   UNL     1       4.857   4.528  19.079  0.00  0.00    +0.000 C 
ATOM     19  N   UNL     1       4.711   4.049  17.786  0.00  0.00    +0.000 N 
ATOM     20  H   UNL     1       3.927   3.441  17.576  0.00  0.00    +0.000 HD
BRANCH  19  21
ATOM     21  C   UNL     1       5.556   4.398  16.702  0.00  0.00    +0.000 A 
ATOM     22  C   UNL     1       6.642   5.274  16.846  0.00  0.00    +0.000 A 
ATOM     23  C   UNL     1       7.465   5.595  15.768  0.00  0.00    +0.000 A 
ATOM     24  C   UNL     1       7.207   5.046  14.522  0.00  0.00    +0.000 A 
ATOM     25  C   UNL     1       6.144   4.152  14.362  0.00  0.00    +0.000 A 
ATOM     26  C   UNL     1       5.326   3.820  15.451  0.00  0.00    +0.000 A 
ATOM     27  O   UNL     1       5.830   3.578  13.156  0.00  0.00    +0.000 OA
ATOM     28  C   UNL     1       6.903   3.712  12.215  0.00  0.00    +0.000 C 
ATOM     29  C   UNL     1       7.487   5.115  12.229  0.00  0.00    +0.000 C 
ATOM     30  O   UNL     1       8.044   5.423  13.508  0.00  0.00    +0.000 OA
ENDBRANCH  19  21
ENDBRANCH   1  18
TORSDOF 3
ENDMDL
MODEL 5
REMARK VINA RESULT:      -7.2      2.741      5.107
REMARK  Name = 
REMARK  3 active torsions:
REMARK  status: ('A' for Active; 'I' for Inactive)
REMARK    1  A    between atoms: C_2  and  C_14
REMARK    2  A    between atoms: N_3  and  C_4
REMARK    3  A    between atoms: N_21  and  C_22
REMARK                            x       y       z     vdW  Elec       q    Type
REMARK                         _______ _______ _______ _____ _____    ______ ____
ROOT
ATOM      1  C   UNL     1       5.762   5.403  16.716  0.00  0.00    +0.000 C 
ATOM      2  C   UNL     1       6.106   5.903  15.309  0.00  0.00    +0.000 C 
ATOM      3  C   UNL     1       6.174   4.638  14.468  0.00  0.00    +0.000 C 
ATOM      4  C   UNL     1       5.204   3.678  15.137  0.00  0.00    +0.000 C 
ATOM      5  N   UNL     1       4.894   4.246  16.436  0.00  0.00    +0.000 N 
ATOM      6  C   UNL     1       4.151   3.468  17.316  0.00  0.00    +0.000 C 
ATOM      7  O   UNL     1       3.853   2.313  17.017  0.00  0.00    +0.000 OA
ATOM      8  N   UNL     1       3.738   4.108  18.461  0.00  0.00    +0.000 N 
ATOM      9  H   UNL     1       3.675   5.115  18.372  0.00  0.00    +0.000 HD
ENDROOT
BRANCH   8  10
ATOM     10  C   UNL     1       2.927   3.578  19.492  0.00  0.00    +0.000 A 
ATOM     11  C   UNL     1       1.539   3.730  19.547  0.00  0.00    +0.000 A 
ATOM     12  C   UNL     1       0.813   3.232  20.634  0.00  0.00    +0.000 A 
ATOM     13  C   UNL     1       1.471   2.561  21.655  0.00  0.00    +0.000 A 
ATOM     14  F   UNL     1       0.773   2.091  22.696  0.00  0.00    +0.000 F 
ATOM     15  C   UNL     1       2.845   2.372  21.607  0.00  0.00    +0.000 A 
ATOM     16  C   UNL     1       3.573   2.881  20.527  0.00  0.00    +0.000 A 
ENDBRANCH   8  10
BRANCH   1  18
ATOM     17  O   UNL     1       5.765   7.538  17.802  0.00  0.00    +0.000 OA
ATOM     18  C   UNL     1       5.103   6.549  17.479  0.00  0.00    +0.000 C 
ATOM     19  N   UNL     1       3.750   6.395  17.739  0.00  0.00    +0.000 N 
ATOM     20  H   UNL     1       3.335   5.476  17.636  0.00  0.00    +0.000 HD
BRANCH  19  21
ATOM     21  C   UNL     1       2.901   7.432  18.203  0.00  0.00    +0.000 A 
ATOM     22  C   UNL     1       2.534   8.521  17.399  0.00  0.00    +0.000 A 
ATOM     23  C   UNL     1       1.690   9.524  17.875  0.00  0.00    +0.000 A 
ATOM     24  C   UNL     1       1.204   9.452  19.171  0.00  0.00    +0.000 A 
ATOM     25  C   UNL     1       1.538   8.362  19.981  0.00  0.00    +0.000 A 
ATOM     26  C   UNL     1       2.376   7.348  19.495  0.00  0.00    +0.000 A 
ATOM     27  O   UNL     1       1.096   8.233  21.273  0.00  0.00    +0.000 OA
ATOM     28  C   UNL     1       0.003   9.119  21.546  0.00  0.00    +0.000 C 
ATOM     29  C   UNL     1       0.262  10.512  20.995  0.00  0.00    +0.000 C 
ATOM     30  O   UNL     1       0.399  10.481  19.574  0.00  0.00    +0.000 OA
ENDBRANCH  19  21
ENDBRANCH   1  18
TORSDOF 3
ENDMDL
MODEL 6
REMARK VINA RESULT:      -7.1      4.431      8.956
REMARK  Name = 
REMARK  3 active torsions:
REMARK  status: ('A' for Active; 'I' for Inactive)
REMARK    1  A    between atoms: C_2  and  C_14
REMARK    2  A    between atoms: N_3  and  C_4
REMARK    3  A    between atoms: N_21  and  C_22
REMARK                            x       y       z     vdW  Elec       q    Type
REMARK                         _______ _______ _______ _____ _____    ______ ____
ROOT
ATOM      1  C   UNL     1      -1.071  12.351  21.638  0.00  0.00    +0.000 C 
ATOM      2  C   UNL     1      -1.138  12.436  23.166  0.00  0.00    +0.000 C 
ATOM      3  C   UNL     1      -2.255  13.432  23.437  0.00  0.00    +0.000 C 
ATOM      4  C   UNL     1      -3.200  13.283  22.255  0.00  0.00    +0.000 C 
ATOM      5  N   UNL     1      -2.481  12.521  21.250  0.00  0.00    +0.000 N 
ATOM      6  C   UNL     1      -3.073  12.390  19.999  0.00  0.00    +0.000 C 
ATOM      7  O   UNL     1      -4.124  12.979  19.750  0.00  0.00    +0.000 OA
ATOM      8  N   UNL     1      -2.443  11.523  19.138  0.00  0.00    +0.000 N 
ATOM      9  H   UNL     1      -1.886  10.814  19.600  0.00  0.00    +0.000 HD
ENDROOT
BRANCH   8  10
ATOM     10  C   UNL     1      -2.858  11.159  17.835  0.00  0.00    +0.000 A 
ATOM     11  C   UNL     1      -4.069  11.559  17.264  0.00  0.00    +0.000 A 
ATOM     12  C   UNL     1      -4.440  11.104  15.994  0.00  0.00    +0.000 A 
ATOM     13  C   UNL     1      -3.588  10.270  15.284  0.00  0.00    +0.000 A 
ATOM     14  F   UNL     1      -3.948   9.832  14.071  0.00  0.00    +0.000 F 
ATOM     15  C   UNL     1      -2.366   9.884  15.819  0.00  0.00    +0.000 A 
ATOM     16  C   UNL     1      -2.002  10.328  17.093  0.00  0.00    +0.000 A 
ENDBRANCH   8  10
BRANCH   1  18
ATOM     17  O   UNL     1      -0.889   9.965  21.742  0.00  0.00    +0.000 OA
ATOM     18  C   UNL     1      -0.443  11.010  21.265  0.00  0.00    +0.000 C 
ATOM     19  N   UNL     1       0.606  11.072  20.360  0.00  0.00    +0.000 N 
ATOM     20  H   UNL     1       1.047  11.968  20.186  0.00  0.00    +0.000 HD
BRANCH  19  21
ATOM     21  C   UNL     1       1.156   9.948  19.694  0.00  0.00    +0.000 A 
ATOM     22  C   UNL     1       1.553   9.988  18.350  0.00  0.00    +0.000 A 
ATOM     23  C   UNL     1       2.099   8.872  17.719  0.00  0.00    +0.000 A 
ATOM     24  C   UNL     1       2.252   7.691  18.428  0.00  0.00    +0.000 A 
ATOM     25  C   UNL     1       1.885   7.636  19.777  0.00  0.00    +0.000 A 
ATOM     26  C   UNL     1       1.348   8.764  20.412  0.00  0.00    +0.000 A 
ATOM     27  O   UNL     1       2.004   6.498  20.533  0.00  0.00    +0.000 OA
ATOM     28  C   UNL     1       2.857   5.533  19.903  0.00  0.00    +0.000 C 
ATOM     29  C   UNL     1       2.548   5.399  18.420  0.00  0.00    +0.000 C 
ATOM     30  O   UNL     1       2.776   6.633  17.738  0.00  0.00    +0.000 OA
ENDBRANCH  19  21
ENDBRANCH   1  18
TORSDOF 3
ENDMDL
MODEL 7
REMARK VINA RESULT:      -7.0      6.729     10.415
REMARK  Name = 
REMARK  3 active torsions:
REMARK  status: ('A' for Active; 'I' for Inactive)
REMARK    1  A    between atoms: C_2  and  C_14
REMARK    2  A    between atoms: N_3  and  C_4
REMARK    3  A    between atoms: N_21  and  C_22
REMARK                            x       y       z     vdW  Elec       q    Type
REMARK                         _______ _______ _______ _____ _____    ______ ____
ROOT
ATOM      1  C   UNL     1       0.260  11.156  19.485  0.00  0.00    +0.000 C 
ATOM      2  C   UNL     1       0.520   9.934  18.598  0.00  0.00    +0.000 C 
ATOM      3  C   UNL     1       1.293   8.979  19.494  0.00  0.00    +0.000 C 
ATOM      4  C   UNL     1       0.808   9.291  20.901  0.00  0.00    +0.000 C 
ATOM      5  N   UNL     1       0.089  10.549  20.816  0.00  0.00    +0.000 N 
ATOM      6  C   UNL     1      -0.314  11.139  22.009  0.00  0.00    +0.000 C 
ATOM      7  O   UNL     1       0.013  10.640  23.084  0.00  0.00    +0.000 OA
ATOM      8  N   UNL     1      -1.135  12.234  21.875  0.00  0.00    +0.000 N 
ATOM      9  H   UNL     1      -1.652  12.259  21.005  0.00  0.00    +0.000 HD
ENDROOT
BRANCH   8  10
ATOM     10  C   UNL     1      -1.735  12.984  22.914  0.00  0.00    +0.000 A 
ATOM     11  C   UNL     1      -3.013  12.731  23.419  0.00  0.00    +0.000 A 
ATOM     12  C   UNL     1      -3.565  13.560  24.402  0.00  0.00    +0.000 A 
ATOM     13  C   UNL     1      -2.829  14.627  24.898  0.00  0.00    +0.000 A 
ATOM     14  F   UNL     1      -3.362  15.421  25.834  0.00  0.00    +0.000 F 
ATOM     15  C   UNL     1      -1.546  14.880  24.432  0.00  0.00    +0.000 A 
ATOM     16  C   UNL     1      -1.000  14.060  23.440  0.00  0.00    +0.000 A 
ENDBRANCH   8  10
BRANCH   1  18
ATOM     17  O   UNL     1      -0.815  12.913  18.264  0.00  0.00    +0.000 OA
ATOM     18  C   UNL     1      -0.960  11.891  18.936  0.00  0.00    +0.000 C 
ATOM     19  N   UNL     1      -2.187  11.313  19.226  0.00  0.00    +0.000 N 
ATOM     20  H   UNL     1      -2.235  10.608  19.953  0.00  0.00    +0.000 HD
BRANCH  19  21
ATOM     21  C   UNL     1      -3.410  11.681  18.611  0.00  0.00    +0.000 A 
ATOM     22  C   UNL     1      -3.700  11.385  17.271  0.00  0.00    +0.000 A 
ATOM     23  C   UNL     1      -4.914  11.750  16.692  0.00  0.00    +0.000 A 
ATOM     24  C   UNL     1      -5.858  12.427  17.448  0.00  0.00    +0.000 A 
ATOM     25  C   UNL     1      -5.599  12.712  18.793  0.00  0.00    +0.000 A 
ATOM     26  C   UNL     1      -4.383  12.331  19.376  0.00  0.00    +0.000 A 
ATOM     27  O   UNL     1      -6.486  13.383  19.595  0.00  0.00    +0.000 OA
ATOM     28  C   UNL     1      -7.796  13.420  19.014  0.00  0.00    +0.000 C 
ATOM     29  C   UNL     1      -7.741  13.762  17.533  0.00  0.00    +0.000 C 
ATOM     30  O   UNL     1      -7.016  12.770  16.807  0.00  0.00    +0.000 OA
ENDBRANCH  19  21
ENDBRANCH   1  18
TORSDOF 3
ENDMDL
MODEL 8
REMARK VINA RESULT:      -7.0      7.756     10.052
REMARK  Name = 
REMARK  3 active torsions:
REMARK  status: ('A' for Active; 'I' for Inactive)
REMARK    1  A    between atoms: C_2  and  C_14
REMARK    2  A    between atoms: N_3  and  C_4
REMARK    3  A    between atoms: N_21  and  C_22
REMARK                            x       y       z     vdW  Elec       q    Type
REMARK                         _______ _______ _______ _____ _____    ______ ____
ROOT
ATOM      1  C   UNL     1      -5.419  13.397  21.274  0.00  0.00    +0.000 C 
ATOM      2  C   UNL     1      -6.027  13.413  22.680  0.00  0.00    +0.000 C 
ATOM      3  C   UNL     1      -7.435  12.873  22.485  0.00  0.00    +0.000 C 
ATOM      4  C   UNL     1      -7.326  11.934  21.295  0.00  0.00    +0.000 C 
ATOM      5  N   UNL     1      -6.043  12.205  20.673  0.00  0.00    +0.000 N 
ATOM      6  C   UNL     1      -5.776  11.587  19.458  0.00  0.00    +0.000 C 
ATOM      7  O   UNL     1      -6.641  10.910  18.907  0.00  0.00    +0.000 OA
ATOM      8  N   UNL     1      -4.490  11.737  18.993  0.00  0.00    +0.000 N 
ATOM      9  H   UNL     1      -3.808  11.925  19.717  0.00  0.00    +0.000 HD
ENDROOT
BRANCH   8  10
ATOM     10  C   UNL     1      -3.933  11.170  17.822  0.00  0.00    +0.000 A 
ATOM     11  C   UNL     1      -2.839  10.301  17.823  0.00  0.00    +0.000 A 
ATOM     12  C   UNL     1      -2.302   9.834  16.618  0.00  0.00    +0.000 A 
ATOM     13  C   UNL     1      -2.875  10.216  15.413  0.00  0.00    +0.000 A 
ATOM     14  F   UNL     1      -2.356   9.771  14.262  0.00  0.00    +0.000 F 
ATOM     15  C   UNL     1      -3.981  11.055  15.390  0.00  0.00    +0.000 A 
ATOM     16  C   UNL     1      -4.508  11.532  16.593  0.00  0.00    +0.000 A 
ENDBRANCH   8  10
BRANCH   1  18
ATOM     17  O   UNL     1      -3.373  12.466  22.102  0.00  0.00    +0.000 OA
ATOM     18  C   UNL     1      -3.899  13.342  21.414  0.00  0.00    +0.000 C 
ATOM     19  N   UNL     1      -3.199  14.307  20.705  0.00  0.00    +0.000 N 
ATOM     20  H   UNL     1      -3.702  15.110  20.346  0.00  0.00    +0.000 HD
BRANCH  19  21
ATOM     21  C   UNL     1      -1.797  14.284  20.494  0.00  0.00    +0.000 A 
ATOM     22  C   UNL     1      -0.918  15.145  21.167  0.00  0.00    +0.000 A 
ATOM     23  C   UNL     1       0.457  15.096  20.949  0.00  0.00    +0.000 A 
ATOM     24  C   UNL     1       0.975  14.185  20.043  0.00  0.00    +0.000 A 
ATOM     25  C   UNL     1       0.120  13.300  19.378  0.00  0.00    +0.000 A 
ATOM     26  C   UNL     1      -1.262  13.342  19.610  0.00  0.00    +0.000 A 
ATOM     27  O   UNL     1       0.566  12.378  18.466  0.00  0.00    +0.000 OA
ATOM     28  C   UNL     1       1.984  12.192  18.557  0.00  0.00    +0.000 C 
ATOM     29  C   UNL     1       2.716  13.520  18.676  0.00  0.00    +0.000 C 
ATOM     30  O   UNL     1       2.331  14.209  19.866  0.00  0.00    +0.000 OA
ENDBRANCH  19  21
ENDBRANCH   1  18
TORSDOF 3
ENDMDL
MODEL 9
REMARK VINA RESULT:      -6.9      8.115     10.158
REMARK  Name = 
REMARK  3 active torsions:
REMARK  status: ('A' for Active; 'I' for Inactive)
REMARK    1  A    between atoms: C_2  and  C_14
REMARK    2  A    between atoms: N_3  and  C_4
REMARK    3  A    between atoms: N_21  and  C_22
REMARK                            x       y       z     vdW  Elec       q    Type
REMARK                         _______ _______ _______ _____ _____    ______ ____
ROOT
ATOM      1  C   UNL     1      -3.803  14.597  21.224  0.00  0.00    +0.000 C 
ATOM      2  C   UNL     1      -4.071  14.978  22.683  0.00  0.00    +0.000 C 
ATOM      3  C   UNL     1      -5.517  14.569  22.917  0.00  0.00    +0.000 C 
ATOM      4  C   UNL     1      -5.741  13.393  21.981  0.00  0.00    +0.000 C 
ATOM      5  N   UNL     1      -4.620  13.382  21.059  0.00  0.00    +0.000 N 
ATOM      6  C   UNL     1      -4.676  12.495  19.991  0.00  0.00    +0.000 C 
ATOM      7  O   UNL     1      -5.685  11.817  19.805  0.00  0.00    +0.000 OA
ATOM      8  N   UNL     1      -3.524  12.399  19.247  0.00  0.00    +0.000 N 
ATOM      9  H   UNL     1      -2.684  12.660  19.748  0.00  0.00    +0.000 HD
ENDROOT
BRANCH   8  10
ATOM     10  C   UNL     1      -3.285  11.539  18.149  0.00  0.00    +0.000 A 
ATOM     11  C   UNL     1      -2.228  10.626  18.090  0.00  0.00    +0.000 A 
ATOM     12  C   UNL     1      -2.018   9.855  16.942  0.00  0.00    +0.000 A 
ATOM     13  C   UNL     1      -2.879   9.980  15.860  0.00  0.00    +0.000 A 
ATOM     14  F   UNL     1      -2.672   9.245  14.761  0.00  0.00    +0.000 F 
ATOM     15  C   UNL     1      -3.952  10.858  15.907  0.00  0.00    +0.000 A 
ATOM     16  C   UNL     1      -4.154  11.638  17.050  0.00  0.00    +0.000 A 
ENDBRANCH   8  10
BRANCH   1  18
ATOM     17  O   UNL     1      -1.675  13.679  21.828  0.00  0.00    +0.000 OA
ATOM     18  C   UNL     1      -2.298  14.405  21.052  0.00  0.00    +0.000 C 
ATOM     19  N   UNL     1      -1.730  15.069  19.975  0.00  0.00    +0.000 N 
ATOM     20  H   UNL     1      -2.259  15.807  19.522  0.00  0.00    +0.000 HD
BRANCH  19  21
ATOM     21  C   UNL     1      -0.419  14.831  19.489  0.00  0.00    +0.000 A 
ATOM     22  C   UNL     1      -0.050  13.624  18.878  0.00  0.00    +0.000 A 
ATOM     23  C   UNL     1       1.243  13.417  18.400  0.00  0.00    +0.000 A 
ATOM     24  C   UNL     1       2.191  14.418  18.534  0.00  0.00    +0.000 A 
ATOM     25  C   UNL     1       1.838  15.638  19.118  0.00  0.00    +0.000 A 
ATOM     26  C   UNL     1       0.533  15.849  19.586  0.00  0.00    +0.000 A 
ATOM     27  O   UNL     1       2.729  16.668  19.286  0.00  0.00    +0.000 OA
ATOM     28  C   UNL     1       3.904  16.482  18.487  0.00  0.00    +0.000 C 
ATOM     29  C   UNL     1       4.413  15.051  18.567  0.00  0.00    +0.000 C 
ATOM     30  O   UNL     1       3.442  14.135  18.059  0.00  0.00    +0.000 OA
ENDBRANCH  19  21
ENDBRANCH   1  18
TORSDOF 3
ENDMDL
