MODEL 1
REMARK VINA RESULT:      -6.9      0.000      0.000
REMARK  Name = 
REMARK  8 active torsions:
REMARK  status: ('A' for Active; 'I' for Inactive)
REMARK    1  A    between atoms: C_1  and  N_2
REMARK    2  A    between atoms: N_2  and  C_3
REMARK    3  A    between atoms: C_3  and  C_4
REMARK    4  A    between atoms: C_9  and  C_11
REMARK    5  A    between atoms: C_11  and  C_12
REMARK    6  A    between atoms: C_12  and  C_13
REMARK    7  A    between atoms: C_13  and  N_14
REMARK    8  A    between atoms: C_13  and  C_15
REMARK                            x       y       z     vdW  Elec       q    Type
REMARK                         _______ _______ _______ _____ _____    ______ ____
ROOT
ATOM      1  C   UNL     1       4.579   5.099  16.486  0.00  0.00    +0.000 C 
ENDROOT
BRANCH   1   4
ATOM      2  C   UNL     1       2.480   7.124  18.945  0.00  0.00    +0.000 C 
ATOM      3  N   UNL     1       2.934   6.045  18.084  0.00  0.00    +0.000 N 
ATOM      4  C   UNL     1       4.116   6.242  17.375  0.00  0.00    +0.000 C 
ATOM      5  O   UNL     1       4.759   7.289  17.468  0.00  0.00    +0.000 OA
BRANCH   3   6
ATOM      6  C   UNL     1       2.087   4.857  17.975  0.00  0.00    +0.000 C 
BRANCH   6   7
ATOM      7  C   UNL     1       2.023   4.090  19.266  0.00  0.00    +0.000 A 
ATOM      8  C   UNL     1       0.963   3.840  20.119  0.00  0.00    +0.000 A 
ATOM      9  C   UNL     1       1.330   3.016  21.224  0.00  0.00    +0.000 A 
ATOM     10  C   UNL     1       2.661   2.674  21.192  0.00  0.00    +0.000 A 
ATOM     11  S   UNL     1       3.463   3.344  19.842  0.00  0.00    +0.000 S 
ENDBRANCH   6   7
ENDBRANCH   3   6
ENDBRANCH   1   4
BRANCH   1  12
ATOM     12  C   UNL     1       5.866   4.435  16.990  0.00  0.00    +0.000 C 
BRANCH  12  13
ATOM     13  C   UNL     1       7.101   4.883  16.182  0.00  0.00    +0.000 C 
BRANCH  13  14
ATOM     14  C   UNL     1       7.029   4.582  14.694  0.00  0.00    +0.000 A 
ATOM     15  C   UNL     1       7.804   5.344  13.801  0.00  0.00    +0.000 A 
ATOM     16  C   UNL     1       7.690   5.165  12.421  0.00  0.00    +0.000 A 
ATOM     17  C   UNL     1       6.801   4.224  11.911  0.00  0.00    +0.000 A 
ATOM     18  C   UNL     1       6.027   3.459  12.780  0.00  0.00    +0.000 A 
ATOM     19  C   UNL     1       6.136   3.638  14.160  0.00  0.00    +0.000 A 
ENDBRANCH  13  14
BRANCH  13  20
ATOM     20  N   UNL     1       7.348   6.319  16.363  0.00  0.00    +0.000 NA
ATOM     21  H   UNL     1       8.238   6.549  15.922  0.00  0.00    +0.000 HD
ATOM     22  H   UNL     1       7.491   6.494  17.358  0.00  0.00    +0.000 HD
ENDBRANCH  13  20
ENDBRANCH  12  13
ENDBRANCH   1  12
TORSDOF 7
ENDMDL
MODEL 2
REMARK VINA RESULT:      -6.7      2.808      4.425
REMARK  Name = 
REMARK  8 active torsions:
REMARK  status: ('A' for Active; 'I' for Inactive)
REMARK    1  A    between atoms: C_1  and  N_2
REMARK    2  A    between atoms: N_2  and  C_3
REMARK    3  A    between atoms: C_3  and  C_4
REMARK    4  A    between atoms: C_9  and  C_11
REMARK    5  A    between atoms: C_11  and  C_12
REMARK    6  A    between atoms: C_12  and  C_13
REMARK    7  A    between atoms: C_13  and  N_14
REMARK    8  A    between atoms: C_13  and  C_15
REMARK                            x       y       z     vdW  Elec       q    Type
REMARK                         _______ _______ _______ _____ _____    ______ ____
ROOT
ATOM      1  C   UNL     1       4.136   3.528  17.915  0.00  0.00    +0.000 C 
ENDROOT
BRANCH   1   4
ATOM      2  C   UNL     1       0.999   3.934  20.047  0.00  0.00    +0.000 C 
ATOM      3  N   UNL     1       2.313   4.166  19.471  0.00  0.00    +0.000 N 
ATOM      4  C   UNL     1       2.762   3.264  18.511  0.00  0.00    +0.000 C 
ATOM      5  O   UNL     1       2.079   2.303  18.157  0.00  0.00    +0.000 OA
BRANCH   3   6
ATOM      6  C   UNL     1       3.093   5.292  19.986  0.00  0.00    +0.000 C 
BRANCH   6   7
ATOM      7  C   UNL     1       2.681   6.596  19.363  0.00  0.00    +0.000 A 
ATOM      8  C   UNL     1       2.904   7.104  18.095  0.00  0.00    +0.000 A 
ATOM      9  C   UNL     1       2.289   8.375  17.898  0.00  0.00    +0.000 A 
ATOM     10  C   UNL     1       1.626   8.808  19.023  0.00  0.00    +0.000 A 
ATOM     11  S   UNL     1       1.751   7.692  20.309  0.00  0.00    +0.000 S 
ENDBRANCH   6   7
ENDBRANCH   3   6
ENDBRANCH   1   4
BRANCH   1  12
ATOM     12  C   UNL     1       4.068   4.164  16.521  0.00  0.00    +0.000 C 
BRANCH  12  13
ATOM     13  C   UNL     1       5.471   4.403  15.927  0.00  0.00    +0.000 C 
BRANCH  13  14
ATOM     14  C   UNL     1       6.378   5.280  16.775  0.00  0.00    +0.000 A 
ATOM     15  C   UNL     1       7.200   4.680  17.746  0.00  0.00    +0.000 A 
ATOM     16  C   UNL     1       7.972   5.458  18.611  0.00  0.00    +0.000 A 
ATOM     17  C   UNL     1       7.933   6.846  18.522  0.00  0.00    +0.000 A 
ATOM     18  C   UNL     1       7.127   7.458  17.566  0.00  0.00    +0.000 A 
ATOM     19  C   UNL     1       6.351   6.682  16.701  0.00  0.00    +0.000 A 
ENDBRANCH  13  14
BRANCH  13  20
ATOM     20  N   UNL     1       6.151   3.127  15.669  0.00  0.00    +0.000 NA
ATOM     21  H   UNL     1       6.737   2.908  16.474  0.00  0.00    +0.000 HD
ATOM     22  H   UNL     1       6.802   3.265  14.896  0.00  0.00    +0.000 HD
ENDBRANCH  13  20
ENDBRANCH  12  13
ENDBRANCH   1  12
TORSDOF 7
ENDMDL
MODEL 3
REMARK VINA RESULT:      -6.7      0.990      1.693
REMARK  Name = 
REMARK  8 active torsions:
REMARK  status: ('A' for Active; 'I' for Inactive)
REMARK    1  A    between atoms: C_1  and  N_2
REMARK    2  A    between atoms: N_2  and  C_3
REMARK    3  A    between atoms: C_3  and  C_4
REMARK    4  A    between atoms: C_9  and  C_11
REMARK    5  A    between atoms: C_11  and  C_12
REMARK    6  A    between atoms: C_12  and  C_13
REMARK    7  A    between atoms: C_13  and  N_14
REMARK    8  A    between atoms: C_13  and  C_15
REMARK                            x       y       z     vdW  Elec       q    Type
REMARK                         _______ _______ _______ _____ _____    ______ ____
ROOT
ATOM      1  C   UNL     1       5.298   5.518  17.942  0.00  0.00    +0.000 C 
ENDROOT
BRANCH   1   4
ATOM      2  C   UNL     1       2.286   7.858  17.912  0.00  0.00    +0.000 C 
ATOM      3  N   UNL     1       3.242   6.848  18.334  0.00  0.00    +0.000 N 
ATOM      4  C   UNL     1       4.305   6.572  17.479  0.00  0.00    +0.000 C 
ATOM      5  O   UNL     1       4.438   7.157  16.404  0.00  0.00    +0.000 OA
BRANCH   3   6
ATOM      6  C   UNL     1       2.984   6.151  19.594  0.00  0.00    +0.000 C 
BRANCH   6   7
ATOM      7  C   UNL     1       2.187   4.893  19.390  0.00  0.00    +0.000 A 
ATOM      8  C   UNL     1       1.785   4.255  18.229  0.00  0.00    +0.000 A 
ATOM      9  C   UNL     1       1.077   3.044  18.487  0.00  0.00    +0.000 A 
ATOM     10  C   UNL     1       0.944   2.800  19.834  0.00  0.00    +0.000 A 
ATOM     11  S   UNL     1       1.664   4.025  20.781  0.00  0.00    +0.000 S 
ENDBRANCH   6   7
ENDBRANCH   3   6
ENDBRANCH   1   4
BRANCH   1  12
ATOM     12  C   UNL     1       5.609   4.476  16.862  0.00  0.00    +0.000 C 
BRANCH  12  13
ATOM     13  C   UNL     1       6.928   4.783  16.126  0.00  0.00    +0.000 C 
BRANCH  13  14
ATOM     14  C   UNL     1       6.865   4.625  14.616  0.00  0.00    +0.000 A 
ATOM     15  C   UNL     1       5.970   3.693  14.060  0.00  0.00    +0.000 A 
ATOM     16  C   UNL     1       5.954   3.448  12.685  0.00  0.00    +0.000 A 
ATOM     17  C   UNL     1       6.830   4.128  11.845  0.00  0.00    +0.000 A 
ATOM     18  C   UNL     1       7.722   5.056  12.377  0.00  0.00    +0.000 A 
ATOM     19  C   UNL     1       7.743   5.300  13.752  0.00  0.00    +0.000 A 
ENDBRANCH  13  14
BRANCH  13  20
ATOM     20  N   UNL     1       7.397   6.139  16.442  0.00  0.00    +0.000 NA
ATOM     21  H   UNL     1       7.791   6.130  17.383  0.00  0.00    +0.000 HD
ATOM     22  H   UNL     1       6.583   6.750  16.500  0.00  0.00    +0.000 HD
ENDBRANCH  13  20
ENDBRANCH  12  13
ENDBRANCH   1  12
TORSDOF 7
ENDMDL
MODEL 4
REMARK VINA RESULT:      -6.7      2.786      5.965
REMARK  Name = 
REMARK  8 active torsions:
REMARK  status: ('A' for Active; 'I' for Inactive)
REMARK    1  A    between atoms: C_1  and  N_2
REMARK    2  A    between atoms: N_2  and  C_3
REMARK    3  A    between atoms: C_3  and  C_4
REMARK    4  A    between atoms: C_9  and  C_11
REMARK    5  A    between atoms: C_11  and  C_12
REMARK    6  A    between atoms: C_12  and  C_13
REMARK    7  A    between atoms: C_13  and  N_14
REMARK    8  A    between atoms: C_13  and  C_15
REMARK                            x       y       z     vdW  Elec       q    Type
REMARK                         _______ _______ _______ _____ _____    ______ ____
ROOT
ATOM      1  C   UNL     1       4.939   3.921  16.465  0.00  0.00    +0.000 C 
ENDROOT
BRANCH   1   4
ATOM      2  C   UNL     1       6.843   7.094  17.391  0.00  0.00    +0.000 C 
ATOM      3  N   UNL     1       5.775   6.199  16.980  0.00  0.00    +0.000 N 
ATOM      4  C   UNL     1       6.072   4.842  16.889  0.00  0.00    +0.000 C 
ATOM      5  O   UNL     1       7.196   4.408  17.145  0.00  0.00    +0.000 OA
BRANCH   3   6
ATOM      6  C   UNL     1       4.484   6.793  16.632  0.00  0.00    +0.000 C 
BRANCH   6   7
ATOM      7  C   UNL     1       3.587   6.935  17.830  0.00  0.00    +0.000 A 
ATOM      8  C   UNL     1       3.429   6.128  18.943  0.00  0.00    +0.000 A 
ATOM      9  C   UNL     1       2.495   6.662  19.878  0.00  0.00    +0.000 A 
ATOM     10  C   UNL     1       1.956   7.852  19.448  0.00  0.00    +0.000 A 
ATOM     11  S   UNL     1       2.568   8.319  17.924  0.00  0.00    +0.000 S 
ENDBRANCH   6   7
ENDBRANCH   3   6
ENDBRANCH   1   4
BRANCH   1  12
ATOM     12  C   UNL     1       4.616   2.851  17.515  0.00  0.00    +0.000 C 
BRANCH  12  13
ATOM     13  C   UNL     1       3.101   2.591  17.627  0.00  0.00    +0.000 C 
BRANCH  13  14
ATOM     14  C   UNL     1       2.523   2.799  19.017  0.00  0.00    +0.000 A 
ATOM     15  C   UNL     1       3.333   2.558  20.141  0.00  0.00    +0.000 A 
ATOM     16  C   UNL     1       2.810   2.640  21.433  0.00  0.00    +0.000 A 
ATOM     17  C   UNL     1       1.470   2.963  21.623  0.00  0.00    +0.000 A 
ATOM     18  C   UNL     1       0.652   3.207  20.522  0.00  0.00    +0.000 A 
ATOM     19  C   UNL     1       1.173   3.121  19.229  0.00  0.00    +0.000 A 
ENDBRANCH  13  14
BRANCH  13  20
ATOM     20  N   UNL     1       2.358   3.428  16.675  0.00  0.00    +0.000 NA
ATOM     21  H   UNL     1       2.406   2.988  15.756  0.00  0.00    +0.000 HD
ATOM     22  H   UNL     1       2.857   4.312  16.572  0.00  0.00    +0.000 HD
ENDBRANCH  13  20
ENDBRANCH  12  13
ENDBRANCH   1  12
TORSDOF 7
ENDMDL
MODEL 5
REMARK VINA RESULT:      -6.7      1.922      3.331
REMARK  Name = 
REMARK  8 active torsions:
REMARK  status: ('A' for Active; 'I' for Inactive)
REMARK    1  A    between atoms: C_1  and  N_2
REMARK    2  A    between atoms: N_2  and  C_3
REMARK    3  A    between atoms: C_3  and  C_4
REMARK    4  A    between atoms: C_9  and  C_11
REMARK    5  A    between atoms: C_11  and  C_12
REMARK    6  A    between atoms: C_12  and  C_13
REMARK    7  A    between atoms: C_13  and  N_14
REMARK    8  A    between atoms: C_13  and  C_15
REMARK                            x       y       z     vdW  Elec       q    Type
REMARK                         _______ _______ _______ _____ _____    ______ ____
ROOT
ATOM      1  C   UNL     1       4.978   4.101  17.791  0.00  0.00    +0.000 C 
ENDROOT
BRANCH   1   4
ATOM      2  C   UNL     1       1.385   4.062  19.070  0.00  0.00    +0.000 C 
ATOM      3  N   UNL     1       2.769   4.452  18.863  0.00  0.00    +0.000 N 
ATOM      4  C   UNL     1       3.535   3.672  18.000  0.00  0.00    +0.000 C 
ATOM      5  O   UNL     1       3.064   2.688  17.430  0.00  0.00    +0.000 OA
BRANCH   3   6
ATOM      6  C   UNL     1       3.276   5.595  19.623  0.00  0.00    +0.000 C 
BRANCH   6   7
ATOM      7  C   UNL     1       2.704   6.896  19.133  0.00  0.00    +0.000 A 
ATOM      8  C   UNL     1       2.790   7.515  17.899  0.00  0.00    +0.000 A 
ATOM      9  C   UNL     1       2.050   8.732  17.843  0.00  0.00    +0.000 A 
ATOM     10  C   UNL     1       1.432   9.016  19.039  0.00  0.00    +0.000 A 
ATOM     11  S   UNL     1       1.748   7.825  20.221  0.00  0.00    +0.000 S 
ENDBRANCH   6   7
ENDBRANCH   3   6
ENDBRANCH   1   4
BRANCH   1  12
ATOM     12  C   UNL     1       5.160   5.004  16.566  0.00  0.00    +0.000 C 
BRANCH  12  13
ATOM     13  C   UNL     1       6.596   4.940  16.009  0.00  0.00    +0.000 C 
BRANCH  13  14
ATOM     14  C   UNL     1       6.686   4.701  14.511  0.00  0.00    +0.000 A 
ATOM     15  C   UNL     1       5.850   3.738  13.918  0.00  0.00    +0.000 A 
ATOM     16  C   UNL     1       5.972   3.419  12.564  0.00  0.00    +0.000 A 
ATOM     17  C   UNL     1       6.932   4.054  11.782  0.00  0.00    +0.000 A 
ATOM     18  C   UNL     1       7.767   5.012  12.351  0.00  0.00    +0.000 A 
ATOM     19  C   UNL     1       7.649   5.330  13.706  0.00  0.00    +0.000 A 
ENDBRANCH  13  14
BRANCH  13  20
ATOM     20  N   UNL     1       7.337   6.165  16.339  0.00  0.00    +0.000 NA
ATOM     21  H   UNL     1       7.975   6.370  15.571  0.00  0.00    +0.000 HD
ATOM     22  H   UNL     1       7.938   5.966  17.139  0.00  0.00    +0.000 HD
ENDBRANCH  13  20
ENDBRANCH  12  13
ENDBRANCH   1  12
TORSDOF 7
ENDMDL
MODEL 6
REMARK VINA RESULT:      -6.6      3.533      5.899
REMARK  Name = 
REMARK  8 active torsions:
REMARK  status: ('A' for Active; 'I' for Inactive)
REMARK    1  A    between atoms: C_1  and  N_2
REMARK    2  A    between atoms: N_2  and  C_3
REMARK    3  A    between atoms: C_3  and  C_4
REMARK    4  A    between atoms: C_9  and  C_11
REMARK    5  A    between atoms: C_11  and  C_12
REMARK    6  A    between atoms: C_12  and  C_13
REMARK    7  A    between atoms: C_13  and  N_14
REMARK    8  A    between atoms: C_13  and  C_15
REMARK                            x       y       z     vdW  Elec       q    Type
REMARK                         _______ _______ _______ _____ _____    ______ ____
ROOT
ATOM      1  C   UNL     1       2.422   5.606  20.484  0.00  0.00    +0.000 C 
ENDROOT
BRANCH   1   4
ATOM      2  C   UNL     1       2.699   8.192  17.694  0.00  0.00    +0.000 C 
ATOM      3  N   UNL     1       2.822   6.950  18.438  0.00  0.00    +0.000 N 
ATOM      4  C   UNL     1       2.291   6.916  19.725  0.00  0.00    +0.000 C 
ATOM      5  O   UNL     1       1.738   7.898  20.221  0.00  0.00    +0.000 OA
BRANCH   3   6
ATOM      6  C   UNL     1       3.547   5.847  17.808  0.00  0.00    +0.000 C 
BRANCH   6   7
ATOM      7  C   UNL     1       5.019   5.894  18.111  0.00  0.00    +0.000 A 
ATOM      8  C   UNL     1       5.745   5.346  19.154  0.00  0.00    +0.000 A 
ATOM      9  C   UNL     1       7.145   5.591  19.034  0.00  0.00    +0.000 A 
ATOM     10  C   UNL     1       7.446   6.330  17.914  0.00  0.00    +0.000 A 
ATOM     11  S   UNL     1       6.050   6.730  17.016  0.00  0.00    +0.000 S 
ENDBRANCH   6   7
ENDBRANCH   3   6
ENDBRANCH   1   4
BRANCH   1  12
ATOM     12  C   UNL     1       1.070   4.932  20.747  0.00  0.00    +0.000 C 
BRANCH  12  13
ATOM     13  C   UNL     1       1.195   3.397  20.824  0.00  0.00    +0.000 C 
BRANCH  13  14
ATOM     14  C   UNL     1       2.069   2.777  19.746  0.00  0.00    +0.000 A 
ATOM     15  C   UNL     1       3.381   2.385  20.067  0.00  0.00    +0.000 A 
ATOM     16  C   UNL     1       4.247   1.905  19.082  0.00  0.00    +0.000 A 
ATOM     17  C   UNL     1       3.817   1.810  17.762  0.00  0.00    +0.000 A 
ATOM     18  C   UNL     1       2.520   2.191  17.426  0.00  0.00    +0.000 A 
ATOM     19  C   UNL     1       1.654   2.675  18.409  0.00  0.00    +0.000 A 
ENDBRANCH  13  14
BRANCH  13  20
ATOM     20  N   UNL     1       1.699   2.982  22.140  0.00  0.00    +0.000 NA
ATOM     21  H   UNL     1       1.289   3.590  22.847  0.00  0.00    +0.000 HD
ATOM     22  H   UNL     1       2.700   3.175  22.171  0.00  0.00    +0.000 HD
ENDBRANCH  13  20
ENDBRANCH  12  13
ENDBRANCH   1  12
TORSDOF 7
ENDMDL
MODEL 7
REMARK VINA RESULT:      -6.6      0.247      1.106
REMARK  Name = 
REMARK  8 active torsions:
REMARK  status: ('A' for Active; 'I' for Inactive)
REMARK    1  A    between atoms: C_1  and  N_2
REMARK    2  A    between atoms: N_2  and  C_3
REMARK    3  A    between atoms: C_3  and  C_4
REMARK    4  A    between atoms: C_9  and  C_11
REMARK    5  A    between atoms: C_11  and  C_12
REMARK    6  A    between atoms: C_12  and  C_13
REMARK    7  A    between atoms: C_13  and  N_14
REMARK    8  A    between atoms: C_13  and  C_15
REMARK                            x       y       z     vdW  Elec       q    Type
REMARK                         _______ _______ _______ _____ _____    ______ ____
ROOT
ATOM      1  C   UNL     1       4.541   5.596  16.502  0.00  0.00    +0.000 C 
ENDROOT
BRANCH   1   4
ATOM      2  C   UNL     1       2.393   7.081  19.283  0.00  0.00    +0.000 C 
ATOM      3  N   UNL     1       2.904   6.166  18.276  0.00  0.00    +0.000 N 
ATOM      4  C   UNL     1       4.017   6.571  17.545  0.00  0.00    +0.000 C 
ATOM      5  O   UNL     1       4.555   7.662  17.738  0.00  0.00    +0.000 OA
BRANCH   3   6
ATOM      6  C   UNL     1       2.175   4.916  18.060  0.00  0.00    +0.000 C 
BRANCH   6   7
ATOM      7  C   UNL     1       2.064   4.103  19.319  0.00  0.00    +0.000 A 
ATOM      8  C   UNL     1       0.963   3.775  20.091  0.00  0.00    +0.000 A 
ATOM      9  C   UNL     1       1.296   2.933  21.192  0.00  0.00    +0.000 A 
ATOM     10  C   UNL     1       2.642   2.653  21.239  0.00  0.00    +0.000 A 
ATOM     11  S   UNL     1       3.498   3.406  19.968  0.00  0.00    +0.000 S 
ENDBRANCH   6   7
ENDBRANCH   3   6
ENDBRANCH   1   4
BRANCH   1  12
ATOM     12  C   UNL     1       5.664   4.699  17.036  0.00  0.00    +0.000 C 
BRANCH  12  13
ATOM     13  C   UNL     1       6.986   4.914  16.274  0.00  0.00    +0.000 C 
BRANCH  13  14
ATOM     14  C   UNL     1       6.896   4.704  14.772  0.00  0.00    +0.000 A 
ATOM     15  C   UNL     1       6.036   3.711  14.268  0.00  0.00    +0.000 A 
ATOM     16  C   UNL     1       5.999   3.420  12.903  0.00  0.00    +0.000 A 
ATOM     17  C   UNL     1       6.821   4.113  12.020  0.00  0.00    +0.000 A 
ATOM     18  C   UNL     1       7.677   5.101  12.500  0.00  0.00    +0.000 A 
ATOM     19  C   UNL     1       7.718   5.392  13.865  0.00  0.00    +0.000 A 
ENDBRANCH  13  14
BRANCH  13  20
ATOM     20  N   UNL     1       7.523   6.257  16.533  0.00  0.00    +0.000 NA
ATOM     21  H   UNL     1       6.751   6.922  16.502  0.00  0.00    +0.000 HD
ATOM     22  H   UNL     1       8.127   6.513  15.752  0.00  0.00    +0.000 HD
ENDBRANCH  13  20
ENDBRANCH  12  13
ENDBRANCH   1  12
TORSDOF 7
ENDMDL
MODEL 8
REMARK VINA RESULT:      -6.6      2.262      7.073
REMARK  Name = 
REMARK  8 active torsions:
REMARK  status: ('A' for Active; 'I' for Inactive)
REMARK    1  A    between atoms: C_1  and  N_2
REMARK    2  A    between atoms: N_2  and  C_3
REMARK    3  A    between atoms: C_3  and  C_4
REMARK    4  A    between atoms: C_9  and  C_11
REMARK    5  A    between atoms: C_11  and  C_12
REMARK    6  A    between atoms: C_12  and  C_13
REMARK    7  A    between atoms: C_13  and  N_14
REMARK    8  A    between atoms: C_13  and  C_15
REMARK                            x       y       z     vdW  Elec       q    Type
REMARK                         _______ _______ _______ _____ _____    ______ ____
ROOT
ATOM      1  C   UNL     1       3.873   5.101  17.537  0.00  0.00    +0.000 C 
ENDROOT
BRANCH   1   4
ATOM      2  C   UNL     1       7.642   4.512  17.610  0.00  0.00    +0.000 C 
ATOM      3  N   UNL     1       6.330   4.990  17.208  0.00  0.00    +0.000 N 
ATOM      4  C   UNL     1       5.237   4.584  17.969  0.00  0.00    +0.000 C 
ATOM      5  O   UNL     1       5.368   3.848  18.947  0.00  0.00    +0.000 OA
BRANCH   3   6
ATOM      6  C   UNL     1       6.244   5.810  15.999  0.00  0.00    +0.000 C 
BRANCH   6   7
ATOM      7  C   UNL     1       6.249   4.974  14.749  0.00  0.00    +0.000 A 
ATOM      8  C   UNL     1       5.330   4.057  14.270  0.00  0.00    +0.000 A 
ATOM      9  C   UNL     1       5.703   3.517  13.004  0.00  0.00    +0.000 A 
ATOM     10  C   UNL     1       6.902   4.025  12.560  0.00  0.00    +0.000 A 
ATOM     11  S   UNL     1       7.574   5.140  13.664  0.00  0.00    +0.000 S 
ENDBRANCH   6   7
ENDBRANCH   3   6
ENDBRANCH   1   4
BRANCH   1  12
ATOM     12  C   UNL     1       3.512   6.442  18.187  0.00  0.00    +0.000 C 
BRANCH  12  13
ATOM     13  C   UNL     1       2.244   6.337  19.059  0.00  0.00    +0.000 C 
BRANCH  13  14
ATOM     14  C   UNL     1       2.023   4.976  19.697  0.00  0.00    +0.000 A 
ATOM     15  C   UNL     1       1.256   4.014  19.014  0.00  0.00    +0.000 A 
ATOM     16  C   UNL     1       0.946   2.790  19.609  0.00  0.00    +0.000 A 
ATOM     17  C   UNL     1       1.396   2.506  20.895  0.00  0.00    +0.000 A 
ATOM     18  C   UNL     1       2.159   3.445  21.586  0.00  0.00    +0.000 A 
ATOM     19  C   UNL     1       2.467   4.672  20.994  0.00  0.00    +0.000 A 
ENDBRANCH  13  14
BRANCH  13  20
ATOM     20  N   UNL     1       2.253   7.359  20.114  0.00  0.00    +0.000 NA
ATOM     21  H   UNL     1       3.131   7.874  20.055  0.00  0.00    +0.000 HD
ATOM     22  H   UNL     1       2.283   6.884  21.016  0.00  0.00    +0.000 HD
ENDBRANCH  13  20
ENDBRANCH  12  13
ENDBRANCH   1  12
TORSDOF 7
ENDMDL
MODEL 9
REMARK VINA RESULT:      -6.5      2.812      5.951
REMARK  Name = 
REMARK  8 active torsions:
REMARK  status: ('A' for Active; 'I' for Inactive)
REMARK    1  A    between atoms: C_1  and  N_2
REMARK    2  A    between atoms: N_2  and  C_3
REMARK    3  A    between atoms: C_3  and  C_4
REMARK    4  A    between atoms: C_9  and  C_11
REMARK    5  A    between atoms: C_11  and  C_12
REMARK    6  A    between atoms: C_12  and  C_13
REMARK    7  A    between atoms: C_13  and  N_14
REMARK    8  A    between atoms: C_13  and  C_15
REMARK                            x       y       z     vdW  Elec       q    Type
REMARK                         _______ _______ _______ _____ _____    ______ ____
ROOT
ATOM      1  C   UNL     1       5.525   4.020  16.744  0.00  0.00    +0.000 C 
ENDROOT
BRANCH   1   4
ATOM      2  C   UNL     1       6.804   7.551  17.413  0.00  0.00    +0.000 C 
ATOM      3  N   UNL     1       5.925   6.447  17.065  0.00  0.00    +0.000 N 
ATOM      4  C   UNL     1       6.462   5.163  17.102  0.00  0.00    +0.000 C 
ATOM      5  O   UNL     1       7.636   4.962  17.416  0.00  0.00    +0.000 OA
BRANCH   3   6
ATOM      6  C   UNL     1       4.562   6.768  16.642  0.00  0.00    +0.000 C 
BRANCH   6   7
ATOM      7  C   UNL     1       3.641   6.969  17.813  0.00  0.00    +0.000 A 
ATOM      8  C   UNL     1       3.459   6.217  18.960  0.00  0.00    +0.000 A 
ATOM      9  C   UNL     1       2.506   6.796  19.849  0.00  0.00    +0.000 A 
ATOM     10  C   UNL     1       1.977   7.963  19.350  0.00  0.00    +0.000 A 
ATOM     11  S   UNL     1       2.621   8.355  17.818  0.00  0.00    +0.000 S 
ENDBRANCH   6   7
ENDBRANCH   3   6
ENDBRANCH   1   4
BRANCH   1  12
ATOM     12  C   UNL     1       5.066   3.219  17.968  0.00  0.00    +0.000 C 
BRANCH  12  13
ATOM     13  C   UNL     1       3.616   2.717  17.818  0.00  0.00    +0.000 C 
BRANCH  13  14
ATOM     14  C   UNL     1       2.799   2.744  19.099  0.00  0.00    +0.000 A 
ATOM     15  C   UNL     1       1.426   3.039  19.031  0.00  0.00    +0.000 A 
ATOM     16  C   UNL     1       0.663   3.172  20.193  0.00  0.00    +0.000 A 
ATOM     17  C   UNL     1       1.259   3.015  21.441  0.00  0.00    +0.000 A 
ATOM     18  C   UNL     1       2.618   2.720  21.527  0.00  0.00    +0.000 A 
ATOM     19  C   UNL     1       3.383   2.590  20.367  0.00  0.00    +0.000 A 
ENDBRANCH  13  14
BRANCH  13  20
ATOM     20  N   UNL     1       2.905   3.483  16.786  0.00  0.00    +0.000 NA
ATOM     21  H   UNL     1       2.874   2.922  15.935  0.00  0.00    +0.000 HD
ATOM     22  H   UNL     1       3.471   4.297  16.547  0.00  0.00    +0.000 HD
ENDBRANCH  13  20
ENDBRANCH  12  13
ENDBRANCH   1  12
TORSDOF 7
ENDMDL
