MODEL 1
REMARK VINA RESULT:      -7.5      0.000      0.000
REMARK  Name = 
REMARK  3 active torsions:
REMARK  status: ('A' for Active; 'I' for Inactive)
REMARK    1  A    between atoms: O_1  and  C_2
REMARK    2  A    between atoms: C_4  and  O_5
REMARK    3  A    between atoms: C_9  and  C_10
REMARK                            x       y       z     vdW  Elec       q    Type
REMARK                         _______ _______ _______ _____ _____    ______ ____
ROOT
ATOM      1  C   UNL     1       5.897   3.692  12.910  0.00  0.00    +0.000 A 
ATOM      2  C   UNL     1       7.144   4.393  12.542  0.00  0.00    +0.000 A 
ATOM      3  C   UNL     1       7.674   5.153  13.515  0.00  0.00    +0.000 A 
ATOM      4  N   UNL     1       7.029   5.232  14.772  0.00  0.00    +0.000 N 
ATOM      5  N   UNL     1       7.410   5.939  15.869  0.00  0.00    +0.000 NA
ATOM      6  C   UNL     1       6.472   5.676  16.778  0.00  0.00    +0.000 A 
ATOM      7  C   UNL     1       5.465   4.807  16.311  0.00  0.00    +0.000 A 
ATOM      8  C   UNL     1       5.840   4.523  15.007  0.00  0.00    +0.000 A 
ATOM      9  N   UNL     1       5.276   3.731  14.039  0.00  0.00    +0.000 NA
ENDROOT
BRANCH   7  10
ATOM     10  C   UNL     1       4.295   4.275  16.994  0.00  0.00    +0.000 A 
ATOM     11  C   UNL     1       3.274   5.119  17.457  0.00  0.00    +0.000 A 
ATOM     12  C   UNL     1       2.145   4.599  18.097  0.00  0.00    +0.000 A 
ATOM     13  C   UNL     1       2.032   3.227  18.288  0.00  0.00    +0.000 A 
ATOM     14 CL   UNL     1       0.640   2.583  19.068  0.00  0.00    +0.000 Cl
ATOM     15  C   UNL     1       3.040   2.372  17.850  0.00  0.00    +0.000 A 
ATOM     16  C   UNL     1       4.168   2.894  17.206  0.00  0.00    +0.000 A 
ENDBRANCH   7  10
BRANCH   1  17
ATOM     17  O   UNL     1       5.390   2.944  11.915  0.00  0.00    +0.000 OA
ATOM     18  H   UNL     1       4.433   3.016  11.800  0.00  0.00    +0.000 HD
ENDBRANCH   1  17
BRANCH   3  19
ATOM     19  O   UNL     1       8.846   5.871  13.319  0.00  0.00    +0.000 OA
ATOM     20  H   UNL     1       9.563   5.272  13.057  0.00  0.00    +0.000 HD
ENDBRANCH   3  19
TORSDOF 3
ENDMDL
MODEL 2
REMARK VINA RESULT:      -7.5      0.042      1.138
REMARK  Name = 
REMARK  3 active torsions:
REMARK  status: ('A' for Active; 'I' for Inactive)
REMARK    1  A    between atoms: O_1  and  C_2
REMARK    2  A    between atoms: C_4  and  O_5
REMARK    3  A    between atoms: C_9  and  C_10
REMARK                            x       y       z     vdW  Elec       q    Type
REMARK                         _______ _______ _______ _____ _____    ______ ____
ROOT
ATOM      1  C   UNL     1       5.909   3.678  12.876  0.00  0.00    +0.000 A 
ATOM      2  C   UNL     1       7.155   4.381  12.509  0.00  0.00    +0.000 A 
ATOM      3  C   UNL     1       7.683   5.142  13.483  0.00  0.00    +0.000 A 
ATOM      4  N   UNL     1       7.038   5.219  14.740  0.00  0.00    +0.000 N 
ATOM      5  N   UNL     1       7.417   5.926  15.838  0.00  0.00    +0.000 NA
ATOM      6  C   UNL     1       6.479   5.661  16.746  0.00  0.00    +0.000 A 
ATOM      7  C   UNL     1       5.474   4.790  16.277  0.00  0.00    +0.000 A 
ATOM      8  C   UNL     1       5.849   4.507  14.974  0.00  0.00    +0.000 A 
ATOM      9  N   UNL     1       5.288   3.716  14.005  0.00  0.00    +0.000 NA
ENDROOT
BRANCH   7  10
ATOM     10  C   UNL     1       4.304   4.256  16.960  0.00  0.00    +0.000 A 
ATOM     11  C   UNL     1       4.148   2.878  17.172  0.00  0.00    +0.000 A 
ATOM     12  C   UNL     1       3.031   2.374  17.844  0.00  0.00    +0.000 A 
ATOM     13  C   UNL     1       2.051   3.248  18.302  0.00  0.00    +0.000 A 
ATOM     14 CL   UNL     1       0.678   2.632  19.137  0.00  0.00    +0.000 Cl
ATOM     15  C   UNL     1       2.177   4.619  18.090  0.00  0.00    +0.000 A 
ATOM     16  C   UNL     1       3.299   5.121  17.421  0.00  0.00    +0.000 A 
ENDBRANCH   7  10
BRANCH   1  17
ATOM     17  O   UNL     1       5.404   2.931  11.881  0.00  0.00    +0.000 OA
ATOM     18  H   UNL     1       4.440   2.951  11.806  0.00  0.00    +0.000 HD
ENDBRANCH   1  17
BRANCH   3  19
ATOM     19  O   UNL     1       8.854   5.862  13.288  0.00  0.00    +0.000 OA
ATOM     20  H   UNL     1       9.022   6.438  14.051  0.00  0.00    +0.000 HD
ENDBRANCH   3  19
TORSDOF 3
ENDMDL
MODEL 3
REMARK VINA RESULT:      -7.3      5.150      6.247
REMARK  Name = 
REMARK  3 active torsions:
REMARK  status: ('A' for Active; 'I' for Inactive)
REMARK    1  A    between atoms: O_1  and  C_2
REMARK    2  A    between atoms: C_4  and  O_5
REMARK    3  A    between atoms: C_9  and  C_10
REMARK                            x       y       z     vdW  Elec       q    Type
REMARK                         _______ _______ _______ _____ _____    ______ ____
ROOT
ATOM      1  C   UNL     1       1.328   2.841  18.755  0.00  0.00    +0.000 A 
ATOM      2  C   UNL     1       2.354   1.786  18.886  0.00  0.00    +0.000 A 
ATOM      3  C   UNL     1       3.604   2.236  19.094  0.00  0.00    +0.000 A 
ATOM      4  N   UNL     1       3.844   3.628  19.168  0.00  0.00    +0.000 N 
ATOM      5  N   UNL     1       5.027   4.268  19.372  0.00  0.00    +0.000 NA
ATOM      6  C   UNL     1       4.713   5.562  19.355  0.00  0.00    +0.000 A 
ATOM      7  C   UNL     1       3.342   5.806  19.139  0.00  0.00    +0.000 A 
ATOM      8  C   UNL     1       2.787   4.542  19.022  0.00  0.00    +0.000 A 
ATOM      9  N   UNL     1       1.499   4.117  18.817  0.00  0.00    +0.000 NA
ENDROOT
BRANCH   7  10
ATOM     10  C   UNL     1       2.613   7.064  19.070  0.00  0.00    +0.000 A 
ATOM     11  C   UNL     1       1.904   7.559  20.175  0.00  0.00    +0.000 A 
ATOM     12  C   UNL     1       1.221   8.776  20.107  0.00  0.00    +0.000 A 
ATOM     13  C   UNL     1       1.234   9.507  18.923  0.00  0.00    +0.000 A 
ATOM     14 CL   UNL     1       0.401  11.011  18.838  0.00  0.00    +0.000 Cl
ATOM     15  C   UNL     1       1.918   9.029  17.809  0.00  0.00    +0.000 A 
ATOM     16  C   UNL     1       2.605   7.811  17.882  0.00  0.00    +0.000 A 
ENDBRANCH   7  10
BRANCH   1  17
ATOM     17  O   UNL     1       0.092   2.359  18.544  0.00  0.00    +0.000 OA
ATOM     18  H   UNL     1       0.061   1.490  18.120  0.00  0.00    +0.000 HD
ENDBRANCH   1  17
BRANCH   3  19
ATOM     19  O   UNL     1       4.674   1.365  19.240  0.00  0.00    +0.000 OA
ATOM     20  H   UNL     1       4.968   1.049  18.370  0.00  0.00    +0.000 HD
ENDBRANCH   3  19
TORSDOF 3
ENDMDL
MODEL 4
REMARK VINA RESULT:      -7.3      5.087      6.352
REMARK  Name = 
REMARK  3 active torsions:
REMARK  status: ('A' for Active; 'I' for Inactive)
REMARK    1  A    between atoms: O_1  and  C_2
REMARK    2  A    between atoms: C_4  and  O_5
REMARK    3  A    between atoms: C_9  and  C_10
REMARK                            x       y       z     vdW  Elec       q    Type
REMARK                         _______ _______ _______ _____ _____    ______ ____
ROOT
ATOM      1  C   UNL     1       1.258   2.898  19.067  0.00  0.00    +0.000 A 
ATOM      2  C   UNL     1       2.294   1.846  19.119  0.00  0.00    +0.000 A 
ATOM      3  C   UNL     1       3.558   2.300  19.167  0.00  0.00    +0.000 A 
ATOM      4  N   UNL     1       3.804   3.693  19.162  0.00  0.00    +0.000 N 
ATOM      5  N   UNL     1       5.001   4.336  19.207  0.00  0.00    +0.000 NA
ATOM      6  C   UNL     1       4.686   5.630  19.178  0.00  0.00    +0.000 A 
ATOM      7  C   UNL     1       3.298   5.869  19.111  0.00  0.00    +0.000 A 
ATOM      8  C   UNL     1       2.735   4.603  19.104  0.00  0.00    +0.000 A 
ATOM      9  N   UNL     1       1.433   4.174  19.062  0.00  0.00    +0.000 NA
ENDROOT
BRANCH   7  10
ATOM     10  C   UNL     1       2.564   7.126  19.079  0.00  0.00    +0.000 A 
ATOM     11  C   UNL     1       2.481   7.893  17.906  0.00  0.00    +0.000 A 
ATOM     12  C   UNL     1       1.760   9.090  17.879  0.00  0.00    +0.000 A 
ATOM     13  C   UNL     1       1.121   9.536  19.031  0.00  0.00    +0.000 A 
ATOM     14 CL   UNL     1       0.226  11.005  18.998  0.00  0.00    +0.000 Cl
ATOM     15  C   UNL     1       1.203   8.799  20.210  0.00  0.00    +0.000 A 
ATOM     16  C   UNL     1       1.922   7.598  20.233  0.00  0.00    +0.000 A 
ENDBRANCH   7  10
BRANCH   1  17
ATOM     17  O   UNL     1       0.006   2.412  19.016  0.00  0.00    +0.000 OA
ATOM     18  H   UNL     1      -0.454   2.565  18.179  0.00  0.00    +0.000 HD
ENDBRANCH   1  17
BRANCH   3  19
ATOM     19  O   UNL     1       4.640   1.431  19.222  0.00  0.00    +0.000 OA
ATOM     20  H   UNL     1       4.836   1.086  18.336  0.00  0.00    +0.000 HD
ENDBRANCH   3  19
TORSDOF 3
ENDMDL
MODEL 5
REMARK VINA RESULT:      -7.3      3.259      4.211
REMARK  Name = 
REMARK  3 active torsions:
REMARK  status: ('A' for Active; 'I' for Inactive)
REMARK    1  A    between atoms: O_1  and  C_2
REMARK    2  A    between atoms: C_4  and  O_5
REMARK    3  A    between atoms: C_9  and  C_10
REMARK                            x       y       z     vdW  Elec       q    Type
REMARK                         _______ _______ _______ _____ _____    ______ ____
ROOT
ATOM      1  C   UNL     1       7.489   5.763  19.548  0.00  0.00    +0.000 A 
ATOM      2  C   UNL     1       8.281   6.838  18.916  0.00  0.00    +0.000 A 
ATOM      3  C   UNL     1       7.740   7.358  17.802  0.00  0.00    +0.000 A 
ATOM      4  N   UNL     1       6.503   6.863  17.326  0.00  0.00    +0.000 N 
ATOM      5  N   UNL     1       5.803   7.260  16.229  0.00  0.00    +0.000 NA
ATOM      6  C   UNL     1       4.719   6.486  16.227  0.00  0.00    +0.000 A 
ATOM      7  C   UNL     1       4.678   5.573  17.301  0.00  0.00    +0.000 A 
ATOM      8  C   UNL     1       5.840   5.830  18.010  0.00  0.00    +0.000 A 
ATOM      9  N   UNL     1       6.361   5.281  19.154  0.00  0.00    +0.000 NA
ENDROOT
BRANCH   7  10
ATOM     10  C   UNL     1       3.668   4.585  17.652  0.00  0.00    +0.000 A 
ATOM     11  C   UNL     1       3.919   3.210  17.531  0.00  0.00    +0.000 A 
ATOM     12  C   UNL     1       2.951   2.267  17.888  0.00  0.00    +0.000 A 
ATOM     13  C   UNL     1       1.714   2.694  18.360  0.00  0.00    +0.000 A 
ATOM     14 CL   UNL     1       0.523   1.536  18.808  0.00  0.00    +0.000 Cl
ATOM     15  C   UNL     1       1.438   4.054  18.475  0.00  0.00    +0.000 A 
ATOM     16  C   UNL     1       2.411   4.996  18.121  0.00  0.00    +0.000 A 
ENDBRANCH   7  10
BRANCH   1  17
ATOM     17  O   UNL     1       8.059   5.261  20.656  0.00  0.00    +0.000 OA
ATOM     18  H   UNL     1       8.359   5.923  21.295  0.00  0.00    +0.000 HD
ENDBRANCH   1  17
BRANCH   3  19
ATOM     19  O   UNL     1       8.366   8.378  17.098  0.00  0.00    +0.000 OA
ATOM     20  H   UNL     1       8.399   8.159  16.153  0.00  0.00    +0.000 HD
ENDBRANCH   3  19
TORSDOF 3
ENDMDL
MODEL 6
REMARK VINA RESULT:      -7.3      3.495      4.874
REMARK  Name = 
REMARK  3 active torsions:
REMARK  status: ('A' for Active; 'I' for Inactive)
REMARK    1  A    between atoms: O_1  and  C_2
REMARK    2  A    between atoms: C_4  and  O_5
REMARK    3  A    between atoms: C_9  and  C_10
REMARK                            x       y       z     vdW  Elec       q    Type
REMARK                         _______ _______ _______ _____ _____    ______ ____
ROOT
ATOM      1  C   UNL     1       6.536   6.476  16.841  0.00  0.00    +0.000 A 
ATOM      2  C   UNL     1       6.874   5.163  16.254  0.00  0.00    +0.000 A 
ATOM      3  C   UNL     1       5.890   4.249  16.311  0.00  0.00    +0.000 A 
ATOM      4  N   UNL     1       4.652   4.588  16.905  0.00  0.00    +0.000 N 
ATOM      5  N   UNL     1       3.548   3.807  17.053  0.00  0.00    +0.000 NA
ATOM      6  C   UNL     1       2.665   4.591  17.669  0.00  0.00    +0.000 A 
ATOM      7  C   UNL     1       3.155   5.884  17.942  0.00  0.00    +0.000 A 
ATOM      8  C   UNL     1       4.446   5.871  17.438  0.00  0.00    +0.000 A 
ATOM      9  N   UNL     1       5.426   6.830  17.390  0.00  0.00    +0.000 NA
ENDROOT
BRANCH   7  10
ATOM     10  C   UNL     1       2.502   7.020  18.577  0.00  0.00    +0.000 A 
ATOM     11  C   UNL     1       2.151   8.164  17.845  0.00  0.00    +0.000 A 
ATOM     12  C   UNL     1       1.508   9.243  18.458  0.00  0.00    +0.000 A 
ATOM     13  C   UNL     1       1.219   9.189  19.818  0.00  0.00    +0.000 A 
ATOM     14 CL   UNL     1       0.419  10.512  20.574  0.00  0.00    +0.000 Cl
ATOM     15  C   UNL     1       1.571   8.070  20.567  0.00  0.00    +0.000 A 
ATOM     16  C   UNL     1       2.210   6.989  19.950  0.00  0.00    +0.000 A 
ENDBRANCH   7  10
BRANCH   1  17
ATOM     17  O   UNL     1       7.541   7.365  16.773  0.00  0.00    +0.000 OA
ATOM     18  H   UNL     1       8.219   7.265  17.456  0.00  0.00    +0.000 HD
ENDBRANCH   1  17
BRANCH   3  19
ATOM     19  O   UNL     1       6.057   2.970  15.798  0.00  0.00    +0.000 OA
ATOM     20  H   UNL     1       6.630   2.449  16.381  0.00  0.00    +0.000 HD
ENDBRANCH   3  19
TORSDOF 3
ENDMDL
MODEL 7
REMARK VINA RESULT:      -7.3      3.503      4.927
REMARK  Name = 
REMARK  3 active torsions:
REMARK  status: ('A' for Active; 'I' for Inactive)
REMARK    1  A    between atoms: O_1  and  C_2
REMARK    2  A    between atoms: C_4  and  O_5
REMARK    3  A    between atoms: C_9  and  C_10
REMARK                            x       y       z     vdW  Elec       q    Type
REMARK                         _______ _______ _______ _____ _____    ______ ____
ROOT
ATOM      1  C   UNL     1       6.546   6.501  16.854  0.00  0.00    +0.000 A 
ATOM      2  C   UNL     1       6.893   5.193  16.264  0.00  0.00    +0.000 A 
ATOM      3  C   UNL     1       5.914   4.273  16.312  0.00  0.00    +0.000 A 
ATOM      4  N   UNL     1       4.671   4.603  16.902  0.00  0.00    +0.000 N 
ATOM      5  N   UNL     1       3.571   3.816  17.040  0.00  0.00    +0.000 NA
ATOM      6  C   UNL     1       2.680   4.593  17.655  0.00  0.00    +0.000 A 
ATOM      7  C   UNL     1       3.163   5.888  17.935  0.00  0.00    +0.000 A 
ATOM      8  C   UNL     1       4.456   5.884  17.438  0.00  0.00    +0.000 A 
ATOM      9  N   UNL     1       5.431   6.848  17.399  0.00  0.00    +0.000 NA
ENDROOT
BRANCH   7  10
ATOM     10  C   UNL     1       2.500   7.017  18.571  0.00  0.00    +0.000 A 
ATOM     11  C   UNL     1       2.187   7.005  19.939  0.00  0.00    +0.000 A 
ATOM     12  C   UNL     1       1.567   8.100  20.546  0.00  0.00    +0.000 A 
ATOM     13  C   UNL     1       1.244   9.218  19.785  0.00  0.00    +0.000 A 
ATOM     14 CL   UNL     1       0.488  10.572  20.531  0.00  0.00    +0.000 Cl
ATOM     15  C   UNL     1       1.531   9.247  18.423  0.00  0.00    +0.000 A 
ATOM     16  C   UNL     1       2.157   8.150  17.818  0.00  0.00    +0.000 A 
ENDBRANCH   7  10
BRANCH   1  17
ATOM     17  O   UNL     1       7.546   7.396  16.794  0.00  0.00    +0.000 OA
ATOM     18  H   UNL     1       8.283   7.145  16.220  0.00  0.00    +0.000 HD
ENDBRANCH   1  17
BRANCH   3  19
ATOM     19  O   UNL     1       6.091   2.997  15.795  0.00  0.00    +0.000 OA
ATOM     20  H   UNL     1       5.561   2.358  16.297  0.00  0.00    +0.000 HD
ENDBRANCH   3  19
TORSDOF 3
ENDMDL
MODEL 8
REMARK VINA RESULT:      -7.2      3.302      4.086
REMARK  Name = 
REMARK  3 active torsions:
REMARK  status: ('A' for Active; 'I' for Inactive)
REMARK    1  A    between atoms: O_1  and  C_2
REMARK    2  A    between atoms: C_4  and  O_5
REMARK    3  A    between atoms: C_9  and  C_10
REMARK                            x       y       z     vdW  Elec       q    Type
REMARK                         _______ _______ _______ _____ _____    ______ ____
ROOT
ATOM      1  C   UNL     1       7.497   5.764  19.565  0.00  0.00    +0.000 A 
ATOM      2  C   UNL     1       8.292   6.826  18.916  0.00  0.00    +0.000 A 
ATOM      3  C   UNL     1       7.735   7.356  17.814  0.00  0.00    +0.000 A 
ATOM      4  N   UNL     1       6.480   6.882  17.366  0.00  0.00    +0.000 N 
ATOM      5  N   UNL     1       5.763   7.292  16.285  0.00  0.00    +0.000 NA
ATOM      6  C   UNL     1       4.666   6.536  16.307  0.00  0.00    +0.000 A 
ATOM      7  C   UNL     1       4.633   5.623  17.380  0.00  0.00    +0.000 A 
ATOM      8  C   UNL     1       5.815   5.860  18.064  0.00  0.00    +0.000 A 
ATOM      9  N   UNL     1       6.352   5.302  19.196  0.00  0.00    +0.000 NA
ENDROOT
BRANCH   7  10
ATOM     10  C   UNL     1       3.615   4.652  17.754  0.00  0.00    +0.000 A 
ATOM     11  C   UNL     1       2.459   5.037  18.450  0.00  0.00    +0.000 A 
ATOM     12  C   UNL     1       1.478   4.102  18.789  0.00  0.00    +0.000 A 
ATOM     13  C   UNL     1       1.650   2.766  18.443  0.00  0.00    +0.000 A 
ATOM     14 CL   UNL     1       0.440   1.613  18.852  0.00  0.00    +0.000 Cl
ATOM     15  C   UNL     1       2.796   2.358  17.765  0.00  0.00    +0.000 A 
ATOM     16  C   UNL     1       3.776   3.298  17.422  0.00  0.00    +0.000 A 
ENDBRANCH   7  10
BRANCH   1  17
ATOM     17  O   UNL     1       8.083   5.252  20.660  0.00  0.00    +0.000 OA
ATOM     18  H   UNL     1       9.013   5.009  20.548  0.00  0.00    +0.000 HD
ENDBRANCH   1  17
BRANCH   3  19
ATOM     19  O   UNL     1       8.362   8.366  17.097  0.00  0.00    +0.000 OA
ATOM     20  H   UNL     1       7.776   9.135  17.020  0.00  0.00    +0.000 HD
ENDBRANCH   3  19
TORSDOF 3
ENDMDL
MODEL 9
REMARK VINA RESULT:      -7.2      5.157      6.727
REMARK  Name = 
REMARK  3 active torsions:
REMARK  status: ('A' for Active; 'I' for Inactive)
REMARK    1  A    between atoms: O_1  and  C_2
REMARK    2  A    between atoms: C_4  and  O_5
REMARK    3  A    between atoms: C_9  and  C_10
REMARK                            x       y       z     vdW  Elec       q    Type
REMARK                         _______ _______ _______ _____ _____    ______ ____
ROOT
ATOM      1  C   UNL     1       1.811   3.364  20.670  0.00  0.00    +0.000 A 
ATOM      2  C   UNL     1       2.899   2.380  20.491  0.00  0.00    +0.000 A 
ATOM      3  C   UNL     1       3.982   2.846  19.846  0.00  0.00    +0.000 A 
ATOM      4  N   UNL     1       4.008   4.188  19.397  0.00  0.00    +0.000 N 
ATOM      5  N   UNL     1       5.004   4.834  18.735  0.00  0.00    +0.000 NA
ATOM      6  C   UNL     1       4.535   6.067  18.546  0.00  0.00    +0.000 A 
ATOM      7  C   UNL     1       3.239   6.260  19.066  0.00  0.00    +0.000 A 
ATOM      8  C   UNL     1       2.908   5.033  19.620  0.00  0.00    +0.000 A 
ATOM      9  N   UNL     1       1.790   4.592  20.281  0.00  0.00    +0.000 NA
ENDROOT
BRANCH   7  10
ATOM     10  C   UNL     1       2.400   7.450  19.075  0.00  0.00    +0.000 A 
ATOM     11  C   UNL     1       1.799   7.911  20.256  0.00  0.00    +0.000 A 
ATOM     12  C   UNL     1       1.010   9.065  20.260  0.00  0.00    +0.000 A 
ATOM     13  C   UNL     1       0.807   9.764  19.075  0.00  0.00    +0.000 A 
ATOM     14 CL   UNL     1      -0.157  11.190  19.078  0.00  0.00    +0.000 Cl
ATOM     15  C   UNL     1       1.382   9.317  17.888  0.00  0.00    +0.000 A 
ATOM     16  C   UNL     1       2.175   8.164  17.888  0.00  0.00    +0.000 A 
ENDBRANCH   7  10
BRANCH   1  17
ATOM     17  O   UNL     1       0.742   2.867  21.313  0.00  0.00    +0.000 OA
ATOM     18  H   UNL     1      -0.108   3.042  20.885  0.00  0.00    +0.000 HD
ENDBRANCH   1  17
BRANCH   3  19
ATOM     19  O   UNL     1       5.086   2.040  19.605  0.00  0.00    +0.000 OA
ATOM     20  H   UNL     1       5.050   1.685  18.703  0.00  0.00    +0.000 HD
ENDBRANCH   3  19
TORSDOF 3
ENDMDL
