MODEL 1
REMARK VINA RESULT:      -7.6      0.000      0.000
REMARK  Name = 
REMARK  3 active torsions:
REMARK  status: ('A' for Active; 'I' for Inactive)
REMARK    1  A    between atoms: C_10  and  C_12
REMARK    2  A    between atoms: N_18  and  C_19
REMARK    3  A    between atoms: C_19  and  C_20
REMARK                            x       y       z     vdW  Elec       q    Type
REMARK                         _______ _______ _______ _____ _____    ______ ____
ROOT
ATOM      1  O   UNL     1       7.898   6.072  18.492  0.00  0.00    +0.000 OA
ATOM      2  C   UNL     1       6.807   6.003  17.941  0.00  0.00    +0.000 C 
ATOM      3  C   UNL     1       5.618   6.833  18.321  0.00  0.00    +0.000 C 
ATOM      4  C   UNL     1       4.404   6.195  17.596  0.00  0.00    +0.000 C 
ATOM      5  C   UNL     1       3.539   7.273  16.881  0.00  0.00    +0.000 C 
ATOM      6  C   UNL     1       2.866   8.248  17.836  0.00  0.00    +0.000 C 
ATOM      7  C   UNL     1       2.001   7.487  18.820  0.00  0.00    +0.000 C 
ATOM      8  C   UNL     1       2.789   6.405  19.533  0.00  0.00    +0.000 C 
ATOM      9  N   UNL     1       3.517   5.499  18.618  0.00  0.00    +0.000 N 
ATOM     10  C   UNL     1       3.474   4.101  18.790  0.00  0.00    +0.000 C 
ATOM     11  O   UNL     1       3.995   3.325  17.996  0.00  0.00    +0.000 OA
ATOM     12  C   UNL     1       5.101   5.392  16.445  0.00  0.00    +0.000 C 
ATOM     13  N   UNL     1       6.492   5.268  16.820  0.00  0.00    +0.000 N 
ENDROOT
BRANCH  10  14
ATOM     14  C   UNL     1       2.716   3.547  19.917  0.00  0.00    +0.000 A 
ATOM     15  C   UNL     1       1.312   3.487  20.191  0.00  0.00    +0.000 A 
ATOM     16  C   UNL     1       1.158   2.780  21.360  0.00  0.00    +0.000 A 
ATOM     17  O   UNL     1       2.372   2.476  21.882  0.00  0.00    +0.000 OA
ATOM     18  C   UNL     1       3.305   2.971  21.028  0.00  0.00    +0.000 A 
ENDBRANCH  10  14
BRANCH  13  19
ATOM     19  C   UNL     1       7.491   4.667  15.944  0.00  0.00    +0.000 C 
BRANCH  19  20
ATOM     20  C   UNL     1       7.043   4.499  14.499  0.00  0.00    +0.000 A 
ATOM     21  C   UNL     1       7.727   5.132  13.447  0.00  0.00    +0.000 A 
ATOM     22  C   UNL     1       7.371   4.915  12.111  0.00  0.00    +0.000 A 
ATOM     23  C   UNL     1       6.329   4.048  11.801  0.00  0.00    +0.000 A 
ATOM     24  C   UNL     1       5.641   3.405  12.827  0.00  0.00    +0.000 A 
ATOM     25  C   UNL     1       5.991   3.632  14.165  0.00  0.00    +0.000 A 
ENDBRANCH  19  20
ENDBRANCH  13  19
TORSDOF 3
ENDMDL
MODEL 2
REMARK VINA RESULT:      -7.6      2.979      7.190
REMARK  Name = 
REMARK  3 active torsions:
REMARK  status: ('A' for Active; 'I' for Inactive)
REMARK    1  A    between atoms: C_10  and  C_12
REMARK    2  A    between atoms: N_18  and  C_19
REMARK    3  A    between atoms: C_19  and  C_20
REMARK                            x       y       z     vdW  Elec       q    Type
REMARK                         _______ _______ _______ _____ _____    ______ ____
ROOT
ATOM      1  O   UNL     1       1.996   8.560  20.839  0.00  0.00    +0.000 OA
ATOM      2  C   UNL     1       2.044   7.922  19.795  0.00  0.00    +0.000 C 
ATOM      3  C   UNL     1       2.031   6.424  19.721  0.00  0.00    +0.000 C 
ATOM      4  C   UNL     1       2.427   6.067  18.265  0.00  0.00    +0.000 C 
ATOM      5  C   UNL     1       1.468   5.001  17.662  0.00  0.00    +0.000 C 
ATOM      6  C   UNL     1       1.542   3.649  18.357  0.00  0.00    +0.000 C 
ATOM      7  C   UNL     1       2.963   3.124  18.306  0.00  0.00    +0.000 C 
ATOM      8  C   UNL     1       3.948   4.134  18.864  0.00  0.00    +0.000 C 
ATOM      9  N   UNL     1       3.831   5.477  18.256  0.00  0.00    +0.000 N 
ATOM     10  C   UNL     1       4.971   6.187  17.829  0.00  0.00    +0.000 C 
ATOM     11  O   UNL     1       4.895   7.261  17.242  0.00  0.00    +0.000 OA
ATOM     12  C   UNL     1       2.100   7.397  17.506  0.00  0.00    +0.000 C 
ATOM     13  N   UNL     1       1.994   8.427  18.516  0.00  0.00    +0.000 N 
ENDROOT
BRANCH  10  14
ATOM     14  C   UNL     1       6.295   5.586  18.023  0.00  0.00    +0.000 A 
ATOM     15  C   UNL     1       7.231   5.658  19.104  0.00  0.00    +0.000 A 
ATOM     16  C   UNL     1       8.281   4.830  18.785  0.00  0.00    +0.000 A 
ATOM     17  O   UNL     1       8.110   4.321  17.540  0.00  0.00    +0.000 OA
ATOM     18  C   UNL     1       6.930   4.807  17.073  0.00  0.00    +0.000 A 
ENDBRANCH  10  14
BRANCH  13  19
ATOM     19  C   UNL     1       1.595   9.794  18.204  0.00  0.00    +0.000 C 
BRANCH  19  20
ATOM     20  C   UNL     1       0.099  10.055  18.317  0.00  0.00    +0.000 A 
ATOM     21  C   UNL     1      -0.423  10.865  19.341  0.00  0.00    +0.000 A 
ATOM     22  C   UNL     1      -1.786  11.177  19.401  0.00  0.00    +0.000 A 
ATOM     23  C   UNL     1      -2.653  10.693  18.428  0.00  0.00    +0.000 A 
ATOM     24  C   UNL     1      -2.157   9.893  17.400  0.00  0.00    +0.000 A 
ATOM     25  C   UNL     1      -0.794   9.573  17.347  0.00  0.00    +0.000 A 
ENDBRANCH  19  20
ENDBRANCH  13  19
TORSDOF 3
ENDMDL
MODEL 3
REMARK VINA RESULT:      -7.4      0.904      1.130
REMARK  Name = 
REMARK  3 active torsions:
REMARK  status: ('A' for Active; 'I' for Inactive)
REMARK    1  A    between atoms: C_10  and  C_12
REMARK    2  A    between atoms: N_18  and  C_19
REMARK    3  A    between atoms: C_19  and  C_20
REMARK                            x       y       z     vdW  Elec       q    Type
REMARK                         _______ _______ _______ _____ _____    ______ ____
ROOT
ATOM      1  O   UNL     1       7.669   4.453  17.537  0.00  0.00    +0.000 OA
ATOM      2  C   UNL     1       6.500   4.671  17.243  0.00  0.00    +0.000 C 
ATOM      3  C   UNL     1       5.667   5.756  17.856  0.00  0.00    +0.000 C 
ATOM      4  C   UNL     1       4.205   5.459  17.435  0.00  0.00    +0.000 C 
ATOM      5  C   UNL     1       3.496   6.738  16.904  0.00  0.00    +0.000 C 
ATOM      6  C   UNL     1       3.313   7.819  17.959  0.00  0.00    +0.000 C 
ATOM      7  C   UNL     1       2.526   7.264  19.129  0.00  0.00    +0.000 C 
ATOM      8  C   UNL     1       3.161   6.000  19.677  0.00  0.00    +0.000 C 
ATOM      9  N   UNL     1       3.422   4.971  18.646  0.00  0.00    +0.000 N 
ATOM     10  C   UNL     1       3.075   3.622  18.859  0.00  0.00    +0.000 C 
ATOM     11  O   UNL     1       3.199   2.767  17.989  0.00  0.00    +0.000 OA
ATOM     12  C   UNL     1       4.409   4.545  16.180  0.00  0.00    +0.000 C 
ATOM     13  N   UNL     1       5.775   4.071  16.240  0.00  0.00    +0.000 N 
ENDROOT
BRANCH  10  14
ATOM     14  C   UNL     1       2.472   3.237  20.140  0.00  0.00    +0.000 A 
ATOM     15  C   UNL     1       1.126   3.301  20.623  0.00  0.00    +0.000 A 
ATOM     16  C   UNL     1       1.118   2.727  21.873  0.00  0.00    +0.000 A 
ATOM     17  O   UNL     1       2.380   2.395  22.240  0.00  0.00    +0.000 OA
ATOM     18  C   UNL     1       3.195   2.736  21.207  0.00  0.00    +0.000 A 
ENDBRANCH  10  14
BRANCH  13  19
ATOM     19  C   UNL     1       6.375   3.270  15.179  0.00  0.00    +0.000 C 
BRANCH  19  20
ATOM     20  C   UNL     1       6.759   4.058  13.935  0.00  0.00    +0.000 A 
ATOM     21  C   UNL     1       7.611   5.173  14.014  0.00  0.00    +0.000 A 
ATOM     22  C   UNL     1       8.034   5.850  12.864  0.00  0.00    +0.000 A 
ATOM     23  C   UNL     1       7.623   5.415  11.609  0.00  0.00    +0.000 A 
ATOM     24  C   UNL     1       6.783   4.307  11.507  0.00  0.00    +0.000 A 
ATOM     25  C   UNL     1       6.351   3.637  12.659  0.00  0.00    +0.000 A 
ENDBRANCH  19  20
ENDBRANCH  13  19
TORSDOF 3
ENDMDL
MODEL 4
REMARK VINA RESULT:      -7.1      5.148      8.178
REMARK  Name = 
REMARK  3 active torsions:
REMARK  status: ('A' for Active; 'I' for Inactive)
REMARK    1  A    between atoms: C_10  and  C_12
REMARK    2  A    between atoms: N_18  and  C_19
REMARK    3  A    between atoms: C_19  and  C_20
REMARK                            x       y       z     vdW  Elec       q    Type
REMARK                         _______ _______ _______ _____ _____    ______ ____
ROOT
ATOM      1  O   UNL     1       2.988   8.591  17.475  0.00  0.00    +0.000 OA
ATOM      2  C   UNL     1       2.043   8.845  18.211  0.00  0.00    +0.000 C 
ATOM      3  C   UNL     1       0.868   9.686  17.812  0.00  0.00    +0.000 C 
ATOM      4  C   UNL     1       0.102   9.998  19.124  0.00  0.00    +0.000 C 
ATOM      5  C   UNL     1      -1.425   9.752  18.962  0.00  0.00    +0.000 C 
ATOM      6  C   UNL     1      -2.094  10.691  17.969  0.00  0.00    +0.000 C 
ATOM      7  C   UNL     1      -1.864  12.129  18.388  0.00  0.00    +0.000 C 
ATOM      8  C   UNL     1      -0.388  12.421  18.582  0.00  0.00    +0.000 C 
ATOM      9  N   UNL     1       0.294  11.465  19.481  0.00  0.00    +0.000 N 
ATOM     10  C   UNL     1       1.157  11.913  20.502  0.00  0.00    +0.000 C 
ATOM     11  O   UNL     1       1.665  11.148  21.315  0.00  0.00    +0.000 OA
ATOM     12  C   UNL     1       0.609   8.859  20.072  0.00  0.00    +0.000 C 
ATOM     13  N   UNL     1       1.809   8.328  19.465  0.00  0.00    +0.000 N 
ENDROOT
BRANCH  10  14
ATOM     14  C   UNL     1       1.398  13.352  20.648  0.00  0.00    +0.000 A 
ATOM     15  C   UNL     1       2.294  14.246  19.977  0.00  0.00    +0.000 A 
ATOM     16  C   UNL     1       2.040  15.509  20.461  0.00  0.00    +0.000 A 
ATOM     17  O   UNL     1       1.116  15.450  21.451  0.00  0.00    +0.000 OA
ATOM     18  C   UNL     1       0.760  14.146  21.583  0.00  0.00    +0.000 A 
ENDBRANCH  10  14
BRANCH  13  19
ATOM     19  C   UNL     1       2.518   7.174  20.006  0.00  0.00    +0.000 C 
BRANCH  19  20
ATOM     20  C   UNL     1       1.963   5.828  19.562  0.00  0.00    +0.000 A 
ATOM     21  C   UNL     1       2.120   5.376  18.240  0.00  0.00    +0.000 A 
ATOM     22  C   UNL     1       1.686   4.105  17.847  0.00  0.00    +0.000 A 
ATOM     23  C   UNL     1       1.096   3.254  18.775  0.00  0.00    +0.000 A 
ATOM     24  C   UNL     1       0.936   3.679  20.093  0.00  0.00    +0.000 A 
ATOM     25  C   UNL     1       1.361   4.956  20.482  0.00  0.00    +0.000 A 
ENDBRANCH  19  20
ENDBRANCH  13  19
TORSDOF 3
ENDMDL
MODEL 5
REMARK VINA RESULT:      -7.1      0.490      1.240
REMARK  Name = 
REMARK  3 active torsions:
REMARK  status: ('A' for Active; 'I' for Inactive)
REMARK    1  A    between atoms: C_10  and  C_12
REMARK    2  A    between atoms: N_18  and  C_19
REMARK    3  A    between atoms: C_19  and  C_20
REMARK                            x       y       z     vdW  Elec       q    Type
REMARK                         _______ _______ _______ _____ _____    ______ ____
ROOT
ATOM      1  O   UNL     1       7.870   5.874  18.646  0.00  0.00    +0.000 OA
ATOM      2  C   UNL     1       6.806   5.875  18.039  0.00  0.00    +0.000 C 
ATOM      3  C   UNL     1       5.631   6.733  18.400  0.00  0.00    +0.000 C 
ATOM      4  C   UNL     1       4.433   6.179  17.585  0.00  0.00    +0.000 C 
ATOM      5  C   UNL     1       3.647   7.323  16.883  0.00  0.00    +0.000 C 
ATOM      6  C   UNL     1       2.963   8.278  17.851  0.00  0.00    +0.000 C 
ATOM      7  C   UNL     1       2.020   7.506  18.751  0.00  0.00    +0.000 C 
ATOM      8  C   UNL     1       2.730   6.361  19.448  0.00  0.00    +0.000 C 
ATOM      9  N   UNL     1       3.469   5.471  18.527  0.00  0.00    +0.000 N 
ATOM     10  C   UNL     1       3.365   4.069  18.626  0.00  0.00    +0.000 C 
ATOM     11  O   UNL     1       3.896   3.312  17.821  0.00  0.00    +0.000 OA
ATOM     12  C   UNL     1       5.158   5.405  16.432  0.00  0.00    +0.000 C 
ATOM     13  N   UNL     1       6.522   5.208  16.869  0.00  0.00    +0.000 N 
ENDROOT
BRANCH  10  14
ATOM     14  C   UNL     1       2.530   3.493  19.686  0.00  0.00    +0.000 A 
ATOM     15  C   UNL     1       2.842   3.019  21.001  0.00  0.00    +0.000 A 
ATOM     16  C   UNL     1       1.654   2.658  21.592  0.00  0.00    +0.000 A 
ATOM     17  O   UNL     1       0.636   2.784  20.705  0.00  0.00    +0.000 OA
ATOM     18  C   UNL     1       1.175   3.253  19.549  0.00  0.00    +0.000 A 
ENDBRANCH  10  14
BRANCH  13  19
ATOM     19  C   UNL     1       7.541   4.609  16.015  0.00  0.00    +0.000 C 
BRANCH  19  20
ATOM     20  C   UNL     1       7.105   4.388  14.573  0.00  0.00    +0.000 A 
ATOM     21  C   UNL     1       5.971   3.616  14.267  0.00  0.00    +0.000 A 
ATOM     22  C   UNL     1       5.518   3.478  12.950  0.00  0.00    +0.000 A 
ATOM     23  C   UNL     1       6.185   4.121  11.913  0.00  0.00    +0.000 A 
ATOM     24  C   UNL     1       7.308   4.897  12.195  0.00  0.00    +0.000 A 
ATOM     25  C   UNL     1       7.768   5.025  13.512  0.00  0.00    +0.000 A 
ENDBRANCH  19  20
ENDBRANCH  13  19
TORSDOF 3
ENDMDL
MODEL 6
REMARK VINA RESULT:      -6.8      2.772      4.787
REMARK  Name = 
REMARK  3 active torsions:
REMARK  status: ('A' for Active; 'I' for Inactive)
REMARK    1  A    between atoms: C_10  and  C_12
REMARK    2  A    between atoms: N_18  and  C_19
REMARK    3  A    between atoms: C_19  and  C_20
REMARK                            x       y       z     vdW  Elec       q    Type
REMARK                         _______ _______ _______ _____ _____    ______ ____
ROOT
ATOM      1  O   UNL     1       4.454   4.397  15.557  0.00  0.00    +0.000 OA
ATOM      2  C   UNL     1       4.377   4.170  16.758  0.00  0.00    +0.000 C 
ATOM      3  C   UNL     1       3.165   3.601  17.432  0.00  0.00    +0.000 C 
ATOM      4  C   UNL     1       3.397   3.787  18.954  0.00  0.00    +0.000 C 
ATOM      5  C   UNL     1       3.082   2.481  19.739  0.00  0.00    +0.000 C 
ATOM      6  C   UNL     1       1.618   2.072  19.685  0.00  0.00    +0.000 C 
ATOM      7  C   UNL     1       0.752   3.195  20.221  0.00  0.00    +0.000 C 
ATOM      8  C   UNL     1       1.032   4.503  19.504  0.00  0.00    +0.000 C 
ATOM      9  N   UNL     1       2.464   4.871  19.476  0.00  0.00    +0.000 N 
ATOM     10  C   UNL     1       2.887   6.178  19.790  0.00  0.00    +0.000 C 
ATOM     11  O   UNL     1       4.072   6.486  19.861  0.00  0.00    +0.000 OA
ATOM     12  C   UNL     1       4.953   3.951  19.026  0.00  0.00    +0.000 C 
ATOM     13  N   UNL     1       5.391   4.268  17.684  0.00  0.00    +0.000 N 
ENDROOT
BRANCH  10  14
ATOM     14  C   UNL     1       1.879   7.191  20.120  0.00  0.00    +0.000 A 
ATOM     15  C   UNL     1       1.007   7.344  21.247  0.00  0.00    +0.000 A 
ATOM     16  C   UNL     1       0.325   8.525  21.070  0.00  0.00    +0.000 A 
ATOM     17  O   UNL     1       0.640   9.070  19.870  0.00  0.00    +0.000 OA
ATOM     18  C   UNL     1       1.549   8.245  19.288  0.00  0.00    +0.000 A 
ENDBRANCH  10  14
BRANCH  13  19
ATOM     19  C   UNL     1       6.799   4.393  17.327  0.00  0.00    +0.000 C 
BRANCH  19  20
ATOM     20  C   UNL     1       7.425   5.733  17.691  0.00  0.00    +0.000 A 
ATOM     21  C   UNL     1       7.298   6.849  16.847  0.00  0.00    +0.000 A 
ATOM     22  C   UNL     1       7.799   8.103  17.215  0.00  0.00    +0.000 A 
ATOM     23  C   UNL     1       8.428   8.267  18.444  0.00  0.00    +0.000 A 
ATOM     24  C   UNL     1       8.560   7.175  19.300  0.00  0.00    +0.000 A 
ATOM     25  C   UNL     1       8.068   5.918  18.926  0.00  0.00    +0.000 A 
ENDBRANCH  19  20
ENDBRANCH  13  19
TORSDOF 3
ENDMDL
MODEL 7
REMARK VINA RESULT:      -6.8      9.624     12.514
REMARK  Name = 
REMARK  3 active torsions:
REMARK  status: ('A' for Active; 'I' for Inactive)
REMARK    1  A    between atoms: C_10  and  C_12
REMARK    2  A    between atoms: N_18  and  C_19
REMARK    3  A    between atoms: C_19  and  C_20
REMARK                            x       y       z     vdW  Elec       q    Type
REMARK                         _______ _______ _______ _____ _____    ______ ____
ROOT
ATOM      1  O   UNL     1      -0.970  10.760  21.973  0.00  0.00    +0.000 OA
ATOM      2  C   UNL     1      -1.251  11.952  22.003  0.00  0.00    +0.000 C 
ATOM      3  C   UNL     1      -1.344  12.763  23.260  0.00  0.00    +0.000 C 
ATOM      4  C   UNL     1      -2.024  14.097  22.857  0.00  0.00    +0.000 C 
ATOM      5  C   UNL     1      -1.261  15.322  23.437  0.00  0.00    +0.000 C 
ATOM      6  C   UNL     1      -1.288  15.395  24.957  0.00  0.00    +0.000 C 
ATOM      7  C   UNL     1      -2.723  15.427  25.443  0.00  0.00    +0.000 C 
ATOM      8  C   UNL     1      -3.523  14.264  24.889  0.00  0.00    +0.000 C 
ATOM      9  N   UNL     1      -3.439  14.131  23.418  0.00  0.00    +0.000 N 
ATOM     10  C   UNL     1      -4.593  13.920  22.638  0.00  0.00    +0.000 C 
ATOM     11  O   UNL     1      -4.561  13.894  21.412  0.00  0.00    +0.000 OA
ATOM     12  C   UNL     1      -1.763  14.138  21.313  0.00  0.00    +0.000 C 
ATOM     13  N   UNL     1      -1.408  12.791  20.924  0.00  0.00    +0.000 N 
ENDROOT
BRANCH  10  14
ATOM     14  C   UNL     1      -5.892  13.802  23.308  0.00  0.00    +0.000 A 
ATOM     15  C   UNL     1      -6.811  14.786  23.796  0.00  0.00    +0.000 A 
ATOM     16  C   UNL     1      -7.914  14.111  24.265  0.00  0.00    +0.000 A 
ATOM     17  O   UNL     1      -7.707  12.773  24.189  0.00  0.00    +0.000 OA
ATOM     18  C   UNL     1      -6.474  12.594  23.646  0.00  0.00    +0.000 A 
ENDBRANCH  10  14
BRANCH  13  19
ATOM     19  C   UNL     1      -0.991  12.449  19.569  0.00  0.00    +0.000 C 
BRANCH  19  20
ATOM     20  C   UNL     1      -1.973  11.569  18.810  0.00  0.00    +0.000 A 
ATOM     21  C   UNL     1      -3.341  11.886  18.752  0.00  0.00    +0.000 A 
ATOM     22  C   UNL     1      -4.234  11.128  17.986  0.00  0.00    +0.000 A 
ATOM     23  C   UNL     1      -3.772  10.041  17.252  0.00  0.00    +0.000 A 
ATOM     24  C   UNL     1      -2.418   9.711  17.290  0.00  0.00    +0.000 A 
ATOM     25  C   UNL     1      -1.527  10.465  18.066  0.00  0.00    +0.000 A 
ENDBRANCH  19  20
ENDBRANCH  13  19
TORSDOF 3
ENDMDL
MODEL 8
REMARK VINA RESULT:      -6.7      5.467      8.355
REMARK  Name = 
REMARK  3 active torsions:
REMARK  status: ('A' for Active; 'I' for Inactive)
REMARK    1  A    between atoms: C_10  and  C_12
REMARK    2  A    between atoms: N_18  and  C_19
REMARK    3  A    between atoms: C_19  and  C_20
REMARK                            x       y       z     vdW  Elec       q    Type
REMARK                         _______ _______ _______ _____ _____    ______ ____
ROOT
ATOM      1  O   UNL     1      -0.421   9.535  22.776  0.00  0.00    +0.000 OA
ATOM      2  C   UNL     1       0.101   9.928  21.740  0.00  0.00    +0.000 C 
ATOM      3  C   UNL     1      -0.014  11.329  21.218  0.00  0.00    +0.000 C 
ATOM      4  C   UNL     1       0.514  11.285  19.761  0.00  0.00    +0.000 C 
ATOM      5  C   UNL     1       1.514  12.444  19.485  0.00  0.00    +0.000 C 
ATOM      6  C   UNL     1       0.883  13.827  19.556  0.00  0.00    +0.000 C 
ATOM      7  C   UNL     1      -0.266  13.916  18.572  0.00  0.00    +0.000 C 
ATOM      8  C   UNL     1      -1.265  12.794  18.781  0.00  0.00    +0.000 C 
ATOM      9  N   UNL     1      -0.653  11.448  18.798  0.00  0.00    +0.000 N 
ATOM     10  C   UNL     1      -1.213  10.383  18.064  0.00  0.00    +0.000 C 
ATOM     11  O   UNL     1      -0.677   9.282  17.991  0.00  0.00    +0.000 OA
ATOM     12  C   UNL     1       1.382   9.981  19.772  0.00  0.00    +0.000 C 
ATOM     13  N   UNL     1       0.971   9.228  20.936  0.00  0.00    +0.000 N 
ENDROOT
BRANCH  10  14
ATOM     14  C   UNL     1      -2.442  10.617  17.298  0.00  0.00    +0.000 A 
ATOM     15  C   UNL     1      -2.665  10.967  15.928  0.00  0.00    +0.000 A 
ATOM     16  C   UNL     1      -4.026  10.978  15.730  0.00  0.00    +0.000 A 
ATOM     17  O   UNL     1      -4.668  10.752  16.903  0.00  0.00    +0.000 OA
ATOM     18  C   UNL     1      -3.710  10.570  17.850  0.00  0.00    +0.000 A 
ENDBRANCH  10  14
BRANCH  13  19
ATOM     19  C   UNL     1       1.629   7.993  21.345  0.00  0.00    +0.000 C 
BRANCH  19  20
ATOM     20  C   UNL     1       1.826   6.982  20.224  0.00  0.00    +0.000 A 
ATOM     21  C   UNL     1       2.365   7.367  18.984  0.00  0.00    +0.000 A 
ATOM     22  C   UNL     1       2.625   6.428  17.979  0.00  0.00    +0.000 A 
ATOM     23  C   UNL     1       2.363   5.081  18.201  0.00  0.00    +0.000 A 
ATOM     24  C   UNL     1       1.834   4.676  19.425  0.00  0.00    +0.000 A 
ATOM     25  C   UNL     1       1.563   5.618  20.426  0.00  0.00    +0.000 A 
ENDBRANCH  19  20
ENDBRANCH  13  19
TORSDOF 3
ENDMDL
MODEL 9
REMARK VINA RESULT:      -6.6      5.851      8.797
REMARK  Name = 
REMARK  3 active torsions:
REMARK  status: ('A' for Active; 'I' for Inactive)
REMARK    1  A    between atoms: C_10  and  C_12
REMARK    2  A    between atoms: N_18  and  C_19
REMARK    3  A    between atoms: C_19  and  C_20
REMARK                            x       y       z     vdW  Elec       q    Type
REMARK                         _______ _______ _______ _____ _____    ______ ____
ROOT
ATOM      1  O   UNL     1      -0.819   8.691  22.913  0.00  0.00    +0.000 OA
ATOM      2  C   UNL     1      -0.361   9.553  22.173  0.00  0.00    +0.000 C 
ATOM      3  C   UNL     1      -0.885  10.955  22.088  0.00  0.00    +0.000 C 
ATOM      4  C   UNL     1      -0.235  11.576  20.825  0.00  0.00    +0.000 C 
ATOM      5  C   UNL     1       0.345  12.989  21.121  0.00  0.00    +0.000 C 
ATOM      6  C   UNL     1      -0.714  14.022  21.478  0.00  0.00    +0.000 C 
ATOM      7  C   UNL     1      -1.728  14.125  20.356  0.00  0.00    +0.000 C 
ATOM      8  C   UNL     1      -2.312  12.769  20.008  0.00  0.00    +0.000 C 
ATOM      9  N   UNL     1      -1.292  11.733  19.740  0.00  0.00    +0.000 N 
ATOM     10  C   UNL     1      -1.392  10.882  18.621  0.00  0.00    +0.000 C 
ATOM     11  O   UNL     1      -0.516  10.075  18.328  0.00  0.00    +0.000 OA
ATOM     12  C   UNL     1       1.012  10.652  20.615  0.00  0.00    +0.000 C 
ATOM     13  N   UNL     1       0.765   9.454  21.389  0.00  0.00    +0.000 N 
ENDROOT
BRANCH  10  14
ATOM     14  C   UNL     1      -2.550  11.015  17.730  0.00  0.00    +0.000 A 
ATOM     15  C   UNL     1      -3.923  11.332  17.983  0.00  0.00    +0.000 A 
ATOM     16  C   UNL     1      -4.554  11.400  16.763  0.00  0.00    +0.000 A 
ATOM     17  O   UNL     1      -3.691  11.056  15.775  0.00  0.00    +0.000 OA
ATOM     18  C   UNL     1      -2.497  10.791  16.366  0.00  0.00    +0.000 A 
ENDBRANCH  10  14
BRANCH  13  19
ATOM     19  C   UNL     1       1.755   8.392  21.528  0.00  0.00    +0.000 C 
BRANCH  19  20
ATOM     20  C   UNL     1       1.882   7.485  20.313  0.00  0.00    +0.000 A 
ATOM     21  C   UNL     1       2.219   8.003  19.050  0.00  0.00    +0.000 A 
ATOM     22  C   UNL     1       2.420   7.165  17.948  0.00  0.00    +0.000 A 
ATOM     23  C   UNL     1       2.298   5.787  18.091  0.00  0.00    +0.000 A 
ATOM     24  C   UNL     1       1.970   5.251  19.334  0.00  0.00    +0.000 A 
ATOM     25  C   UNL     1       1.759   6.092  20.435  0.00  0.00    +0.000 A 
ENDBRANCH  19  20
ENDBRANCH  13  19
TORSDOF 3
ENDMDL
