MODEL 1
REMARK VINA RESULT:      -7.9      0.000      0.000
REMARK  Name = 
REMARK  6 active torsions:
REMARK  status: ('A' for Active; 'I' for Inactive)
REMARK    1  A    between atoms: C_1  and  C_2
REMARK    2  A    between atoms: C_4  and  C_5
REMARK    3  A    between atoms: C_7  and  C_8
REMARK    4  A    between atoms: C_8  and  N_9
REMARK    5  A    between atoms: C_11  and  C_12
REMARK    6  A    between atoms: C_15  and  C_16
REMARK                            x       y       z     vdW  Elec       q    Type
REMARK                         _______ _______ _______ _____ _____    ______ ____
ROOT
ATOM      1  N   UNL     1       2.776   6.101  18.969  0.00  0.00    +0.000 N 
ATOM      2  C   UNL     1       2.101   6.553  20.063  0.00  0.00    +0.000 A 
ATOM      3  C   UNL     1       1.824   7.866  19.767  0.00  0.00    +0.000 A 
ATOM      4  N   UNL     1       2.375   8.178  18.551  0.00  0.00    +0.000 NA
ATOM      5  N   UNL     1       2.987   7.095  18.083  0.00  0.00    +0.000 NA
ENDROOT
BRANCH   3   6
ATOM      6  C   UNL     1       1.023   8.766  20.569  0.00  0.00    +0.000 A 
ATOM      7  C   UNL     1       1.107   8.717  21.969  0.00  0.00    +0.000 A 
ATOM      8  C   UNL     1       0.391   9.626  22.762  0.00  0.00    +0.000 A 
ATOM      9  C   UNL     1      -0.429  10.590  22.165  0.00  0.00    +0.000 A 
ATOM     10  C   UNL     1      -1.213  11.571  22.980  0.00  0.00    +0.000 C 
ATOM     11  C   UNL     1      -0.528  10.615  20.772  0.00  0.00    +0.000 A 
ATOM     12  F   UNL     1      -1.317  11.525  20.182  0.00  0.00    +0.000 F 
ATOM     13  C   UNL     1       0.187   9.720  19.984  0.00  0.00    +0.000 A 
ATOM     14  F   UNL     1       0.050   9.795  18.649  0.00  0.00    +0.000 F 
ENDBRANCH   3   6
BRANCH   1  15
ATOM     15  C   UNL     1       3.274   4.764  18.741  0.00  0.00    +0.000 C 
BRANCH  15  22
ATOM     16  C   UNL     1       6.207   3.901  14.948  0.00  0.00    +0.000 C 
ATOM     17  C   UNL     1       6.053   4.386  16.358  0.00  0.00    +0.000 A 
ATOM     18  C   UNL     1       7.139   4.835  17.081  0.00  0.00    +0.000 A 
ATOM     19  C   UNL     1       6.894   5.258  18.373  0.00  0.00    +0.000 A 
ATOM     20  C   UNL     1       8.003   5.756  19.250  0.00  0.00    +0.000 C 
ATOM     21  N   UNL     1       5.659   5.245  18.915  0.00  0.00    +0.000 NA
ATOM     22  C   UNL     1       4.648   4.812  18.136  0.00  0.00    +0.000 A 
ATOM     23  N   UNL     1       4.808   4.353  16.876  0.00  0.00    +0.000 NA
ENDBRANCH  15  22
ENDBRANCH   1  15
TORSDOF 3
ENDMDL
MODEL 2
REMARK VINA RESULT:      -7.9      2.482      4.306
REMARK  Name = 
REMARK  6 active torsions:
REMARK  status: ('A' for Active; 'I' for Inactive)
REMARK    1  A    between atoms: C_1  and  C_2
REMARK    2  A    between atoms: C_4  and  C_5
REMARK    3  A    between atoms: C_7  and  C_8
REMARK    4  A    between atoms: C_8  and  N_9
REMARK    5  A    between atoms: C_11  and  C_12
REMARK    6  A    between atoms: C_15  and  C_16
REMARK                            x       y       z     vdW  Elec       q    Type
REMARK                         _______ _______ _______ _____ _____    ______ ____
ROOT
ATOM      1  N   UNL     1       5.495   4.776  16.891  0.00  0.00    +0.000 N 
ATOM      2  C   UNL     1       5.157   6.026  17.317  0.00  0.00    +0.000 A 
ATOM      3  C   UNL     1       3.840   5.907  17.692  0.00  0.00    +0.000 A 
ATOM      4  N   UNL     1       3.414   4.629  17.438  0.00  0.00    +0.000 NA
ATOM      5  N   UNL     1       4.430   3.950  16.914  0.00  0.00    +0.000 NA
ENDROOT
BRANCH   3   6
ATOM      6  C   UNL     1       3.041   6.937  18.319  0.00  0.00    +0.000 A 
ATOM      7  C   UNL     1       2.713   8.100  17.605  0.00  0.00    +0.000 A 
ATOM      8  C   UNL     1       1.883   9.078  18.170  0.00  0.00    +0.000 A 
ATOM      9  C   UNL     1       1.378   8.913  19.465  0.00  0.00    +0.000 A 
ATOM     10  C   UNL     1       0.495   9.940  20.103  0.00  0.00    +0.000 C 
ATOM     11  C   UNL     1       1.731   7.766  20.180  0.00  0.00    +0.000 A 
ATOM     12  F   UNL     1       1.265   7.595  21.427  0.00  0.00    +0.000 F 
ATOM     13  C   UNL     1       2.547   6.792  19.618  0.00  0.00    +0.000 A 
ATOM     14  F   UNL     1       2.850   5.709  20.357  0.00  0.00    +0.000 F 
ENDBRANCH   3   6
BRANCH   1  15
ATOM     15  C   UNL     1       6.787   4.334  16.417  0.00  0.00    +0.000 C 
BRANCH  15  22
ATOM     16  C   UNL     1       5.236   2.786  12.067  0.00  0.00    +0.000 C 
ATOM     17  C   UNL     1       6.146   3.680  12.853  0.00  0.00    +0.000 A 
ATOM     18  C   UNL     1       7.031   4.531  12.222  0.00  0.00    +0.000 A 
ATOM     19  C   UNL     1       7.830   5.311  13.035  0.00  0.00    +0.000 A 
ATOM     20  C   UNL     1       8.832   6.263  12.454  0.00  0.00    +0.000 C 
ATOM     21  N   UNL     1       7.758   5.261  14.380  0.00  0.00    +0.000 NA
ATOM     22  C   UNL     1       6.853   4.421  14.919  0.00  0.00    +0.000 A 
ATOM     23  N   UNL     1       6.058   3.602  14.196  0.00  0.00    +0.000 NA
ENDBRANCH  15  22
ENDBRANCH   1  15
TORSDOF 3
ENDMDL
MODEL 3
REMARK VINA RESULT:      -7.9      1.714      2.948
REMARK  Name = 
REMARK  6 active torsions:
REMARK  status: ('A' for Active; 'I' for Inactive)
REMARK    1  A    between atoms: C_1  and  C_2
REMARK    2  A    between atoms: C_4  and  C_5
REMARK    3  A    between atoms: C_7  and  C_8
REMARK    4  A    between atoms: C_8  and  N_9
REMARK    5  A    between atoms: C_11  and  C_12
REMARK    6  A    between atoms: C_15  and  C_16
REMARK                            x       y       z     vdW  Elec       q    Type
REMARK                         _______ _______ _______ _____ _____    ______ ____
ROOT
ATOM      1  N   UNL     1       3.056   4.697  19.635  0.00  0.00    +0.000 N 
ATOM      2  C   UNL     1       2.982   5.906  19.010  0.00  0.00    +0.000 A 
ATOM      3  C   UNL     1       2.102   6.628  19.781  0.00  0.00    +0.000 A 
ATOM      4  N   UNL     1       1.640   5.833  20.798  0.00  0.00    +0.000 NA
ATOM      5  N   UNL     1       2.207   4.636  20.680  0.00  0.00    +0.000 NA
ENDROOT
BRANCH   3   6
ATOM      6  C   UNL     1       1.764   8.023  19.601  0.00  0.00    +0.000 A 
ATOM      7  C   UNL     1       1.942   8.629  18.348  0.00  0.00    +0.000 A 
ATOM      8  C   UNL     1       1.557   9.960  18.134  0.00  0.00    +0.000 A 
ATOM      9  C   UNL     1       0.996  10.709  19.176  0.00  0.00    +0.000 A 
ATOM     10  C   UNL     1       0.580  12.134  18.986  0.00  0.00    +0.000 C 
ATOM     11  C   UNL     1       0.846  10.106  20.427  0.00  0.00    +0.000 A 
ATOM     12  F   UNL     1       0.321  10.811  21.441  0.00  0.00    +0.000 F 
ATOM     13  C   UNL     1       1.221   8.785  20.639  0.00  0.00    +0.000 A 
ATOM     14  F   UNL     1       1.051   8.262  21.866  0.00  0.00    +0.000 F 
ENDBRANCH   3   6
BRANCH   1  15
ATOM     15  C   UNL     1       3.874   3.567  19.256  0.00  0.00    +0.000 C 
BRANCH  15  22
ATOM     16  C   UNL     1       8.172   5.856  19.125  0.00  0.00    +0.000 C 
ATOM     17  C   UNL     1       7.091   5.128  18.386  0.00  0.00    +0.000 A 
ATOM     18  C   UNL     1       7.178   4.911  17.025  0.00  0.00    +0.000 A 
ATOM     19  C   UNL     1       6.129   4.233  16.436  0.00  0.00    +0.000 A 
ATOM     20  C   UNL     1       6.117   3.951  14.963  0.00  0.00    +0.000 C 
ATOM     21  N   UNL     1       5.067   3.792  17.140  0.00  0.00    +0.000 NA
ATOM     22  C   UNL     1       5.068   4.025  18.467  0.00  0.00    +0.000 A 
ATOM     23  N   UNL     1       6.037   4.707  19.115  0.00  0.00    +0.000 NA
ENDBRANCH  15  22
ENDBRANCH   1  15
TORSDOF 3
ENDMDL
MODEL 4
REMARK VINA RESULT:      -7.8      1.684      2.317
REMARK  Name = 
REMARK  6 active torsions:
REMARK  status: ('A' for Active; 'I' for Inactive)
REMARK    1  A    between atoms: C_1  and  C_2
REMARK    2  A    between atoms: C_4  and  C_5
REMARK    3  A    between atoms: C_7  and  C_8
REMARK    4  A    between atoms: C_8  and  N_9
REMARK    5  A    between atoms: C_11  and  C_12
REMARK    6  A    between atoms: C_15  and  C_16
REMARK                            x       y       z     vdW  Elec       q    Type
REMARK                         _______ _______ _______ _____ _____    ______ ____
ROOT
ATOM      1  N   UNL     1       3.016   4.721  19.371  0.00  0.00    +0.000 N 
ATOM      2  C   UNL     1       2.827   5.922  18.757  0.00  0.00    +0.000 A 
ATOM      3  C   UNL     1       2.116   6.660  19.674  0.00  0.00    +0.000 A 
ATOM      4  N   UNL     1       1.857   5.881  20.771  0.00  0.00    +0.000 NA
ATOM      5  N   UNL     1       2.385   4.679  20.562  0.00  0.00    +0.000 NA
ENDROOT
BRANCH   3   6
ATOM      6  C   UNL     1       1.755   8.055  19.543  0.00  0.00    +0.000 A 
ATOM      7  C   UNL     1       1.940   8.713  18.318  0.00  0.00    +0.000 A 
ATOM      8  C   UNL     1       1.533  10.044  18.151  0.00  0.00    +0.000 A 
ATOM      9  C   UNL     1       0.944  10.741  19.213  0.00  0.00    +0.000 A 
ATOM     10  C   UNL     1       0.504  12.165  19.072  0.00  0.00    +0.000 C 
ATOM     11  C   UNL     1       0.787  10.087  20.437  0.00  0.00    +0.000 A 
ATOM     12  F   UNL     1       0.234  10.741  21.470  0.00  0.00    +0.000 F 
ATOM     13  C   UNL     1       1.183   8.765  20.602  0.00  0.00    +0.000 A 
ATOM     14  F   UNL     1       1.006   8.191  21.805  0.00  0.00    +0.000 F 
ENDBRANCH   3   6
BRANCH   1  15
ATOM     15  C   UNL     1       3.741   3.581  18.857  0.00  0.00    +0.000 C 
BRANCH  15  22
ATOM     16  C   UNL     1       6.286   3.916  14.717  0.00  0.00    +0.000 C 
ATOM     17  C   UNL     1       6.208   4.172  16.192  0.00  0.00    +0.000 A 
ATOM     18  C   UNL     1       7.250   4.775  16.868  0.00  0.00    +0.000 A 
ATOM     19  C   UNL     1       7.083   4.964  18.226  0.00  0.00    +0.000 A 
ATOM     20  C   UNL     1       8.155   5.600  19.058  0.00  0.00    +0.000 C 
ATOM     21  N   UNL     1       5.961   4.591  18.874  0.00  0.00    +0.000 NA
ATOM     22  C   UNL     1       4.982   4.030  18.139  0.00  0.00    +0.000 A 
ATOM     23  N   UNL     1       5.078   3.781  16.815  0.00  0.00    +0.000 NA
ENDBRANCH  15  22
ENDBRANCH   1  15
TORSDOF 3
ENDMDL
MODEL 5
REMARK VINA RESULT:      -7.8      2.420      4.412
REMARK  Name = 
REMARK  6 active torsions:
REMARK  status: ('A' for Active; 'I' for Inactive)
REMARK    1  A    between atoms: C_1  and  C_2
REMARK    2  A    between atoms: C_4  and  C_5
REMARK    3  A    between atoms: C_7  and  C_8
REMARK    4  A    between atoms: C_8  and  N_9
REMARK    5  A    between atoms: C_11  and  C_12
REMARK    6  A    between atoms: C_15  and  C_16
REMARK                            x       y       z     vdW  Elec       q    Type
REMARK                         _______ _______ _______ _____ _____    ______ ____
ROOT
ATOM      1  N   UNL     1       5.386   4.785  16.962  0.00  0.00    +0.000 N 
ATOM      2  C   UNL     1       5.078   6.045  17.380  0.00  0.00    +0.000 A 
ATOM      3  C   UNL     1       3.741   5.978  17.692  0.00  0.00    +0.000 A 
ATOM      4  N   UNL     1       3.278   4.719  17.410  0.00  0.00    +0.000 NA
ATOM      5  N   UNL     1       4.288   4.002  16.929  0.00  0.00    +0.000 NA
ENDROOT
BRANCH   3   6
ATOM      6  C   UNL     1       2.956   7.036  18.289  0.00  0.00    +0.000 A 
ATOM      7  C   UNL     1       2.651   8.186  17.545  0.00  0.00    +0.000 A 
ATOM      8  C   UNL     1       1.834   9.191  18.081  0.00  0.00    +0.000 A 
ATOM      9  C   UNL     1       1.318   9.065  19.376  0.00  0.00    +0.000 A 
ATOM     10  C   UNL     1       0.448  10.122  19.983  0.00  0.00    +0.000 C 
ATOM     11  C   UNL     1       1.647   7.930  20.120  0.00  0.00    +0.000 A 
ATOM     12  F   UNL     1       1.170   7.797  21.367  0.00  0.00    +0.000 F 
ATOM     13  C   UNL     1       2.451   6.930  19.588  0.00  0.00    +0.000 A 
ATOM     14  F   UNL     1       2.731   5.861  20.354  0.00  0.00    +0.000 F 
ENDBRANCH   3   6
BRANCH   1  15
ATOM     15  C   UNL     1       6.680   4.294  16.545  0.00  0.00    +0.000 C 
BRANCH  15  22
ATOM     16  C   UNL     1       8.896   6.174  12.636  0.00  0.00    +0.000 C 
ATOM     17  C   UNL     1       7.836   5.271  13.191  0.00  0.00    +0.000 A 
ATOM     18  C   UNL     1       6.997   4.558  12.359  0.00  0.00    +0.000 A 
ATOM     19  C   UNL     1       6.052   3.757  12.968  0.00  0.00    +0.000 A 
ATOM     20  C   UNL     1       5.084   2.946  12.159  0.00  0.00    +0.000 C 
ATOM     21  N   UNL     1       5.943   3.659  14.309  0.00  0.00    +0.000 NA
ATOM     22  C   UNL     1       6.813   4.371  15.051  0.00  0.00    +0.000 A 
ATOM     23  N   UNL     1       7.745   5.201  14.535  0.00  0.00    +0.000 NA
ENDBRANCH  15  22
ENDBRANCH   1  15
TORSDOF 3
ENDMDL
MODEL 6
REMARK VINA RESULT:      -7.7      1.734      2.709
REMARK  Name = 
REMARK  6 active torsions:
REMARK  status: ('A' for Active; 'I' for Inactive)
REMARK    1  A    between atoms: C_1  and  C_2
REMARK    2  A    between atoms: C_4  and  C_5
REMARK    3  A    between atoms: C_7  and  C_8
REMARK    4  A    between atoms: C_8  and  N_9
REMARK    5  A    between atoms: C_11  and  C_12
REMARK    6  A    between atoms: C_15  and  C_16
REMARK                            x       y       z     vdW  Elec       q    Type
REMARK                         _______ _______ _______ _____ _____    ______ ____
ROOT
ATOM      1  N   UNL     1       3.525   4.608  19.725  0.00  0.00    +0.000 N 
ATOM      2  C   UNL     1       3.343   5.905  19.349  0.00  0.00    +0.000 A 
ATOM      3  C   UNL     1       2.249   6.313  20.075  0.00  0.00    +0.000 A 
ATOM      4  N   UNL     1       1.780   5.256  20.812  0.00  0.00    +0.000 NA
ATOM      5  N   UNL     1       2.551   4.203  20.564  0.00  0.00    +0.000 NA
ENDROOT
BRANCH   3   6
ATOM      6  C   UNL     1       1.711   7.655  20.116  0.00  0.00    +0.000 A 
ATOM      7  C   UNL     1       1.247   8.186  21.329  0.00  0.00    +0.000 A 
ATOM      8  C   UNL     1       0.787   9.508  21.403  0.00  0.00    +0.000 A 
ATOM      9  C   UNL     1       0.773  10.317  20.261  0.00  0.00    +0.000 A 
ATOM     10  C   UNL     1       0.282  11.730  20.302  0.00  0.00    +0.000 C 
ATOM     11  C   UNL     1       1.212   9.773  19.052  0.00  0.00    +0.000 A 
ATOM     12  F   UNL     1       1.196  10.529  17.943  0.00  0.00    +0.000 F 
ATOM     13  C   UNL     1       1.675   8.465  18.977  0.00  0.00    +0.000 A 
ATOM     14  F   UNL     1       2.085   8.000  17.784  0.00  0.00    +0.000 F 
ENDBRANCH   3   6
BRANCH   1  15
ATOM     15  C   UNL     1       4.570   3.710  19.285  0.00  0.00    +0.000 C 
BRANCH  15  22
ATOM     16  C   UNL     1       7.933   7.073  18.235  0.00  0.00    +0.000 C 
ATOM     17  C   UNL     1       7.019   5.989  17.752  0.00  0.00    +0.000 A 
ATOM     18  C   UNL     1       6.966   5.641  16.417  0.00  0.00    +0.000 A 
ATOM     19  C   UNL     1       6.089   4.631  16.072  0.00  0.00    +0.000 A 
ATOM     20  C   UNL     1       5.945   4.181  14.649  0.00  0.00    +0.000 C 
ATOM     21  N   UNL     1       5.320   4.001  16.983  0.00  0.00    +0.000 NA
ATOM     22  C   UNL     1       5.446   4.384  18.268  0.00  0.00    +0.000 A 
ATOM     23  N   UNL     1       6.255   5.382  18.684  0.00  0.00    +0.000 NA
ENDBRANCH  15  22
ENDBRANCH   1  15
TORSDOF 3
ENDMDL
MODEL 7
REMARK VINA RESULT:      -7.7      1.724      2.046
REMARK  Name = 
REMARK  6 active torsions:
REMARK  status: ('A' for Active; 'I' for Inactive)
REMARK    1  A    between atoms: C_1  and  C_2
REMARK    2  A    between atoms: C_4  and  C_5
REMARK    3  A    between atoms: C_7  and  C_8
REMARK    4  A    between atoms: C_8  and  N_9
REMARK    5  A    between atoms: C_11  and  C_12
REMARK    6  A    between atoms: C_15  and  C_16
REMARK                            x       y       z     vdW  Elec       q    Type
REMARK                         _______ _______ _______ _____ _____    ______ ____
ROOT
ATOM      1  N   UNL     1       3.627   4.687  19.618  0.00  0.00    +0.000 N 
ATOM      2  C   UNL     1       3.426   6.001  19.318  0.00  0.00    +0.000 A 
ATOM      3  C   UNL     1       2.272   6.324  19.991  0.00  0.00    +0.000 A 
ATOM      4  N   UNL     1       1.791   5.205  20.621  0.00  0.00    +0.000 NA
ATOM      5  N   UNL     1       2.614   4.195  20.358  0.00  0.00    +0.000 NA
ENDROOT
BRANCH   3   6
ATOM      6  C   UNL     1       1.686   7.644  20.084  0.00  0.00    +0.000 A 
ATOM      7  C   UNL     1       1.209   8.112  21.318  0.00  0.00    +0.000 A 
ATOM      8  C   UNL     1       0.701   9.412  21.444  0.00  0.00    +0.000 A 
ATOM      9  C   UNL     1       0.653  10.262  20.332  0.00  0.00    +0.000 A 
ATOM     10  C   UNL     1       0.111  11.654  20.428  0.00  0.00    +0.000 C 
ATOM     11  C   UNL     1       1.106   9.780  19.102  0.00  0.00    +0.000 A 
ATOM     12  F   UNL     1       1.058  10.576  18.023  0.00  0.00    +0.000 F 
ATOM     13  C   UNL     1       1.616   8.494  18.977  0.00  0.00    +0.000 A 
ATOM     14  F   UNL     1       2.037   8.088  17.766  0.00  0.00    +0.000 F 
ENDBRANCH   3   6
BRANCH   1  15
ATOM     15  C   UNL     1       4.730   3.853  19.193  0.00  0.00    +0.000 C 
BRANCH  15  22
ATOM     16  C   UNL     1       6.041   4.020  14.505  0.00  0.00    +0.000 C 
ATOM     17  C   UNL     1       6.150   4.601  15.882  0.00  0.00    +0.000 A 
ATOM     18  C   UNL     1       6.951   5.697  16.133  0.00  0.00    +0.000 A 
ATOM     19  C   UNL     1       6.987   6.155  17.436  0.00  0.00    +0.000 A 
ATOM     20  C   UNL     1       7.831   7.333  17.821  0.00  0.00    +0.000 C 
ATOM     21  N   UNL     1       6.275   5.576  18.424  0.00  0.00    +0.000 NA
ATOM     22  C   UNL     1       5.501   4.525  18.093  0.00  0.00    +0.000 A 
ATOM     23  N   UNL     1       5.435   3.996  16.852  0.00  0.00    +0.000 NA
ENDBRANCH  15  22
ENDBRANCH   1  15
TORSDOF 3
ENDMDL
MODEL 8
REMARK VINA RESULT:      -7.7      0.601      1.856
REMARK  Name = 
REMARK  6 active torsions:
REMARK  status: ('A' for Active; 'I' for Inactive)
REMARK    1  A    between atoms: C_1  and  C_2
REMARK    2  A    between atoms: C_4  and  C_5
REMARK    3  A    between atoms: C_7  and  C_8
REMARK    4  A    between atoms: C_8  and  N_9
REMARK    5  A    between atoms: C_11  and  C_12
REMARK    6  A    between atoms: C_15  and  C_16
REMARK                            x       y       z     vdW  Elec       q    Type
REMARK                         _______ _______ _______ _____ _____    ______ ____
ROOT
ATOM      1  N   UNL     1       2.858   6.342  18.677  0.00  0.00    +0.000 N 
ATOM      2  C   UNL     1       2.227   6.730  19.821  0.00  0.00    +0.000 A 
ATOM      3  C   UNL     1       1.833   8.021  19.564  0.00  0.00    +0.000 A 
ATOM      4  N   UNL     1       2.274   8.386  18.319  0.00  0.00    +0.000 NA
ATOM      5  N   UNL     1       2.933   7.358  17.794  0.00  0.00    +0.000 NA
ENDROOT
BRANCH   3   6
ATOM      6  C   UNL     1       1.023   8.849  20.432  0.00  0.00    +0.000 A 
ATOM      7  C   UNL     1       1.112   8.699  21.824  0.00  0.00    +0.000 A 
ATOM      8  C   UNL     1       0.388   9.538  22.683  0.00  0.00    +0.000 A 
ATOM      9  C   UNL     1      -0.446  10.533  22.160  0.00  0.00    +0.000 A 
ATOM     10  C   UNL     1      -1.239  11.441  23.047  0.00  0.00    +0.000 C 
ATOM     11  C   UNL     1      -0.549  10.659  20.773  0.00  0.00    +0.000 A 
ATOM     12  F   UNL     1      -1.352  11.600  20.253  0.00  0.00    +0.000 F 
ATOM     13  C   UNL     1       0.173   9.833  19.921  0.00  0.00    +0.000 A 
ATOM     14  F   UNL     1       0.032  10.004  18.594  0.00  0.00    +0.000 F 
ENDBRANCH   3   6
BRANCH   1  15
ATOM     15  C   UNL     1       3.438   5.048  18.396  0.00  0.00    +0.000 C 
BRANCH  15  22
ATOM     16  C   UNL     1       7.914   6.961  18.228  0.00  0.00    +0.000 C 
ATOM     17  C   UNL     1       6.858   6.125  17.570  0.00  0.00    +0.000 A 
ATOM     18  C   UNL     1       7.072   5.546  16.335  0.00  0.00    +0.000 A 
ATOM     19  C   UNL     1       6.035   4.797  15.813  0.00  0.00    +0.000 A 
ATOM     20  C   UNL     1       6.157   4.132  14.475  0.00  0.00    +0.000 C 
ATOM     21  N   UNL     1       4.868   4.626  16.465  0.00  0.00    +0.000 NA
ATOM     22  C   UNL     1       4.746   5.206  17.675  0.00  0.00    +0.000 A 
ATOM     23  N   UNL     1       5.698   5.979  18.242  0.00  0.00    +0.000 NA
ENDBRANCH  15  22
ENDBRANCH   1  15
TORSDOF 3
ENDMDL
MODEL 9
REMARK VINA RESULT:      -7.5      3.496      8.019
REMARK  Name = 
REMARK  6 active torsions:
REMARK  status: ('A' for Active; 'I' for Inactive)
REMARK    1  A    between atoms: C_1  and  C_2
REMARK    2  A    between atoms: C_4  and  C_5
REMARK    3  A    between atoms: C_7  and  C_8
REMARK    4  A    between atoms: C_8  and  N_9
REMARK    5  A    between atoms: C_11  and  C_12
REMARK    6  A    between atoms: C_15  and  C_16
REMARK                            x       y       z     vdW  Elec       q    Type
REMARK                         _______ _______ _______ _____ _____    ______ ____
ROOT
ATOM      1  N   UNL     1       1.713   8.985  19.019  0.00  0.00    +0.000 N 
ATOM      2  C   UNL     1       2.206   7.908  18.345  0.00  0.00    +0.000 A 
ATOM      3  C   UNL     1       2.176   6.892  19.270  0.00  0.00    +0.000 A 
ATOM      4  N   UNL     1       1.725   7.387  20.466  0.00  0.00    +0.000 NA
ATOM      5  N   UNL     1       1.475   8.683  20.312  0.00  0.00    +0.000 NA
ENDROOT
BRANCH   3   6
ATOM      6  C   UNL     1       2.499   5.505  19.016  0.00  0.00    +0.000 A 
ATOM      7  C   UNL     1       3.544   5.180  18.137  0.00  0.00    +0.000 A 
ATOM      8  C   UNL     1       3.918   3.844  17.930  0.00  0.00    +0.000 A 
ATOM      9  C   UNL     1       3.243   2.812  18.593  0.00  0.00    +0.000 A 
ATOM     10  C   UNL     1       3.610   1.375  18.391  0.00  0.00    +0.000 C 
ATOM     11  C   UNL     1       2.187   3.142  19.446  0.00  0.00    +0.000 A 
ATOM     12  F   UNL     1       1.522   2.165  20.081  0.00  0.00    +0.000 F 
ATOM     13  C   UNL     1       1.820   4.465  19.657  0.00  0.00    +0.000 A 
ATOM     14  F   UNL     1       0.796   4.718  20.491  0.00  0.00    +0.000 F 
ENDBRANCH   3   6
BRANCH   1  15
ATOM     15  C   UNL     1       1.496  10.316  18.500  0.00  0.00    +0.000 C 
BRANCH  15  22
ATOM     16  C   UNL     1      -3.083   9.712  16.950  0.00  0.00    +0.000 C 
ATOM     17  C   UNL     1      -2.126  10.428  17.854  0.00  0.00    +0.000 A 
ATOM     18  C   UNL     1      -2.561  11.408  18.724  0.00  0.00    +0.000 A 
ATOM     19  C   UNL     1      -1.601  12.010  19.513  0.00  0.00    +0.000 A 
ATOM     20  C   UNL     1      -1.963  13.092  20.485  0.00  0.00    +0.000 C 
ATOM     21  N   UNL     1      -0.298  11.665  19.454  0.00  0.00    +0.000 NA
ATOM     22  C   UNL     1       0.042  10.685  18.596  0.00  0.00    +0.000 A 
ATOM     23  N   UNL     1      -0.828  10.069  17.768  0.00  0.00    +0.000 NA
ENDBRANCH  15  22
ENDBRANCH   1  15
TORSDOF 3
ENDMDL
