MODEL 1
REMARK VINA RESULT:      -8.9      0.000      0.000
REMARK  Name = 
REMARK  9 active torsions:
REMARK  status: ('A' for Active; 'I' for Inactive)
REMARK    1  A    between atoms: C_1  and  O_2
REMARK    2  A    between atoms: O_2  and  C_3
REMARK    3  A    between atoms: C_5  and  C_6
REMARK    4  A    between atoms: N_7  and  N_8
REMARK    5  A    between atoms: C_9  and  C_11
REMARK    6  A    between atoms: C_11  and  C_12
REMARK    7  A    between atoms: C_12  and  N_13
REMARK    8  A    between atoms: C_15  and  C_16
REMARK    9  A    between atoms: C_18  and  C_19
REMARK                            x       y       z     vdW  Elec       q    Type
REMARK                         _______ _______ _______ _____ _____    ______ ____
ROOT
ATOM      1  N   UNL     1       7.731   7.134  17.638  0.00  0.00    +0.000 N 
ATOM      2  C   UNL     1       7.594   5.967  18.381  0.00  0.00    +0.000 C 
ATOM      3  O   UNL     1       8.184   5.731  19.434  0.00  0.00    +0.000 OA
ATOM      4  H   UNL     1       7.216   7.285  16.779  0.00  0.00    +0.000 HD
ENDROOT
BRANCH   1   6
ATOM      5  C   UNL     1       8.163   9.341  18.020  0.00  0.00    +0.000 C 
ATOM      6  N   UNL     1       8.544   8.109  18.122  0.00  0.00    +0.000 NA
BRANCH   5   9
ATOM      7  C   UNL     1       9.853  11.698  20.433  0.00  0.00    +0.000 A 
ATOM      8  C   UNL     1       9.024  10.704  19.901  0.00  0.00    +0.000 A 
ATOM      9  C   UNL     1       9.041  10.418  18.538  0.00  0.00    +0.000 A 
ATOM     10  C   UNL     1       9.874  11.143  17.690  0.00  0.00    +0.000 A 
ATOM     11  C   UNL     1      10.694  12.164  18.215  0.00  0.00    +0.000 A 
ATOM     12  C   UNL     1      11.535  12.918  17.379  0.00  0.00    +0.000 A 
ATOM     13  C   UNL     1      12.333  13.923  17.912  0.00  0.00    +0.000 A 
ATOM     14  C   UNL     1      12.268  14.146  19.269  0.00  0.00    +0.000 A 
ATOM     15  N   UNL     1      11.478  13.441  20.105  0.00  0.00    +0.000 NA
ATOM     16  C   UNL     1      10.691  12.463  19.601  0.00  0.00    +0.000 A 
BRANCH   7  18
ATOM     17  C   UNL     1       8.587  12.307  22.349  0.00  0.00    +0.000 C 
ATOM     18  O   UNL     1       9.857  12.004  21.778  0.00  0.00    +0.000 OA
ENDBRANCH   7  18
ENDBRANCH   5   9
ENDBRANCH   1   6
BRANCH   2  19
ATOM     19  C   UNL     1       6.660   4.960  17.751  0.00  0.00    +0.000 C 
BRANCH  19  20
ATOM     20  C   UNL     1       5.416   5.670  17.223  0.00  0.00    +0.000 C 
BRANCH  20  21
ATOM     21  N   UNL     1       4.241   5.423  18.045  0.00  0.00    +0.000 N 
ATOM     22  C   UNL     1       3.663   6.366  18.847  0.00  0.00    +0.000 A 
ATOM     23  C   UNL     1       2.621   5.779  19.537  0.00  0.00    +0.000 A 
ATOM     24  C   UNL     1       1.751   6.482  20.515  0.00  0.00    +0.000 C 
ATOM     25  C   UNL     1       2.568   4.396  19.132  0.00  0.00    +0.000 A 
ATOM     26  C   UNL     1       1.755   3.279  19.482  0.00  0.00    +0.000 A 
ATOM     27  C   UNL     1       0.628   3.294  20.482  0.00  0.00    +0.000 C 
ATOM     28  C   UNL     1       2.017   2.042  18.851  0.00  0.00    +0.000 A 
ATOM     29  C   UNL     1       3.023   1.900  17.906  0.00  0.00    +0.000 A 
ATOM     30  C   UNL     1       3.822   2.983  17.554  0.00  0.00    +0.000 A 
ATOM     31  C   UNL     1       3.587   4.216  18.182  0.00  0.00    +0.000 A 
ENDBRANCH  20  21
ENDBRANCH  19  20
ENDBRANCH   2  19
TORSDOF 6
ENDMDL
MODEL 2
REMARK VINA RESULT:      -8.8      0.972      2.131
REMARK  Name = 
REMARK  9 active torsions:
REMARK  status: ('A' for Active; 'I' for Inactive)
REMARK    1  A    between atoms: C_1  and  O_2
REMARK    2  A    between atoms: O_2  and  C_3
REMARK    3  A    between atoms: C_5  and  C_6
REMARK    4  A    between atoms: N_7  and  N_8
REMARK    5  A    between atoms: C_9  and  C_11
REMARK    6  A    between atoms: C_11  and  C_12
REMARK    7  A    between atoms: C_12  and  N_13
REMARK    8  A    between atoms: C_15  and  C_16
REMARK    9  A    between atoms: C_18  and  C_19
REMARK                            x       y       z     vdW  Elec       q    Type
REMARK                         _______ _______ _______ _____ _____    ______ ____
ROOT
ATOM      1  N   UNL     1       7.514   7.853  17.128  0.00  0.00    +0.000 N 
ATOM      2  C   UNL     1       7.300   6.587  17.663  0.00  0.00    +0.000 C 
ATOM      3  O   UNL     1       7.538   6.267  18.826  0.00  0.00    +0.000 OA
ATOM      4  H   UNL     1       7.295   8.069  16.163  0.00  0.00    +0.000 HD
ENDROOT
BRANCH   1   6
ATOM      5  C   UNL     1       8.635   9.815  17.433  0.00  0.00    +0.000 C 
ATOM      6  N   UNL     1       7.984   8.825  17.952  0.00  0.00    +0.000 NA
BRANCH   5   9
ATOM      7  C   UNL     1       9.577  11.689  20.569  0.00  0.00    +0.000 A 
ATOM      8  C   UNL     1       9.073  10.716  19.699  0.00  0.00    +0.000 A 
ATOM      9  C   UNL     1       9.160  10.883  18.319  0.00  0.00    +0.000 A 
ATOM     10  C   UNL     1       9.733  12.039  17.797  0.00  0.00    +0.000 A 
ATOM     11  C   UNL     1      10.219  13.037  18.668  0.00  0.00    +0.000 A 
ATOM     12  C   UNL     1      10.790  14.219  18.167  0.00  0.00    +0.000 A 
ATOM     13  C   UNL     1      11.260  15.194  19.038  0.00  0.00    +0.000 A 
ATOM     14  C   UNL     1      11.147  14.958  20.390  0.00  0.00    +0.000 A 
ATOM     15  N   UNL     1      10.609  13.835  20.910  0.00  0.00    +0.000 NA
ATOM     16  C   UNL     1      10.142  12.879  20.075  0.00  0.00    +0.000 A 
BRANCH   7  18
ATOM     17  C   UNL     1       8.228  11.809  22.522  0.00  0.00    +0.000 C 
ATOM     18  O   UNL     1       9.504  11.553  21.940  0.00  0.00    +0.000 OA
ENDBRANCH   7  18
ENDBRANCH   5   9
ENDBRANCH   1   6
BRANCH   2  19
ATOM     19  C   UNL     1       6.770   5.591  16.657  0.00  0.00    +0.000 C 
BRANCH  19  20
ATOM     20  C   UNL     1       5.266   5.783  16.486  0.00  0.00    +0.000 C 
BRANCH  20  21
ATOM     21  N   UNL     1       4.488   4.914  17.356  0.00  0.00    +0.000 N 
ATOM     22  C   UNL     1       4.486   3.551  17.263  0.00  0.00    +0.000 A 
ATOM     23  C   UNL     1       3.589   3.049  18.185  0.00  0.00    +0.000 A 
ATOM     24  C   UNL     1       3.299   1.604  18.384  0.00  0.00    +0.000 C 
ATOM     25  C   UNL     1       3.010   4.175  18.874  0.00  0.00    +0.000 A 
ATOM     26  C   UNL     1       2.031   4.330  19.898  0.00  0.00    +0.000 A 
ATOM     27  C   UNL     1       1.284   3.209  20.573  0.00  0.00    +0.000 C 
ATOM     28  C   UNL     1       1.716   5.639  20.326  0.00  0.00    +0.000 A 
ATOM     29  C   UNL     1       2.340   6.756  19.787  0.00  0.00    +0.000 A 
ATOM     30  C   UNL     1       3.299   6.618  18.789  0.00  0.00    +0.000 A 
ATOM     31  C   UNL     1       3.612   5.326  18.340  0.00  0.00    +0.000 A 
ENDBRANCH  20  21
ENDBRANCH  19  20
ENDBRANCH   2  19
TORSDOF 6
ENDMDL
MODEL 3
REMARK VINA RESULT:      -8.6      1.340      2.382
REMARK  Name = 
REMARK  9 active torsions:
REMARK  status: ('A' for Active; 'I' for Inactive)
REMARK    1  A    between atoms: C_1  and  O_2
REMARK    2  A    between atoms: O_2  and  C_3
REMARK    3  A    between atoms: C_5  and  C_6
REMARK    4  A    between atoms: N_7  and  N_8
REMARK    5  A    between atoms: C_9  and  C_11
REMARK    6  A    between atoms: C_11  and  C_12
REMARK    7  A    between atoms: C_12  and  N_13
REMARK    8  A    between atoms: C_15  and  C_16
REMARK    9  A    between atoms: C_18  and  C_19
REMARK                            x       y       z     vdW  Elec       q    Type
REMARK                         _______ _______ _______ _____ _____    ______ ____
ROOT
ATOM      1  N   UNL     1       7.393   7.974  17.211  0.00  0.00    +0.000 N 
ATOM      2  C   UNL     1       7.470   6.712  17.790  0.00  0.00    +0.000 C 
ATOM      3  O   UNL     1       7.928   6.479  18.907  0.00  0.00    +0.000 OA
ATOM      4  H   UNL     1       7.000   8.116  16.288  0.00  0.00    +0.000 HD
ENDROOT
BRANCH   1   6
ATOM      5  C   UNL     1       8.878   9.670  17.554  0.00  0.00    +0.000 C 
ATOM      6  N   UNL     1       7.817   9.039  17.940  0.00  0.00    +0.000 NA
BRANCH   5   9
ATOM      7  C   UNL     1      10.848  12.740  18.518  0.00  0.00    +0.000 A 
ATOM      8  C   UNL     1      10.381  11.622  17.819  0.00  0.00    +0.000 A 
ATOM      9  C   UNL     1       9.359  10.832  18.340  0.00  0.00    +0.000 A 
ATOM     10  C   UNL     1       8.811  11.143  19.581  0.00  0.00    +0.000 A 
ATOM     11  C   UNL     1       9.294  12.254  20.305  0.00  0.00    +0.000 A 
ATOM     12  C   UNL     1       8.766  12.582  21.565  0.00  0.00    +0.000 A 
ATOM     13  C   UNL     1       9.257  13.676  22.267  0.00  0.00    +0.000 A 
ATOM     14  C   UNL     1      10.264  14.414  21.686  0.00  0.00    +0.000 A 
ATOM     15  N   UNL     1      10.794  14.134  20.478  0.00  0.00    +0.000 NA
ATOM     16  C   UNL     1      10.330  13.070  19.784  0.00  0.00    +0.000 A 
BRANCH   7  18
ATOM     17  C   UNL     1      11.497  14.420  16.967  0.00  0.00    +0.000 C 
ATOM     18  O   UNL     1      11.860  13.540  18.028  0.00  0.00    +0.000 OA
ENDBRANCH   7  18
ENDBRANCH   5   9
ENDBRANCH   1   6
BRANCH   2  19
ATOM     19  C   UNL     1       6.963   5.607  16.892  0.00  0.00    +0.000 C 
BRANCH  19  20
ATOM     20  C   UNL     1       5.639   6.023  16.259  0.00  0.00    +0.000 C 
BRANCH  20  21
ATOM     21  N   UNL     1       4.519   5.915  17.184  0.00  0.00    +0.000 N 
ATOM     22  C   UNL     1       3.965   6.981  17.833  0.00  0.00    +0.000 A 
ATOM     23  C   UNL     1       2.981   6.515  18.682  0.00  0.00    +0.000 A 
ATOM     24  C   UNL     1       2.151   7.374  19.567  0.00  0.00    +0.000 C 
ATOM     25  C   UNL     1       2.940   5.081  18.542  0.00  0.00    +0.000 A 
ATOM     26  C   UNL     1       2.178   4.035  19.140  0.00  0.00    +0.000 A 
ATOM     27  C   UNL     1       1.111   4.218  20.188  0.00  0.00    +0.000 C 
ATOM     28  C   UNL     1       2.435   2.708  18.732  0.00  0.00    +0.000 A 
ATOM     29  C   UNL     1       3.388   2.408  17.767  0.00  0.00    +0.000 A 
ATOM     30  C   UNL     1       4.136   3.420  17.175  0.00  0.00    +0.000 A 
ATOM     31  C   UNL     1       3.906   4.744  17.580  0.00  0.00    +0.000 A 
ENDBRANCH  20  21
ENDBRANCH  19  20
ENDBRANCH   2  19
TORSDOF 6
ENDMDL
MODEL 4
REMARK VINA RESULT:      -8.6      6.173     10.148
REMARK  Name = 
REMARK  9 active torsions:
REMARK  status: ('A' for Active; 'I' for Inactive)
REMARK    1  A    between atoms: C_1  and  O_2
REMARK    2  A    between atoms: O_2  and  C_3
REMARK    3  A    between atoms: C_5  and  C_6
REMARK    4  A    between atoms: N_7  and  N_8
REMARK    5  A    between atoms: C_9  and  C_11
REMARK    6  A    between atoms: C_11  and  C_12
REMARK    7  A    between atoms: C_12  and  N_13
REMARK    8  A    between atoms: C_15  and  C_16
REMARK    9  A    between atoms: C_18  and  C_19
REMARK                            x       y       z     vdW  Elec       q    Type
REMARK                         _______ _______ _______ _____ _____    ______ ____
ROOT
ATOM      1  N   UNL     1       0.931   9.279  21.071  0.00  0.00    +0.000 N 
ATOM      2  C   UNL     1      -0.174   9.304  21.915  0.00  0.00    +0.000 C 
ATOM      3  O   UNL     1      -0.794   8.310  22.290  0.00  0.00    +0.000 OA
ATOM      4  H   UNL     1       1.413  10.126  20.796  0.00  0.00    +0.000 HD
ENDROOT
BRANCH   1   6
ATOM      5  C   UNL     1       2.024   8.004  19.528  0.00  0.00    +0.000 C 
ATOM      6  N   UNL     1       1.390   8.070  20.653  0.00  0.00    +0.000 NA
BRANCH   5   9
ATOM      7  C   UNL     1       4.192   5.438  17.810  0.00  0.00    +0.000 A 
ATOM      8  C   UNL     1       3.672   6.656  18.260  0.00  0.00    +0.000 A 
ATOM      9  C   UNL     1       2.527   6.692  19.053  0.00  0.00    +0.000 A 
ATOM     10  C   UNL     1       1.880   5.505  19.385  0.00  0.00    +0.000 A 
ATOM     11  C   UNL     1       2.383   4.275  18.913  0.00  0.00    +0.000 A 
ATOM     12  C   UNL     1       1.741   3.063  19.223  0.00  0.00    +0.000 A 
ATOM     13  C   UNL     1       2.248   1.861  18.747  0.00  0.00    +0.000 A 
ATOM     14  C   UNL     1       3.386   1.902  17.973  0.00  0.00    +0.000 A 
ATOM     15  N   UNL     1       4.033   3.043  17.657  0.00  0.00    +0.000 NA
ATOM     16  C   UNL     1       3.550   4.223  18.109  0.00  0.00    +0.000 A 
BRANCH   7  18
ATOM     17  C   UNL     1       5.222   5.986  15.740  0.00  0.00    +0.000 C 
ATOM     18  O   UNL     1       5.323   5.372  17.022  0.00  0.00    +0.000 OA
ENDBRANCH   7  18
ENDBRANCH   5   9
ENDBRANCH   1   6
BRANCH   2  19
ATOM     19  C   UNL     1      -0.589  10.699  22.321  0.00  0.00    +0.000 C 
BRANCH  19  20
ATOM     20  C   UNL     1      -0.387  11.657  21.151  0.00  0.00    +0.000 C 
BRANCH  20  21
ATOM     21  N   UNL     1      -1.612  11.887  20.399  0.00  0.00    +0.000 N 
ATOM     22  C   UNL     1      -2.647  12.656  20.848  0.00  0.00    +0.000 A 
ATOM     23  C   UNL     1      -3.671  12.598  19.924  0.00  0.00    +0.000 A 
ATOM     24  C   UNL     1      -4.974  13.302  20.060  0.00  0.00    +0.000 C 
ATOM     25  C   UNL     1      -3.233  11.738  18.854  0.00  0.00    +0.000 A 
ATOM     26  C   UNL     1      -3.815  11.267  17.641  0.00  0.00    +0.000 A 
ATOM     27  C   UNL     1      -5.198  11.603  17.146  0.00  0.00    +0.000 C 
ATOM     28  C   UNL     1      -3.049  10.407  16.824  0.00  0.00    +0.000 A 
ATOM     29  C   UNL     1      -1.757  10.029  17.166  0.00  0.00    +0.000 A 
ATOM     30  C   UNL     1      -1.176  10.484  18.345  0.00  0.00    +0.000 A 
ATOM     31  C   UNL     1      -1.929  11.327  19.178  0.00  0.00    +0.000 A 
ENDBRANCH  20  21
ENDBRANCH  19  20
ENDBRANCH   2  19
TORSDOF 6
ENDMDL
MODEL 5
REMARK VINA RESULT:      -8.6      1.295      3.091
REMARK  Name = 
REMARK  9 active torsions:
REMARK  status: ('A' for Active; 'I' for Inactive)
REMARK    1  A    between atoms: C_1  and  O_2
REMARK    2  A    between atoms: O_2  and  C_3
REMARK    3  A    between atoms: C_5  and  C_6
REMARK    4  A    between atoms: N_7  and  N_8
REMARK    5  A    between atoms: C_9  and  C_11
REMARK    6  A    between atoms: C_11  and  C_12
REMARK    7  A    between atoms: C_12  and  N_13
REMARK    8  A    between atoms: C_15  and  C_16
REMARK    9  A    between atoms: C_18  and  C_19
REMARK                            x       y       z     vdW  Elec       q    Type
REMARK                         _______ _______ _______ _____ _____    ______ ____
ROOT
ATOM      1  N   UNL     1       7.381   7.813  17.042  0.00  0.00    +0.000 N 
ATOM      2  C   UNL     1       7.310   6.584  17.690  0.00  0.00    +0.000 C 
ATOM      3  O   UNL     1       7.522   6.409  18.889  0.00  0.00    +0.000 OA
ATOM      4  H   UNL     1       7.190   7.907  16.052  0.00  0.00    +0.000 HD
ENDROOT
BRANCH   1   6
ATOM      5  C   UNL     1       8.822   9.477  17.639  0.00  0.00    +0.000 C 
ATOM      6  N   UNL     1       7.667   8.913  17.786  0.00  0.00    +0.000 NA
BRANCH   5   9
ATOM      7  C   UNL     1      10.088  12.913  18.547  0.00  0.00    +0.000 A 
ATOM      8  C   UNL     1       9.779  11.754  17.826  0.00  0.00    +0.000 A 
ATOM      9  C   UNL     1       9.154  10.676  18.447  0.00  0.00    +0.000 A 
ATOM     10  C   UNL     1       8.853  10.739  19.805  0.00  0.00    +0.000 A 
ATOM     11  C   UNL     1       9.186  11.893  20.544  0.00  0.00    +0.000 A 
ATOM     12  C   UNL     1       8.905  11.978  21.919  0.00  0.00    +0.000 A 
ATOM     13  C   UNL     1       9.244  13.120  22.634  0.00  0.00    +0.000 A 
ATOM     14  C   UNL     1       9.854  14.149  21.952  0.00  0.00    +0.000 A 
ATOM     15  N   UNL     1      10.137  14.108  20.634  0.00  0.00    +0.000 NA
ATOM     16  C   UNL     1       9.818  13.001  19.925  0.00  0.00    +0.000 A 
BRANCH   7  18
ATOM     17  C   UNL     1      11.444  13.720  16.770  0.00  0.00    +0.000 C 
ATOM     18  O   UNL     1      10.709  13.996  17.959  0.00  0.00    +0.000 OA
ENDBRANCH   7  18
ENDBRANCH   5   9
ENDBRANCH   1   6
BRANCH   2  19
ATOM     19  C   UNL     1       6.978   5.436  16.765  0.00  0.00    +0.000 C 
BRANCH  19  20
ATOM     20  C   UNL     1       5.521   5.536  16.322  0.00  0.00    +0.000 C 
BRANCH  20  21
ATOM     21  N   UNL     1       4.619   4.800  17.196  0.00  0.00    +0.000 N 
ATOM     22  C   UNL     1       4.479   3.441  17.172  0.00  0.00    +0.000 A 
ATOM     23  C   UNL     1       3.494   3.085  18.072  0.00  0.00    +0.000 A 
ATOM     24  C   UNL     1       3.047   1.691  18.330  0.00  0.00    +0.000 C 
ATOM     25  C   UNL     1       3.005   4.301  18.673  0.00  0.00    +0.000 A 
ATOM     26  C   UNL     1       2.003   4.612  19.638  0.00  0.00    +0.000 A 
ATOM     27  C   UNL     1       1.114   3.612  20.331  0.00  0.00    +0.000 C 
ATOM     28  C   UNL     1       1.807   5.968  19.981  0.00  0.00    +0.000 A 
ATOM     29  C   UNL     1       2.568   6.984  19.418  0.00  0.00    +0.000 A 
ATOM     30  C   UNL     1       3.551   6.694  18.478  0.00  0.00    +0.000 A 
ATOM     31  C   UNL     1       3.748   5.353  18.112  0.00  0.00    +0.000 A 
ENDBRANCH  20  21
ENDBRANCH  19  20
ENDBRANCH   2  19
TORSDOF 6
ENDMDL
MODEL 6
REMARK VINA RESULT:      -8.5      6.091     10.243
REMARK  Name = 
REMARK  9 active torsions:
REMARK  status: ('A' for Active; 'I' for Inactive)
REMARK    1  A    between atoms: C_1  and  O_2
REMARK    2  A    between atoms: O_2  and  C_3
REMARK    3  A    between atoms: C_5  and  C_6
REMARK    4  A    between atoms: N_7  and  N_8
REMARK    5  A    between atoms: C_9  and  C_11
REMARK    6  A    between atoms: C_11  and  C_12
REMARK    7  A    between atoms: C_12  and  N_13
REMARK    8  A    between atoms: C_15  and  C_16
REMARK    9  A    between atoms: C_18  and  C_19
REMARK                            x       y       z     vdW  Elec       q    Type
REMARK                         _______ _______ _______ _____ _____    ______ ____
ROOT
ATOM      1  N   UNL     1       0.442  10.014  21.159  0.00  0.00    +0.000 N 
ATOM      2  C   UNL     1       0.046  10.470  22.411  0.00  0.00    +0.000 C 
ATOM      3  O   UNL     1       0.196   9.850  23.464  0.00  0.00    +0.000 OA
ATOM      4  H   UNL     1       0.303  10.565  20.320  0.00  0.00    +0.000 HD
ENDROOT
BRANCH   1   6
ATOM      5  C   UNL     1       1.444   8.379  19.924  0.00  0.00    +0.000 C 
ATOM      6  N   UNL     1       1.076   8.814  21.085  0.00  0.00    +0.000 NA
BRANCH   5   9
ATOM      7  C   UNL     1       3.810   5.687  18.744  0.00  0.00    +0.000 A 
ATOM      8  C   UNL     1       3.121   6.899  18.857  0.00  0.00    +0.000 A 
ATOM      9  C   UNL     1       2.132   7.069  19.824  0.00  0.00    +0.000 A 
ATOM     10  C   UNL     1       1.809   6.015  20.673  0.00  0.00    +0.000 A 
ATOM     11  C   UNL     1       2.481   4.780  20.548  0.00  0.00    +0.000 A 
ATOM     12  C   UNL     1       2.164   3.696  21.385  0.00  0.00    +0.000 A 
ATOM     13  C   UNL     1       2.832   2.486  21.245  0.00  0.00    +0.000 A 
ATOM     14  C   UNL     1       3.801   2.394  20.272  0.00  0.00    +0.000 A 
ATOM     15  N   UNL     1       4.137   3.412  19.452  0.00  0.00    +0.000 NA
ATOM     16  C   UNL     1       3.492   4.595  19.572  0.00  0.00    +0.000 A 
BRANCH   7  18
ATOM     17  C   UNL     1       4.853   6.460  16.754  0.00  0.00    +0.000 C 
ATOM     18  O   UNL     1       4.792   5.490  17.795  0.00  0.00    +0.000 OA
ENDBRANCH   7  18
ENDBRANCH   5   9
ENDBRANCH   1   6
BRANCH   2  19
ATOM     19  C   UNL     1      -0.640  11.816  22.372  0.00  0.00    +0.000 C 
BRANCH  19  20
ATOM     20  C   UNL     1      -0.604  12.371  20.951  0.00  0.00    +0.000 C 
BRANCH  20  21
ATOM     21  N   UNL     1      -1.917  12.385  20.323  0.00  0.00    +0.000 N 
ATOM     22  C   UNL     1      -2.989  13.069  20.820  0.00  0.00    +0.000 A 
ATOM     23  C   UNL     1      -4.087  12.806  20.024  0.00  0.00    +0.000 A 
ATOM     24  C   UNL     1      -5.446  13.364  20.245  0.00  0.00    +0.000 C 
ATOM     25  C   UNL     1      -3.654  11.904  18.986  0.00  0.00    +0.000 A 
ATOM     26  C   UNL     1      -4.292  11.256  17.888  0.00  0.00    +0.000 A 
ATOM     27  C   UNL     1      -5.749  11.381  17.524  0.00  0.00    +0.000 C 
ATOM     28  C   UNL     1      -3.510  10.416  17.065  0.00  0.00    +0.000 A 
ATOM     29  C   UNL     1      -2.153  10.224  17.291  0.00  0.00    +0.000 A 
ATOM     30  C   UNL     1      -1.518  10.853  18.357  0.00  0.00    +0.000 A 
ATOM     31  C   UNL     1      -2.283  11.678  19.196  0.00  0.00    +0.000 A 
ENDBRANCH  20  21
ENDBRANCH  19  20
ENDBRANCH   2  19
TORSDOF 6
ENDMDL
MODEL 7
REMARK VINA RESULT:      -8.4      1.424      2.374
REMARK  Name = 
REMARK  9 active torsions:
REMARK  status: ('A' for Active; 'I' for Inactive)
REMARK    1  A    between atoms: C_1  and  O_2
REMARK    2  A    between atoms: O_2  and  C_3
REMARK    3  A    between atoms: C_5  and  C_6
REMARK    4  A    between atoms: N_7  and  N_8
REMARK    5  A    between atoms: C_9  and  C_11
REMARK    6  A    between atoms: C_11  and  C_12
REMARK    7  A    between atoms: C_12  and  N_13
REMARK    8  A    between atoms: C_15  and  C_16
REMARK    9  A    between atoms: C_18  and  C_19
REMARK                            x       y       z     vdW  Elec       q    Type
REMARK                         _______ _______ _______ _____ _____    ______ ____
ROOT
ATOM      1  N   UNL     1       8.045   7.696  18.009  0.00  0.00    +0.000 N 
ATOM      2  C   UNL     1       6.966   7.259  17.248  0.00  0.00    +0.000 C 
ATOM      3  O   UNL     1       6.267   7.983  16.540  0.00  0.00    +0.000 OA
ATOM      4  H   UNL     1       8.595   7.059  18.571  0.00  0.00    +0.000 HD
ENDROOT
BRANCH   1   6
ATOM      5  C   UNL     1       8.993   9.543  18.953  0.00  0.00    +0.000 C 
ATOM      6  N   UNL     1       8.383   9.011  17.944  0.00  0.00    +0.000 NA
BRANCH   5   9
ATOM      7  C   UNL     1       9.265  13.181  19.914  0.00  0.00    +0.000 A 
ATOM      8  C   UNL     1       8.918  11.826  19.913  0.00  0.00    +0.000 A 
ATOM      9  C   UNL     1       9.365  10.978  18.902  0.00  0.00    +0.000 A 
ATOM     10  C   UNL     1      10.147  11.487  17.869  0.00  0.00    +0.000 A 
ATOM     11  C   UNL     1      10.480  12.858  17.850  0.00  0.00    +0.000 A 
ATOM     12  C   UNL     1      11.258  13.399  16.812  0.00  0.00    +0.000 A 
ATOM     13  C   UNL     1      11.572  14.752  16.805  0.00  0.00    +0.000 A 
ATOM     14  C   UNL     1      11.100  15.528  17.840  0.00  0.00    +0.000 A 
ATOM     15  N   UNL     1      10.355  15.046  18.856  0.00  0.00    +0.000 NA
ATOM     16  C   UNL     1      10.036  13.732  18.874  0.00  0.00    +0.000 A 
BRANCH   7  18
ATOM     17  C   UNL     1       9.463  13.897  22.172  0.00  0.00    +0.000 C 
ATOM     18  O   UNL     1       8.836  14.045  20.900  0.00  0.00    +0.000 OA
ENDBRANCH   7  18
ENDBRANCH   5   9
ENDBRANCH   1   6
BRANCH   2  19
ATOM     19  C   UNL     1       6.688   5.781  17.392  0.00  0.00    +0.000 C 
BRANCH  19  20
ATOM     20  C   UNL     1       5.363   5.437  16.719  0.00  0.00    +0.000 C 
BRANCH  20  21
ATOM     21  N   UNL     1       4.490   4.647  17.574  0.00  0.00    +0.000 N 
ATOM     22  C   UNL     1       4.395   3.286  17.512  0.00  0.00    +0.000 A 
ATOM     23  C   UNL     1       3.426   2.871  18.404  0.00  0.00    +0.000 A 
ATOM     24  C   UNL     1       3.028   1.456  18.624  0.00  0.00    +0.000 C 
ATOM     25  C   UNL     1       2.900   4.052  19.041  0.00  0.00    +0.000 A 
ATOM     26  C   UNL     1       1.892   4.302  20.018  0.00  0.00    +0.000 A 
ATOM     27  C   UNL     1       1.040   3.253  20.685  0.00  0.00    +0.000 C 
ATOM     28  C   UNL     1       1.652   5.640  20.401  0.00  0.00    +0.000 A 
ATOM     29  C   UNL     1       2.376   6.697  19.864  0.00  0.00    +0.000 A 
ATOM     30  C   UNL     1       3.364   6.467  18.913  0.00  0.00    +0.000 A 
ATOM     31  C   UNL     1       3.604   5.144  18.508  0.00  0.00    +0.000 A 
ENDBRANCH  20  21
ENDBRANCH  19  20
ENDBRANCH   2  19
TORSDOF 6
ENDMDL
MODEL 8
REMARK VINA RESULT:      -8.4      6.001      9.484
REMARK  Name = 
REMARK  9 active torsions:
REMARK  status: ('A' for Active; 'I' for Inactive)
REMARK    1  A    between atoms: C_1  and  O_2
REMARK    2  A    between atoms: O_2  and  C_3
REMARK    3  A    between atoms: C_5  and  C_6
REMARK    4  A    between atoms: N_7  and  N_8
REMARK    5  A    between atoms: C_9  and  C_11
REMARK    6  A    between atoms: C_11  and  C_12
REMARK    7  A    between atoms: C_12  and  N_13
REMARK    8  A    between atoms: C_15  and  C_16
REMARK    9  A    between atoms: C_18  and  C_19
REMARK                            x       y       z     vdW  Elec       q    Type
REMARK                         _______ _______ _______ _____ _____    ______ ____
ROOT
ATOM      1  N   UNL     1       0.695   9.658  20.394  0.00  0.00    +0.000 N 
ATOM      2  C   UNL     1       0.651  10.038  21.731  0.00  0.00    +0.000 C 
ATOM      3  O   UNL     1       1.240   9.461  22.644  0.00  0.00    +0.000 OA
ATOM      4  H   UNL     1       0.197  10.171  19.675  0.00  0.00    +0.000 HD
ENDROOT
BRANCH   1   6
ATOM      5  C   UNL     1       1.811   8.448  18.815  0.00  0.00    +0.000 C 
ATOM      6  N   UNL     1       1.472   8.596  20.055  0.00  0.00    +0.000 NA
BRANCH   5   9
ATOM      7  C   UNL     1       3.267   4.967  18.764  0.00  0.00    +0.000 A 
ATOM      8  C   UNL     1       2.507   6.088  19.114  0.00  0.00    +0.000 A 
ATOM      9  C   UNL     1       2.654   7.291  18.426  0.00  0.00    +0.000 A 
ATOM     10  C   UNL     1       3.583   7.387  17.395  0.00  0.00    +0.000 A 
ATOM     11  C   UNL     1       4.372   6.269  17.053  0.00  0.00    +0.000 A 
ATOM     12  C   UNL     1       5.327   6.344  16.024  0.00  0.00    +0.000 A 
ATOM     13  C   UNL     1       6.099   5.234  15.703  0.00  0.00    +0.000 A 
ATOM     14  C   UNL     1       5.894   4.077  16.421  0.00  0.00    +0.000 A 
ATOM     15  N   UNL     1       4.986   3.964  17.413  0.00  0.00    +0.000 NA
ATOM     16  C   UNL     1       4.230   5.037  17.740  0.00  0.00    +0.000 A 
BRANCH   7  18
ATOM     17  C   UNL     1       2.501   3.819  20.698  0.00  0.00    +0.000 C 
ATOM     18  O   UNL     1       3.144   3.764  19.427  0.00  0.00    +0.000 OA
ENDBRANCH   7  18
ENDBRANCH   5   9
ENDBRANCH   1   6
BRANCH   2  19
ATOM     19  C   UNL     1      -0.237  11.233  21.987  0.00  0.00    +0.000 C 
BRANCH  19  20
ATOM     20  C   UNL     1      -0.312  12.099  20.733  0.00  0.00    +0.000 C 
BRANCH  20  21
ATOM     21  N   UNL     1      -1.659  12.180  20.189  0.00  0.00    +0.000 N 
ATOM     22  C   UNL     1      -2.685  12.844  20.798  0.00  0.00    +0.000 A 
ATOM     23  C   UNL     1      -3.834  12.657  20.054  0.00  0.00    +0.000 A 
ATOM     24  C   UNL     1      -5.166  13.221  20.397  0.00  0.00    +0.000 C 
ATOM     25  C   UNL     1      -3.483  11.826  18.930  0.00  0.00    +0.000 A 
ATOM     26  C   UNL     1      -4.199  11.270  17.830  0.00  0.00    +0.000 A 
ATOM     27  C   UNL     1      -5.672  11.445  17.566  0.00  0.00    +0.000 C 
ATOM     28  C   UNL     1      -3.486  10.479  16.902  0.00  0.00    +0.000 A 
ATOM     29  C   UNL     1      -2.122  10.248  17.031  0.00  0.00    +0.000 A 
ATOM     30  C   UNL     1      -1.411  10.788  18.098  0.00  0.00    +0.000 A 
ATOM     31  C   UNL     1      -2.107  11.563  19.039  0.00  0.00    +0.000 A 
ENDBRANCH  20  21
ENDBRANCH  19  20
ENDBRANCH   2  19
TORSDOF 6
ENDMDL
MODEL 9
REMARK VINA RESULT:      -8.3      1.612      1.787
REMARK  Name = 
REMARK  9 active torsions:
REMARK  status: ('A' for Active; 'I' for Inactive)
REMARK    1  A    between atoms: C_1  and  O_2
REMARK    2  A    between atoms: O_2  and  C_3
REMARK    3  A    between atoms: C_5  and  C_6
REMARK    4  A    between atoms: N_7  and  N_8
REMARK    5  A    between atoms: C_9  and  C_11
REMARK    6  A    between atoms: C_11  and  C_12
REMARK    7  A    between atoms: C_12  and  N_13
REMARK    8  A    between atoms: C_15  and  C_16
REMARK    9  A    between atoms: C_18  and  C_19
REMARK                            x       y       z     vdW  Elec       q    Type
REMARK                         _______ _______ _______ _____ _____    ______ ____
ROOT
ATOM      1  N   UNL     1       8.117   7.463  18.561  0.00  0.00    +0.000 N 
ATOM      2  C   UNL     1       7.764   6.701  17.452  0.00  0.00    +0.000 C 
ATOM      3  O   UNL     1       7.645   7.139  16.309  0.00  0.00    +0.000 OA
ATOM      4  H   UNL     1       8.209   7.054  19.483  0.00  0.00    +0.000 HD
ENDROOT
BRANCH   1   6
ATOM      5  C   UNL     1       9.140   9.388  19.234  0.00  0.00    +0.000 C 
ATOM      6  N   UNL     1       8.390   8.780  18.372  0.00  0.00    +0.000 NA
BRANCH   5   9
ATOM      7  C   UNL     1       9.231  13.110  19.841  0.00  0.00    +0.000 A 
ATOM      8  C   UNL     1       8.949  11.746  19.969  0.00  0.00    +0.000 A 
ATOM      9  C   UNL     1       9.443  10.827  19.046  0.00  0.00    +0.000 A 
ATOM     10  C   UNL     1      10.208  11.272  17.971  0.00  0.00    +0.000 A 
ATOM     11  C   UNL     1      10.475  12.649  17.821  0.00  0.00    +0.000 A 
ATOM     12  C   UNL     1      11.234  13.125  16.738  0.00  0.00    +0.000 A 
ATOM     13  C   UNL     1      11.483  14.485  16.602  0.00  0.00    +0.000 A 
ATOM     14  C   UNL     1      10.967  15.333  17.556  0.00  0.00    +0.000 A 
ATOM     15  N   UNL     1      10.238  14.915  18.611  0.00  0.00    +0.000 NA
ATOM     16  C   UNL     1       9.982  13.595  18.755  0.00  0.00    +0.000 A 
BRANCH   7  18
ATOM     17  C   UNL     1       9.206  13.899  22.083  0.00  0.00    +0.000 C 
ATOM     18  O   UNL     1       8.753  14.043  20.739  0.00  0.00    +0.000 OA
ENDBRANCH   7  18
ENDBRANCH   5   9
ENDBRANCH   1   6
BRANCH   2  19
ATOM     19  C   UNL     1       7.492   5.252  17.781  0.00  0.00    +0.000 C 
BRANCH  19  20
ATOM     20  C   UNL     1       6.251   4.777  17.031  0.00  0.00    +0.000 C 
BRANCH  20  21
ATOM     21  N   UNL     1       5.015   5.222  17.657  0.00  0.00    +0.000 N 
ATOM     22  C   UNL     1       4.393   6.400  17.356  0.00  0.00    +0.000 A 
ATOM     23  C   UNL     1       3.295   6.541  18.181  0.00  0.00    +0.000 A 
ATOM     24  C   UNL     1       2.365   7.700  18.161  0.00  0.00    +0.000 C 
ATOM     25  C   UNL     1       3.253   5.382  19.037  0.00  0.00    +0.000 A 
ATOM     26  C   UNL     1       2.401   4.943  20.093  0.00  0.00    +0.000 A 
ATOM     27  C   UNL     1       1.204   5.691  20.620  0.00  0.00    +0.000 C 
ATOM     28  C   UNL     1       2.692   3.708  20.713  0.00  0.00    +0.000 A 
ATOM     29  C   UNL     1       3.764   2.921  20.313  0.00  0.00    +0.000 A 
ATOM     30  C   UNL     1       4.600   3.336  19.283  0.00  0.00    +0.000 A 
ATOM     31  C   UNL     1       4.337   4.569  18.666  0.00  0.00    +0.000 A 
ENDBRANCH  20  21
ENDBRANCH  19  20
ENDBRANCH   2  19
TORSDOF 6
ENDMDL
