MODEL 1
REMARK VINA RESULT:      -7.6      0.000      0.000
REMARK  Name = 
REMARK  10 active torsions:
REMARK  status: ('A' for Active; 'I' for Inactive)
REMARK    1  A    between atoms: C_1  and  O_2
REMARK    2  A    between atoms: O_2  and  C_3
REMARK    3  A    between atoms: C_5  and  C_6
REMARK    4  A    between atoms: C_6  and  C_8
REMARK    5  A    between atoms: N_10  and  C_11
REMARK    6  A    between atoms: C_19  and  C_20
REMARK    7  A    between atoms: C_27  and  O_28
REMARK    8  A    between atoms: O_28  and  C_29
REMARK    9  A    between atoms: C_30  and  O_31
REMARK   10  A    between atoms: O_31  and  C_32
REMARK                            x       y       z     vdW  Elec       q    Type
REMARK                         _______ _______ _______ _____ _____    ______ ____
ROOT
ATOM      1  C   UNL     1       1.727   9.060  18.640  0.00  0.00    +0.000 A 
ATOM      2  C   UNL     1       2.381   8.209  17.753  0.00  0.00    +0.000 A 
ATOM      3  N   UNL     1       2.700   7.018  18.378  0.00  0.00    +0.000 N 
ATOM      4  C   UNL     1       2.173   7.086  19.648  0.00  0.00    +0.000 A 
ATOM      5  C   UNL     1       1.588   8.322  19.857  0.00  0.00    +0.000 A 
ENDROOT
BRANCH   3   6
ATOM      6  C   UNL     1       3.470   5.938  17.839  0.00  0.00    +0.000 A 
ATOM      7  C   UNL     1       4.469   6.186  16.883  0.00  0.00    +0.000 A 
ATOM      8  C   UNL     1       5.176   5.132  16.297  0.00  0.00    +0.000 A 
ATOM      9  C   UNL     1       4.890   3.817  16.649  0.00  0.00    +0.000 A 
ATOM     10  C   UNL     1       3.913   3.565  17.608  0.00  0.00    +0.000 A 
ATOM     11 BR   UNL     1       3.506   1.775  18.070  0.00  0.00    +0.000 Br
ATOM     12  C   UNL     1       3.212   4.611  18.216  0.00  0.00    +0.000 A 
ENDBRANCH   3   6
BRANCH   5  13
ATOM     13  C   UNL     1       1.012   8.699  21.144  0.00  0.00    +0.000 A 
ATOM     14  C   UNL     1      -0.376   8.708  21.330  0.00  0.00    +0.000 A 
ATOM     15  C   UNL     1      -0.927   9.044  22.569  0.00  0.00    +0.000 A 
ATOM     16  C   UNL     1      -0.096   9.402  23.627  0.00  0.00    +0.000 A 
ATOM     17  C   UNL     1       1.285   9.423  23.446  0.00  0.00    +0.000 A 
ATOM     18  C   UNL     1       1.839   9.069  22.217  0.00  0.00    +0.000 A 
ENDBRANCH   5  13
BRANCH   1  19
ATOM     19  C   UNL     1       1.235  10.411  18.344  0.00  0.00    +0.000 C 
ATOM     20  O   UNL     1       1.989  11.354  18.126  0.00  0.00    +0.000 OA
BRANCH  19  23
ATOM     21  C   UNL     1      -2.139  11.949  19.093  0.00  0.00    +0.000 A 
ATOM     22  C   UNL     1      -0.812  11.535  19.254  0.00  0.00    +0.000 A 
ATOM     23  C   UNL     1      -0.227  10.670  18.337  0.00  0.00    +0.000 A 
ATOM     24  C   UNL     1      -1.021  10.058  17.373  0.00  0.00    +0.000 A 
ATOM     25  C   UNL     1      -2.383  10.374  17.259  0.00  0.00    +0.000 A 
ATOM     26  C   UNL     1      -2.958  11.346  18.111  0.00  0.00    +0.000 A 
BRANCH  21  28
ATOM     27  C   UNL     1      -1.996  13.067  21.179  0.00  0.00    +0.000 C 
ATOM     28  O   UNL     1      -2.636  12.938  19.905  0.00  0.00    +0.000 OA
ENDBRANCH  21  28
BRANCH  25  29
ATOM     29  O   UNL     1      -2.968   9.665  16.239  0.00  0.00    +0.000 OA
ATOM     30  C   UNL     1      -2.892  10.148  14.908  0.00  0.00    +0.000 C 
ENDBRANCH  25  29
BRANCH  26  31
ATOM     31  O   UNL     1      -4.283  11.614  17.902  0.00  0.00    +0.000 OA
ATOM     32  C   UNL     1      -5.291  10.781  18.445  0.00  0.00    +0.000 C 
ENDBRANCH  26  31
ENDBRANCH  19  23
ENDBRANCH   1  19
TORSDOF 7
ENDMDL
MODEL 2
REMARK VINA RESULT:      -7.5      0.971      1.542
REMARK  Name = 
REMARK  10 active torsions:
REMARK  status: ('A' for Active; 'I' for Inactive)
REMARK    1  A    between atoms: C_1  and  O_2
REMARK    2  A    between atoms: O_2  and  C_3
REMARK    3  A    between atoms: C_5  and  C_6
REMARK    4  A    between atoms: C_6  and  C_8
REMARK    5  A    between atoms: N_10  and  C_11
REMARK    6  A    between atoms: C_19  and  C_20
REMARK    7  A    between atoms: C_27  and  O_28
REMARK    8  A    between atoms: O_28  and  C_29
REMARK    9  A    between atoms: C_30  and  O_31
REMARK   10  A    between atoms: O_31  and  C_32
REMARK                            x       y       z     vdW  Elec       q    Type
REMARK                         _______ _______ _______ _____ _____    ______ ____
ROOT
ATOM      1  C   UNL     1       1.762   8.935  18.614  0.00  0.00    +0.000 A 
ATOM      2  C   UNL     1       2.360   8.051  17.720  0.00  0.00    +0.000 A 
ATOM      3  N   UNL     1       2.614   6.842  18.338  0.00  0.00    +0.000 N 
ATOM      4  C   UNL     1       2.101   6.935  19.612  0.00  0.00    +0.000 A 
ATOM      5  C   UNL     1       1.589   8.201  19.829  0.00  0.00    +0.000 A 
ENDROOT
BRANCH   3   6
ATOM      6  C   UNL     1       3.318   5.722  17.790  0.00  0.00    +0.000 A 
ATOM      7  C   UNL     1       2.870   4.413  18.035  0.00  0.00    +0.000 A 
ATOM      8  C   UNL     1       3.591   3.311  17.567  0.00  0.00    +0.000 A 
ATOM      9  C   UNL     1       4.772   3.498  16.857  0.00  0.00    +0.000 A 
ATOM     10  C   UNL     1       5.213   4.792  16.595  0.00  0.00    +0.000 A 
ATOM     11 BR   UNL     1       6.833   5.048  15.651  0.00  0.00    +0.000 Br
ATOM     12  C   UNL     1       4.491   5.904  17.042  0.00  0.00    +0.000 A 
ENDBRANCH   3   6
BRANCH   5  13
ATOM     13  C   UNL     1       1.044   8.606  21.121  0.00  0.00    +0.000 A 
ATOM     14  C   UNL     1       1.894   8.990  22.166  0.00  0.00    +0.000 A 
ATOM     15  C   UNL     1       1.372   9.402  23.395  0.00  0.00    +0.000 A 
ATOM     16  C   UNL     1      -0.005   9.410  23.600  0.00  0.00    +0.000 A 
ATOM     17  C   UNL     1      -0.858   9.006  22.576  0.00  0.00    +0.000 A 
ATOM     18  C   UNL     1      -0.342   8.612  21.343  0.00  0.00    +0.000 A 
ENDBRANCH   5  13
BRANCH   1  19
ATOM     19  C   UNL     1       1.345  10.313  18.325  0.00  0.00    +0.000 C 
ATOM     20  O   UNL     1       2.150  11.207  18.082  0.00  0.00    +0.000 OA
BRANCH  19  23
ATOM     21  C   UNL     1      -1.898  12.092  19.116  0.00  0.00    +0.000 A 
ATOM     22  C   UNL     1      -0.593  11.604  19.251  0.00  0.00    +0.000 A 
ATOM     23  C   UNL     1      -0.097  10.661  18.358  0.00  0.00    +0.000 A 
ATOM     24  C   UNL     1      -0.964  10.055  17.455  0.00  0.00    +0.000 A 
ATOM     25  C   UNL     1      -2.307  10.448  17.374  0.00  0.00    +0.000 A 
ATOM     26  C   UNL     1      -2.790  11.494  18.196  0.00  0.00    +0.000 A 
BRANCH  21  28
ATOM     27  C   UNL     1      -2.323  12.900  21.304  0.00  0.00    +0.000 C 
ATOM     28  O   UNL     1      -2.303  13.148  19.895  0.00  0.00    +0.000 OA
ENDBRANCH  21  28
BRANCH  25  29
ATOM     29  O   UNL     1      -2.973   9.729  16.413  0.00  0.00    +0.000 OA
ATOM     30  C   UNL     1      -2.938  10.153  15.060  0.00  0.00    +0.000 C 
ENDBRANCH  25  29
BRANCH  26  31
ATOM     31  O   UNL     1      -4.103  11.833  18.021  0.00  0.00    +0.000 OA
ATOM     32  C   UNL     1      -5.096  11.405  18.936  0.00  0.00    +0.000 C 
ENDBRANCH  26  31
ENDBRANCH  19  23
ENDBRANCH   1  19
TORSDOF 7
ENDMDL
MODEL 3
REMARK VINA RESULT:      -7.4      0.422      2.318
REMARK  Name = 
REMARK  10 active torsions:
REMARK  status: ('A' for Active; 'I' for Inactive)
REMARK    1  A    between atoms: C_1  and  O_2
REMARK    2  A    between atoms: O_2  and  C_3
REMARK    3  A    between atoms: C_5  and  C_6
REMARK    4  A    between atoms: C_6  and  C_8
REMARK    5  A    between atoms: N_10  and  C_11
REMARK    6  A    between atoms: C_19  and  C_20
REMARK    7  A    between atoms: C_27  and  O_28
REMARK    8  A    between atoms: O_28  and  C_29
REMARK    9  A    between atoms: C_30  and  O_31
REMARK   10  A    between atoms: O_31  and  C_32
REMARK                            x       y       z     vdW  Elec       q    Type
REMARK                         _______ _______ _______ _____ _____    ______ ____
ROOT
ATOM      1  C   UNL     1       1.829   9.132  18.635  0.00  0.00    +0.000 A 
ATOM      2  C   UNL     1       2.483   8.281  17.749  0.00  0.00    +0.000 A 
ATOM      3  N   UNL     1       2.746   7.068  18.355  0.00  0.00    +0.000 N 
ATOM      4  C   UNL     1       2.183   7.124  19.610  0.00  0.00    +0.000 A 
ATOM      5  C   UNL     1       1.630   8.372  19.830  0.00  0.00    +0.000 A 
ENDROOT
BRANCH   3   6
ATOM      6  C   UNL     1       3.499   5.976  17.815  0.00  0.00    +0.000 A 
ATOM      7  C   UNL     1       4.494   6.208  16.850  0.00  0.00    +0.000 A 
ATOM      8  C   UNL     1       5.184   5.144  16.263  0.00  0.00    +0.000 A 
ATOM      9  C   UNL     1       4.885   3.834  16.623  0.00  0.00    +0.000 A 
ATOM     10  C   UNL     1       3.913   3.597  17.591  0.00  0.00    +0.000 A 
ATOM     11 BR   UNL     1       3.488   1.814  18.063  0.00  0.00    +0.000 Br
ATOM     12  C   UNL     1       3.229   4.654  18.199  0.00  0.00    +0.000 A 
ENDBRANCH   3   6
BRANCH   5  13
ATOM     13  C   UNL     1       1.027   8.739  21.107  0.00  0.00    +0.000 A 
ATOM     14  C   UNL     1      -0.366   8.774  21.256  0.00  0.00    +0.000 A 
ATOM     15  C   UNL     1      -0.943   9.100  22.485  0.00  0.00    +0.000 A 
ATOM     16  C   UNL     1      -0.135   9.421  23.572  0.00  0.00    +0.000 A 
ATOM     17  C   UNL     1       1.251   9.414  23.429  0.00  0.00    +0.000 A 
ATOM     18  C   UNL     1       1.831   9.071  22.209  0.00  0.00    +0.000 A 
ENDBRANCH   5  13
BRANCH   1  19
ATOM     19  C   UNL     1       1.387  10.504  18.355  0.00  0.00    +0.000 C 
ATOM     20  O   UNL     1       2.175  11.427  18.180  0.00  0.00    +0.000 OA
BRANCH  19  23
ATOM     21  C   UNL     1      -2.305  10.275  17.562  0.00  0.00    +0.000 A 
ATOM     22  C   UNL     1      -0.917  10.151  17.433  0.00  0.00    +0.000 A 
ATOM     23  C   UNL     1      -0.065  10.809  18.313  0.00  0.00    +0.000 A 
ATOM     24  C   UNL     1      -0.588  11.750  19.193  0.00  0.00    +0.000 A 
ATOM     25  C   UNL     1      -1.970  11.974  19.267  0.00  0.00    +0.000 A 
ATOM     26  C   UNL     1      -2.854  11.219  18.460  0.00  0.00    +0.000 A 
BRANCH  21  28
ATOM     27  C   UNL     1      -3.078   9.722  15.390  0.00  0.00    +0.000 C 
ATOM     28  O   UNL     1      -3.123   9.478  16.800  0.00  0.00    +0.000 OA
ENDBRANCH  21  28
BRANCH  25  29
ATOM     29  O   UNL     1      -2.264  12.932  20.205  0.00  0.00    +0.000 OA
ATOM     30  C   UNL     1      -1.214  13.608  20.878  0.00  0.00    +0.000 C 
ENDBRANCH  25  29
BRANCH  26  31
ATOM     31  O   UNL     1      -4.186  11.482  18.626  0.00  0.00    +0.000 OA
ATOM     32  C   UNL     1      -4.956  12.044  17.579  0.00  0.00    +0.000 C 
ENDBRANCH  26  31
ENDBRANCH  19  23
ENDBRANCH   1  19
TORSDOF 7
ENDMDL
MODEL 4
REMARK VINA RESULT:      -7.4      1.020      2.649
REMARK  Name = 
REMARK  10 active torsions:
REMARK  status: ('A' for Active; 'I' for Inactive)
REMARK    1  A    between atoms: C_1  and  O_2
REMARK    2  A    between atoms: O_2  and  C_3
REMARK    3  A    between atoms: C_5  and  C_6
REMARK    4  A    between atoms: C_6  and  C_8
REMARK    5  A    between atoms: N_10  and  C_11
REMARK    6  A    between atoms: C_19  and  C_20
REMARK    7  A    between atoms: C_27  and  O_28
REMARK    8  A    between atoms: O_28  and  C_29
REMARK    9  A    between atoms: C_30  and  O_31
REMARK   10  A    between atoms: O_31  and  C_32
REMARK                            x       y       z     vdW  Elec       q    Type
REMARK                         _______ _______ _______ _____ _____    ______ ____
ROOT
ATOM      1  C   UNL     1       1.681   9.033  18.623  0.00  0.00    +0.000 A 
ATOM      2  C   UNL     1       2.274   8.161  17.714  0.00  0.00    +0.000 A 
ATOM      3  N   UNL     1       2.557   6.954  18.323  0.00  0.00    +0.000 N 
ATOM      4  C   UNL     1       2.069   7.035  19.607  0.00  0.00    +0.000 A 
ATOM      5  C   UNL     1       1.544   8.293  19.840  0.00  0.00    +0.000 A 
ENDROOT
BRANCH   3   6
ATOM      6  C   UNL     1       3.266   5.846  17.757  0.00  0.00    +0.000 A 
ATOM      7  C   UNL     1       2.749   4.543  17.864  0.00  0.00    +0.000 A 
ATOM      8  C   UNL     1       3.468   3.447  17.380  0.00  0.00    +0.000 A 
ATOM      9  C   UNL     1       4.714   3.633  16.791  0.00  0.00    +0.000 A 
ATOM     10  C   UNL     1       5.225   4.921  16.666  0.00  0.00    +0.000 A 
ATOM     11 BR   UNL     1       6.931   5.173  15.888  0.00  0.00    +0.000 Br
ATOM     12  C   UNL     1       4.507   6.029  17.129  0.00  0.00    +0.000 A 
ENDBRANCH   3   6
BRANCH   5  13
ATOM     13  C   UNL     1       1.020   8.687  21.144  0.00  0.00    +0.000 A 
ATOM     14  C   UNL     1      -0.361   8.734  21.375  0.00  0.00    +0.000 A 
ATOM     15  C   UNL     1      -0.862   9.085  22.630  0.00  0.00    +0.000 A 
ATOM     16  C   UNL     1       0.011   9.419  23.661  0.00  0.00    +0.000 A 
ATOM     17  C   UNL     1       1.386   9.401  23.436  0.00  0.00    +0.000 A 
ATOM     18  C   UNL     1       1.890   9.032  22.190  0.00  0.00    +0.000 A 
ENDBRANCH   5  13
BRANCH   1  19
ATOM     19  C   UNL     1       1.239  10.406  18.349  0.00  0.00    +0.000 C 
ATOM     20  O   UNL     1       2.027  11.337  18.216  0.00  0.00    +0.000 OA
BRANCH  19  23
ATOM     21  C   UNL     1      -2.403  10.221  17.343  0.00  0.00    +0.000 A 
ATOM     22  C   UNL     1      -1.008  10.122  17.276  0.00  0.00    +0.000 A 
ATOM     23  C   UNL     1      -0.213  10.701  18.258  0.00  0.00    +0.000 A 
ATOM     24  C   UNL     1      -0.793  11.551  19.193  0.00  0.00    +0.000 A 
ATOM     25  C   UNL     1      -2.181  11.756  19.214  0.00  0.00    +0.000 A 
ATOM     26  C   UNL     1      -3.011  11.072  18.294  0.00  0.00    +0.000 A 
BRANCH  21  28
ATOM     27  C   UNL     1      -3.116   9.919  15.102  0.00  0.00    +0.000 C 
ATOM     28  O   UNL     1      -3.169   9.493  16.467  0.00  0.00    +0.000 OA
ENDBRANCH  21  28
BRANCH  25  29
ATOM     29  O   UNL     1      -2.535  12.619  20.221  0.00  0.00    +0.000 OA
ATOM     30  C   UNL     1      -1.861  12.566  21.467  0.00  0.00    +0.000 C 
ENDBRANCH  25  29
BRANCH  26  31
ATOM     31  O   UNL     1      -4.353  11.307  18.414  0.00  0.00    +0.000 OA
ATOM     32  C   UNL     1      -5.052  12.060  17.439  0.00  0.00    +0.000 C 
ENDBRANCH  26  31
ENDBRANCH  19  23
ENDBRANCH   1  19
TORSDOF 7
ENDMDL
MODEL 5
REMARK VINA RESULT:      -7.2      4.640      8.928
REMARK  Name = 
REMARK  10 active torsions:
REMARK  status: ('A' for Active; 'I' for Inactive)
REMARK    1  A    between atoms: C_1  and  O_2
REMARK    2  A    between atoms: O_2  and  C_3
REMARK    3  A    between atoms: C_5  and  C_6
REMARK    4  A    between atoms: C_6  and  C_8
REMARK    5  A    between atoms: N_10  and  C_11
REMARK    6  A    between atoms: C_19  and  C_20
REMARK    7  A    between atoms: C_27  and  O_28
REMARK    8  A    between atoms: O_28  and  C_29
REMARK    9  A    between atoms: C_30  and  O_31
REMARK   10  A    between atoms: O_31  and  C_32
REMARK                            x       y       z     vdW  Elec       q    Type
REMARK                         _______ _______ _______ _____ _____    ______ ____
ROOT
ATOM      1  C   UNL     1       2.787   5.476  17.976  0.00  0.00    +0.000 A 
ATOM      2  C   UNL     1       2.615   6.831  17.708  0.00  0.00    +0.000 A 
ATOM      3  N   UNL     1       2.170   7.490  18.837  0.00  0.00    +0.000 N 
ATOM      4  C   UNL     1       2.136   6.559  19.850  0.00  0.00    +0.000 A 
ATOM      5  C   UNL     1       2.485   5.312  19.364  0.00  0.00    +0.000 A 
ENDROOT
BRANCH   3   6
ATOM      6  C   UNL     1       1.771   8.862  18.937  0.00  0.00    +0.000 A 
ATOM      7  C   UNL     1       2.192   9.796  17.975  0.00  0.00    +0.000 A 
ATOM      8  C   UNL     1       1.869  11.150  18.104  0.00  0.00    +0.000 A 
ATOM      9  C   UNL     1       1.130  11.592  19.196  0.00  0.00    +0.000 A 
ATOM     10  C   UNL     1       0.694  10.670  20.143  0.00  0.00    +0.000 A 
ATOM     11 BR   UNL     1      -0.289  11.274  21.643  0.00  0.00    +0.000 Br
ATOM     12  C   UNL     1       0.995   9.310  20.017  0.00  0.00    +0.000 A 
ENDBRANCH   3   6
BRANCH   5  13
ATOM     13  C   UNL     1       2.464   4.119  20.204  0.00  0.00    +0.000 A 
ATOM     14  C   UNL     1       3.573   3.265  20.260  0.00  0.00    +0.000 A 
ATOM     15  C   UNL     1       3.563   2.136  21.083  0.00  0.00    +0.000 A 
ATOM     16  C   UNL     1       2.433   1.834  21.838  0.00  0.00    +0.000 A 
ATOM     17  C   UNL     1       1.315   2.662  21.770  0.00  0.00    +0.000 A 
ATOM     18  C   UNL     1       1.328   3.799  20.965  0.00  0.00    +0.000 A 
ENDBRANCH   5  13
BRANCH   1  19
ATOM     19  C   UNL     1       3.246   4.454  17.027  0.00  0.00    +0.000 C 
ATOM     20  O   UNL     1       2.598   3.441  16.785  0.00  0.00    +0.000 OA
BRANCH  19  23
ATOM     21  C   UNL     1       6.051   4.133  14.509  0.00  0.00    +0.000 A 
ATOM     22  C   UNL     1       4.927   3.816  15.280  0.00  0.00    +0.000 A 
ATOM     23  C   UNL     1       4.557   4.622  16.351  0.00  0.00    +0.000 A 
ATOM     24  C   UNL     1       5.419   5.626  16.779  0.00  0.00    +0.000 A 
ATOM     25  C   UNL     1       6.609   5.894  16.088  0.00  0.00    +0.000 A 
ATOM     26  C   UNL     1       6.932   5.157  14.923  0.00  0.00    +0.000 A 
BRANCH  21  28
ATOM     27  C   UNL     1       5.215   3.409  12.411  0.00  0.00    +0.000 C 
ATOM     28  O   UNL     1       6.291   3.429  13.354  0.00  0.00    +0.000 OA
ENDBRANCH  21  28
BRANCH  25  29
ATOM     29  O   UNL     1       7.297   6.927  16.674  0.00  0.00    +0.000 OA
ATOM     30  C   UNL     1       7.695   6.830  18.032  0.00  0.00    +0.000 C 
ENDBRANCH  25  29
BRANCH  26  31
ATOM     31  O   UNL     1       8.094   5.513  14.296  0.00  0.00    +0.000 OA
ATOM     32  C   UNL     1       8.152   5.653  12.887  0.00  0.00    +0.000 C 
ENDBRANCH  26  31
ENDBRANCH  19  23
ENDBRANCH   1  19
TORSDOF 7
ENDMDL
MODEL 6
REMARK VINA RESULT:      -7.2      4.678      8.656
REMARK  Name = 
REMARK  10 active torsions:
REMARK  status: ('A' for Active; 'I' for Inactive)
REMARK    1  A    between atoms: C_1  and  O_2
REMARK    2  A    between atoms: O_2  and  C_3
REMARK    3  A    between atoms: C_5  and  C_6
REMARK    4  A    between atoms: C_6  and  C_8
REMARK    5  A    between atoms: N_10  and  C_11
REMARK    6  A    between atoms: C_19  and  C_20
REMARK    7  A    between atoms: C_27  and  O_28
REMARK    8  A    between atoms: O_28  and  C_29
REMARK    9  A    between atoms: C_30  and  O_31
REMARK   10  A    between atoms: O_31  and  C_32
REMARK                            x       y       z     vdW  Elec       q    Type
REMARK                         _______ _______ _______ _____ _____    ______ ____
ROOT
ATOM      1  C   UNL     1       2.867   5.614  18.007  0.00  0.00    +0.000 A 
ATOM      2  C   UNL     1       2.697   6.970  17.741  0.00  0.00    +0.000 A 
ATOM      3  N   UNL     1       2.207   7.619  18.857  0.00  0.00    +0.000 N 
ATOM      4  C   UNL     1       2.139   6.681  19.862  0.00  0.00    +0.000 A 
ATOM      5  C   UNL     1       2.514   5.440  19.383  0.00  0.00    +0.000 A 
ENDROOT
BRANCH   3   6
ATOM      6  C   UNL     1       1.796   8.988  18.950  0.00  0.00    +0.000 A 
ATOM      7  C   UNL     1       2.219   9.923  17.991  0.00  0.00    +0.000 A 
ATOM      8  C   UNL     1       1.885  11.275  18.113  0.00  0.00    +0.000 A 
ATOM      9  C   UNL     1       1.132  11.714  19.198  0.00  0.00    +0.000 A 
ATOM     10  C   UNL     1       0.695  10.790  20.143  0.00  0.00    +0.000 A 
ATOM     11 BR   UNL     1      -0.308  11.390  21.632  0.00  0.00    +0.000 Br
ATOM     12  C   UNL     1       1.007   9.432  20.022  0.00  0.00    +0.000 A 
ENDBRANCH   3   6
BRANCH   5  13
ATOM     13  C   UNL     1       2.468   4.241  20.213  0.00  0.00    +0.000 A 
ATOM     14  C   UNL     1       3.598   3.425  20.354  0.00  0.00    +0.000 A 
ATOM     15  C   UNL     1       3.562   2.292  21.170  0.00  0.00    +0.000 A 
ATOM     16  C   UNL     1       2.387   1.946  21.831  0.00  0.00    +0.000 A 
ATOM     17  C   UNL     1       1.250   2.735  21.678  0.00  0.00    +0.000 A 
ATOM     18  C   UNL     1       1.287   3.878  20.881  0.00  0.00    +0.000 A 
ENDBRANCH   5  13
BRANCH   1  19
ATOM     19  C   UNL     1       3.367   4.601  17.070  0.00  0.00    +0.000 C 
ATOM     20  O   UNL     1       2.820   3.512  16.923  0.00  0.00    +0.000 OA
BRANCH  19  23
ATOM     21  C   UNL     1       6.727   6.002  16.043  0.00  0.00    +0.000 A 
ATOM     22  C   UNL     1       5.465   5.902  16.640  0.00  0.00    +0.000 A 
ATOM     23  C   UNL     1       4.597   4.875  16.287  0.00  0.00    +0.000 A 
ATOM     24  C   UNL     1       4.903   4.068  15.196  0.00  0.00    +0.000 A 
ATOM     25  C   UNL     1       6.116   4.219  14.509  0.00  0.00    +0.000 A 
ATOM     26  C   UNL     1       7.059   5.182  14.940  0.00  0.00    +0.000 A 
BRANCH  21  28
ATOM     27  C   UNL     1       7.753   6.948  17.960  0.00  0.00    +0.000 C 
ATOM     28  O   UNL     1       7.631   6.911  16.535  0.00  0.00    +0.000 OA
ENDBRANCH  21  28
BRANCH  25  29
ATOM     29  O   UNL     1       6.214   3.316  13.479  0.00  0.00    +0.000 OA
ATOM     30  C   UNL     1       5.477   3.523  12.285  0.00  0.00    +0.000 C 
ENDBRANCH  25  29
BRANCH  26  31
ATOM     31  O   UNL     1       8.228   5.232  14.231  0.00  0.00    +0.000 OA
ATOM     32  C   UNL     1       8.269   5.788  12.929  0.00  0.00    +0.000 C 
ENDBRANCH  26  31
ENDBRANCH  19  23
ENDBRANCH   1  19
TORSDOF 7
ENDMDL
MODEL 7
REMARK VINA RESULT:      -7.0      0.963      1.272
REMARK  Name = 
REMARK  10 active torsions:
REMARK  status: ('A' for Active; 'I' for Inactive)
REMARK    1  A    between atoms: C_1  and  O_2
REMARK    2  A    between atoms: O_2  and  C_3
REMARK    3  A    between atoms: C_5  and  C_6
REMARK    4  A    between atoms: C_6  and  C_8
REMARK    5  A    between atoms: N_10  and  C_11
REMARK    6  A    between atoms: C_19  and  C_20
REMARK    7  A    between atoms: C_27  and  O_28
REMARK    8  A    between atoms: O_28  and  C_29
REMARK    9  A    between atoms: C_30  and  O_31
REMARK   10  A    between atoms: O_31  and  C_32
REMARK                            x       y       z     vdW  Elec       q    Type
REMARK                         _______ _______ _______ _____ _____    ______ ____
ROOT
ATOM      1  C   UNL     1       2.042   9.120  18.629  0.00  0.00    +0.000 A 
ATOM      2  C   UNL     1       2.689   8.252  17.753  0.00  0.00    +0.000 A 
ATOM      3  N   UNL     1       2.834   7.007  18.332  0.00  0.00    +0.000 N 
ATOM      4  C   UNL     1       2.205   7.064  19.554  0.00  0.00    +0.000 A 
ATOM      5  C   UNL     1       1.724   8.340  19.785  0.00  0.00    +0.000 A 
ENDROOT
BRANCH   3   6
ATOM      6  C   UNL     1       3.543   5.883  17.798  0.00  0.00    +0.000 A 
ATOM      7  C   UNL     1       4.512   6.064  16.797  0.00  0.00    +0.000 A 
ATOM      8  C   UNL     1       5.157   4.967  16.218  0.00  0.00    +0.000 A 
ATOM      9  C   UNL     1       4.838   3.675  16.623  0.00  0.00    +0.000 A 
ATOM     10  C   UNL     1       3.892   3.489  17.626  0.00  0.00    +0.000 A 
ATOM     11 BR   UNL     1       3.439   1.730  18.161  0.00  0.00    +0.000 Br
ATOM     12  C   UNL     1       3.254   4.578  18.227  0.00  0.00    +0.000 A 
ENDBRANCH   3   6
BRANCH   5  13
ATOM     13  C   UNL     1       1.073   8.709  21.037  0.00  0.00    +0.000 A 
ATOM     14  C   UNL     1      -0.316   8.598  21.181  0.00  0.00    +0.000 A 
ATOM     15  C   UNL     1      -0.936   8.926  22.389  0.00  0.00    +0.000 A 
ATOM     16  C   UNL     1      -0.177   9.397  23.457  0.00  0.00    +0.000 A 
ATOM     17  C   UNL     1       1.202   9.536  23.317  0.00  0.00    +0.000 A 
ATOM     18  C   UNL     1       1.827   9.191  22.120  0.00  0.00    +0.000 A 
ENDBRANCH   5  13
BRANCH   1  19
ATOM     19  C   UNL     1       1.710  10.526  18.371  0.00  0.00    +0.000 C 
ATOM     20  O   UNL     1       2.463  11.281  17.765  0.00  0.00    +0.000 OA
BRANCH  19  23
ATOM     21  C   UNL     1      -0.770  12.718  20.204  0.00  0.00    +0.000 A 
ATOM     22  C   UNL     1       0.413  12.037  19.893  0.00  0.00    +0.000 A 
ATOM     23  C   UNL     1       0.432  11.081  18.885  0.00  0.00    +0.000 A 
ATOM     24  C   UNL     1      -0.768  10.656  18.325  0.00  0.00    +0.000 A 
ATOM     25  C   UNL     1      -1.984  11.246  18.699  0.00  0.00    +0.000 A 
ATOM     26  C   UNL     1      -1.997  12.307  19.636  0.00  0.00    +0.000 A 
BRANCH  21  28
ATOM     27  C   UNL     1      -0.681  13.436  22.462  0.00  0.00    +0.000 C 
ATOM     28  O   UNL     1      -0.724  13.779  21.073  0.00  0.00    +0.000 OA
ENDBRANCH  21  28
BRANCH  25  29
ATOM     29  O   UNL     1      -3.034  10.683  18.017  0.00  0.00    +0.000 OA
ATOM     30  C   UNL     1      -2.789   9.925  16.844  0.00  0.00    +0.000 C 
ENDBRANCH  25  29
BRANCH  26  31
ATOM     31  O   UNL     1      -3.225  12.843  19.911  0.00  0.00    +0.000 OA
ATOM     32  C   UNL     1      -3.949  12.457  21.065  0.00  0.00    +0.000 C 
ENDBRANCH  26  31
ENDBRANCH  19  23
ENDBRANCH   1  19
TORSDOF 7
ENDMDL
MODEL 8
REMARK VINA RESULT:      -7.0      2.281      4.890
REMARK  Name = 
REMARK  10 active torsions:
REMARK  status: ('A' for Active; 'I' for Inactive)
REMARK    1  A    between atoms: C_1  and  O_2
REMARK    2  A    between atoms: O_2  and  C_3
REMARK    3  A    between atoms: C_5  and  C_6
REMARK    4  A    between atoms: C_6  and  C_8
REMARK    5  A    between atoms: N_10  and  C_11
REMARK    6  A    between atoms: C_19  and  C_20
REMARK    7  A    between atoms: C_27  and  O_28
REMARK    8  A    between atoms: O_28  and  C_29
REMARK    9  A    between atoms: C_30  and  O_31
REMARK   10  A    between atoms: O_31  and  C_32
REMARK                            x       y       z     vdW  Elec       q    Type
REMARK                         _______ _______ _______ _____ _____    ______ ____
ROOT
ATOM      1  C   UNL     1       0.313  11.318  18.800  0.00  0.00    +0.000 A 
ATOM      2  C   UNL     1       1.449  10.530  18.968  0.00  0.00    +0.000 A 
ATOM      3  N   UNL     1       1.248   9.277  18.423  0.00  0.00    +0.000 N 
ATOM      4  C   UNL     1       0.003   9.298  17.835  0.00  0.00    +0.000 A 
ATOM      5  C   UNL     1      -0.610  10.517  18.058  0.00  0.00    +0.000 A 
ENDROOT
BRANCH   3   6
ATOM      6  C   UNL     1       2.131   8.152  18.492  0.00  0.00    +0.000 A 
ATOM      7  C   UNL     1       3.173   8.009  17.560  0.00  0.00    +0.000 A 
ATOM      8  C   UNL     1       3.994   6.878  17.574  0.00  0.00    +0.000 A 
ATOM      9  C   UNL     1       3.782   5.871  18.510  0.00  0.00    +0.000 A 
ATOM     10  C   UNL     1       2.763   6.014  19.446  0.00  0.00    +0.000 A 
ATOM     11 BR   UNL     1       2.457   4.632  20.703  0.00  0.00    +0.000 Br
ATOM     12  C   UNL     1       1.946   7.149  19.455  0.00  0.00    +0.000 A 
ENDBRANCH   3   6
BRANCH   5  13
ATOM     13  C   UNL     1      -1.971  10.794  17.610  0.00  0.00    +0.000 A 
ATOM     14  C   UNL     1      -2.359  10.520  16.292  0.00  0.00    +0.000 A 
ATOM     15  C   UNL     1      -3.668  10.761  15.869  0.00  0.00    +0.000 A 
ATOM     16  C   UNL     1      -4.597  11.305  16.753  0.00  0.00    +0.000 A 
ATOM     17  C   UNL     1      -4.215  11.605  18.058  0.00  0.00    +0.000 A 
ATOM     18  C   UNL     1      -2.915  11.348  18.489  0.00  0.00    +0.000 A 
ENDBRANCH   5  13
BRANCH   1  19
ATOM     19  C   UNL     1       0.146  12.706  19.248  0.00  0.00    +0.000 C 
ATOM     20  O   UNL     1       0.583  13.661  18.613  0.00  0.00    +0.000 OA
BRANCH  19  23
ATOM     21  C   UNL     1      -2.038  14.343  21.868  0.00  0.00    +0.000 A 
ATOM     22  C   UNL     1      -1.199  14.187  20.758  0.00  0.00    +0.000 A 
ATOM     23  C   UNL     1      -0.547  12.980  20.532  0.00  0.00    +0.000 A 
ATOM     24  C   UNL     1      -0.568  11.998  21.516  0.00  0.00    +0.000 A 
ATOM     25  C   UNL     1      -1.315  12.173  22.690  0.00  0.00    +0.000 A 
ATOM     26  C   UNL     1      -2.081  13.349  22.873  0.00  0.00    +0.000 A 
BRANCH  21  28
ATOM     27  C   UNL     1      -4.013  15.472  21.200  0.00  0.00    +0.000 C 
ATOM     28  O   UNL     1      -2.808  15.475  21.972  0.00  0.00    +0.000 OA
ENDBRANCH  21  28
BRANCH  25  29
ATOM     29  O   UNL     1      -1.202  11.080  23.513  0.00  0.00    +0.000 OA
ATOM     30  C   UNL     1      -0.452   9.953  23.091  0.00  0.00    +0.000 C 
ENDBRANCH  25  29
BRANCH  26  31
ATOM     31  O   UNL     1      -2.805  13.416  24.031  0.00  0.00    +0.000 OA
ATOM     32  C   UNL     1      -4.125  12.908  24.098  0.00  0.00    +0.000 C 
ENDBRANCH  26  31
ENDBRANCH  19  23
ENDBRANCH   1  19
TORSDOF 7
ENDMDL
MODEL 9
REMARK VINA RESULT:      -7.0      1.345      1.793
REMARK  Name = 
REMARK  10 active torsions:
REMARK  status: ('A' for Active; 'I' for Inactive)
REMARK    1  A    between atoms: C_1  and  O_2
REMARK    2  A    between atoms: O_2  and  C_3
REMARK    3  A    between atoms: C_5  and  C_6
REMARK    4  A    between atoms: C_6  and  C_8
REMARK    5  A    between atoms: N_10  and  C_11
REMARK    6  A    between atoms: C_19  and  C_20
REMARK    7  A    between atoms: C_27  and  O_28
REMARK    8  A    between atoms: O_28  and  C_29
REMARK    9  A    between atoms: C_30  and  O_31
REMARK   10  A    between atoms: O_31  and  C_32
REMARK                            x       y       z     vdW  Elec       q    Type
REMARK                         _______ _______ _______ _____ _____    ______ ____
ROOT
ATOM      1  C   UNL     1       1.945   9.093  18.607  0.00  0.00    +0.000 A 
ATOM      2  C   UNL     1       2.523   8.212  17.698  0.00  0.00    +0.000 A 
ATOM      3  N   UNL     1       2.645   6.956  18.259  0.00  0.00    +0.000 N 
ATOM      4  C   UNL     1       2.067   7.023  19.507  0.00  0.00    +0.000 A 
ATOM      5  C   UNL     1       1.644   8.314  19.768  0.00  0.00    +0.000 A 
ENDROOT
BRANCH   3   6
ATOM      6  C   UNL     1       3.290   5.812  17.687  0.00  0.00    +0.000 A 
ATOM      7  C   UNL     1       2.701   4.540  17.789  0.00  0.00    +0.000 A 
ATOM      8  C   UNL     1       3.357   3.407  17.299  0.00  0.00    +0.000 A 
ATOM      9  C   UNL     1       4.611   3.526  16.710  0.00  0.00    +0.000 A 
ATOM     10  C   UNL     1       5.193   4.785  16.590  0.00  0.00    +0.000 A 
ATOM     11 BR   UNL     1       6.911   4.944  15.811  0.00  0.00    +0.000 Br
ATOM     12  C   UNL     1       4.539   5.929  17.059  0.00  0.00    +0.000 A 
ENDBRANCH   3   6
BRANCH   5  13
ATOM     13  C   UNL     1       1.058   8.693  21.049  0.00  0.00    +0.000 A 
ATOM     14  C   UNL     1      -0.329   8.654  21.241  0.00  0.00    +0.000 A 
ATOM     15  C   UNL     1      -0.888   8.992  22.475  0.00  0.00    +0.000 A 
ATOM     16  C   UNL     1      -0.069   9.401  23.523  0.00  0.00    +0.000 A 
ATOM     17  C   UNL     1       1.310   9.468  23.337  0.00  0.00    +0.000 A 
ATOM     18  C   UNL     1       1.874   9.113  22.113  0.00  0.00    +0.000 A 
ENDBRANCH   5  13
BRANCH   1  19
ATOM     19  C   UNL     1       1.655  10.514  18.376  0.00  0.00    +0.000 C 
ATOM     20  O   UNL     1       2.451  11.267  17.824  0.00  0.00    +0.000 OA
BRANCH  19  23
ATOM     21  C   UNL     1      -0.852  12.647  20.241  0.00  0.00    +0.000 A 
ATOM     22  C   UNL     1       0.319  11.937  19.947  0.00  0.00    +0.000 A 
ATOM     23  C   UNL     1       0.369  11.084  18.851  0.00  0.00    +0.000 A 
ATOM     24  C   UNL     1      -0.803  10.781  18.167  0.00  0.00    +0.000 A 
ATOM     25  C   UNL     1      -2.015  11.397  18.511  0.00  0.00    +0.000 A 
ATOM     26  C   UNL     1      -2.050  12.360  19.548  0.00  0.00    +0.000 A 
BRANCH  21  28
ATOM     27  C   UNL     1      -0.734  13.132  22.559  0.00  0.00    +0.000 C 
ATOM     28  O   UNL     1      -0.822  13.615  21.214  0.00  0.00    +0.000 OA
ENDBRANCH  21  28
BRANCH  25  29
ATOM     29  O   UNL     1      -3.035  10.961  17.703  0.00  0.00    +0.000 OA
ATOM     30  C   UNL     1      -3.371   9.584  17.669  0.00  0.00    +0.000 C 
ENDBRANCH  25  29
BRANCH  26  31
ATOM     31  O   UNL     1      -3.268  12.933  19.788  0.00  0.00    +0.000 OA
ATOM     32  C   UNL     1      -4.034  12.573  20.924  0.00  0.00    +0.000 C 
ENDBRANCH  26  31
ENDBRANCH  19  23
ENDBRANCH   1  19
TORSDOF 7
ENDMDL
