MODEL 1
REMARK VINA RESULT:      -7.2      0.000      0.000
REMARK  Name = 
REMARK  1 active torsions:
REMARK  status: ('A' for Active; 'I' for Inactive)
REMARK    1  A    between atoms: N_1  and  C_2
REMARK                            x       y       z     vdW  Elec       q    Type
REMARK                         _______ _______ _______ _____ _____    ______ ____
ROOT
ATOM      1  C   UNL     1       1.860   6.669  20.382  0.00  0.00    +0.000 A 
ATOM      2  C   UNL     1       1.454   5.385  20.801  0.00  0.00    +0.000 A 
ATOM      3  C   UNL     1       1.836   4.242  20.103  0.00  0.00    +0.000 A 
ATOM      4  C   UNL     1       2.660   4.426  19.010  0.00  0.00    +0.000 A 
ATOM      5  C   UNL     1       3.134   5.677  18.578  0.00  0.00    +0.000 A 
ATOM      6  C   UNL     1       2.738   6.804  19.292  0.00  0.00    +0.000 A 
ATOM      7  C   UNL     1       4.020   5.587  17.414  0.00  0.00    +0.000 A 
ATOM      8  C   UNL     1       4.658   6.606  16.720  0.00  0.00    +0.000 A 
ATOM      9  C   UNL     1       5.468   6.281  15.620  0.00  0.00    +0.000 A 
ATOM     10  C   UNL     1       5.644   4.947  15.211  0.00  0.00    +0.000 A 
ATOM     11  C   UNL     1       5.013   3.912  15.894  0.00  0.00    +0.000 A 
ATOM     12  C   UNL     1       4.221   4.265  16.971  0.00  0.00    +0.000 A 
ATOM     13  S   UNL     1       3.316   3.153  17.990  0.00  0.00    +0.000 S 
ATOM     14  O   UNL     1       4.251   2.372  18.768  0.00  0.00    +0.000 OA
ATOM     15  O   UNL     1       2.237   2.588  17.209  0.00  0.00    +0.000 OA
ENDROOT
BRANCH   1  16
ATOM     16  N   UNL     1       1.577   7.778  21.191  0.00  0.00    +0.000 N 
ATOM     17  H   UNL     1       2.219   8.556  21.068  0.00  0.00    +0.000 HD
ATOM     18  H   UNL     1       1.426   7.556  22.169  0.00  0.00    +0.000 HD
ENDBRANCH   1  16
TORSDOF 1
ENDMDL
MODEL 2
REMARK VINA RESULT:      -7.1      2.103      4.598
REMARK  Name = 
REMARK  1 active torsions:
REMARK  status: ('A' for Active; 'I' for Inactive)
REMARK    1  A    between atoms: N_1  and  C_2
REMARK                            x       y       z     vdW  Elec       q    Type
REMARK                         _______ _______ _______ _____ _____    ______ ____
ROOT
ATOM      1  C   UNL     1       6.531   5.800  16.910  0.00  0.00    +0.000 A 
ATOM      2  C   UNL     1       6.505   4.657  16.083  0.00  0.00    +0.000 A 
ATOM      3  C   UNL     1       5.525   3.678  16.235  0.00  0.00    +0.000 A 
ATOM      4  C   UNL     1       4.566   3.902  17.202  0.00  0.00    +0.000 A 
ATOM      5  C   UNL     1       4.516   5.044  18.018  0.00  0.00    +0.000 A 
ATOM      6  C   UNL     1       5.505   6.008  17.848  0.00  0.00    +0.000 A 
ATOM      7  C   UNL     1       3.374   5.047  18.938  0.00  0.00    +0.000 A 
ATOM      8  C   UNL     1       3.016   5.998  19.885  0.00  0.00    +0.000 A 
ATOM      9  C   UNL     1       1.868   5.787  20.665  0.00  0.00    +0.000 A 
ATOM     10  C   UNL     1       1.077   4.635  20.504  0.00  0.00    +0.000 A 
ATOM     11  C   UNL     1       1.419   3.671  19.560  0.00  0.00    +0.000 A 
ATOM     12  C   UNL     1       2.556   3.908  18.809  0.00  0.00    +0.000 A 
ATOM     13  S   UNL     1       3.204   2.850  17.564  0.00  0.00    +0.000 S 
ATOM     14  O   UNL     1       2.301   2.856  16.434  0.00  0.00    +0.000 OA
ATOM     15  O   UNL     1       3.706   1.648  18.195  0.00  0.00    +0.000 OA
ENDROOT
BRANCH   1  16
ATOM     16  N   UNL     1       7.442   6.829  16.632  0.00  0.00    +0.000 N 
ATOM     17  H   UNL     1       7.397   7.609  17.281  0.00  0.00    +0.000 HD
ATOM     18  H   UNL     1       7.446   7.135  15.664  0.00  0.00    +0.000 HD
ENDBRANCH   1  16
TORSDOF 1
ENDMDL
MODEL 3
REMARK VINA RESULT:      -6.9      1.897      4.196
REMARK  Name = 
REMARK  1 active torsions:
REMARK  status: ('A' for Active; 'I' for Inactive)
REMARK    1  A    between atoms: N_1  and  C_2
REMARK                            x       y       z     vdW  Elec       q    Type
REMARK                         _______ _______ _______ _____ _____    ______ ____
ROOT
ATOM      1  C   UNL     1       2.686   8.127  18.003  0.00  0.00    +0.000 A 
ATOM      2  C   UNL     1       3.756   7.873  17.121  0.00  0.00    +0.000 A 
ATOM      3  C   UNL     1       4.483   6.685  17.189  0.00  0.00    +0.000 A 
ATOM      4  C   UNL     1       4.078   5.762  18.132  0.00  0.00    +0.000 A 
ATOM      5  C   UNL     1       2.989   5.944  19.002  0.00  0.00    +0.000 A 
ATOM      6  C   UNL     1       2.279   7.137  18.915  0.00  0.00    +0.000 A 
ATOM      7  C   UNL     1       2.755   4.793  19.880  0.00  0.00    +0.000 A 
ATOM      8  C   UNL     1       1.785   4.625  20.860  0.00  0.00    +0.000 A 
ATOM      9  C   UNL     1       1.751   3.424  21.588  0.00  0.00    +0.000 A 
ATOM     10  C   UNL     1       2.676   2.395  21.343  0.00  0.00    +0.000 A 
ATOM     11  C   UNL     1       3.655   2.545  20.365  0.00  0.00    +0.000 A 
ATOM     12  C   UNL     1       3.663   3.739  19.667  0.00  0.00    +0.000 A 
ATOM     13  S   UNL     1       4.793   4.177  18.393  0.00  0.00    +0.000 S 
ATOM     14  O   UNL     1       4.529   3.353  17.235  0.00  0.00    +0.000 OA
ATOM     15  O   UNL     1       6.104   4.355  18.982  0.00  0.00    +0.000 OA
ENDROOT
BRANCH   1  16
ATOM     16  N   UNL     1       1.890   9.265  17.808  0.00  0.00    +0.000 N 
ATOM     17  H   UNL     1       0.893   9.072  17.769  0.00  0.00    +0.000 HD
ATOM     18  H   UNL     1       2.195   9.865  17.049  0.00  0.00    +0.000 HD
ENDBRANCH   1  16
TORSDOF 1
ENDMDL
MODEL 4
REMARK VINA RESULT:      -6.9      0.981      1.075
REMARK  Name = 
REMARK  1 active torsions:
REMARK  status: ('A' for Active; 'I' for Inactive)
REMARK    1  A    between atoms: N_1  and  C_2
REMARK                            x       y       z     vdW  Elec       q    Type
REMARK                         _______ _______ _______ _____ _____    ______ ____
ROOT
ATOM      1  C   UNL     1       2.130   7.349  19.395  0.00  0.00    +0.000 A 
ATOM      2  C   UNL     1       1.920   6.297  20.312  0.00  0.00    +0.000 A 
ATOM      3  C   UNL     1       2.492   5.041  20.115  0.00  0.00    +0.000 A 
ATOM      4  C   UNL     1       3.300   4.893  19.006  0.00  0.00    +0.000 A 
ATOM      5  C   UNL     1       3.582   5.920  18.089  0.00  0.00    +0.000 A 
ATOM      6  C   UNL     1       3.000   7.164  18.306  0.00  0.00    +0.000 A 
ATOM      7  C   UNL     1       4.497   5.504  17.021  0.00  0.00    +0.000 A 
ATOM      8  C   UNL     1       4.983   6.242  15.949  0.00  0.00    +0.000 A 
ATOM      9  C   UNL     1       5.858   5.628  15.038  0.00  0.00    +0.000 A 
ATOM     10  C   UNL     1       6.249   4.286  15.192  0.00  0.00    +0.000 A 
ATOM     11  C   UNL     1       5.773   3.531  16.259  0.00  0.00    +0.000 A 
ATOM     12  C   UNL     1       4.912   4.163  17.138  0.00  0.00    +0.000 A 
ATOM     13  S   UNL     1       4.170   3.433  18.554  0.00  0.00    +0.000 S 
ATOM     14  O   UNL     1       5.199   3.184  19.540  0.00  0.00    +0.000 OA
ATOM     15  O   UNL     1       3.210   2.444  18.114  0.00  0.00    +0.000 OA
ENDROOT
BRANCH   1  16
ATOM     16  N   UNL     1       1.659   8.633  19.703  0.00  0.00    +0.000 N 
ATOM     17  H   UNL     1       0.929   8.967  19.080  0.00  0.00    +0.000 HD
ATOM     18  H   UNL     1       2.388   9.324  19.845  0.00  0.00    +0.000 HD
ENDBRANCH   1  16
TORSDOF 1
ENDMDL
MODEL 5
REMARK VINA RESULT:      -6.8      3.105      5.301
REMARK  Name = 
REMARK  1 active torsions:
REMARK  status: ('A' for Active; 'I' for Inactive)
REMARK    1  A    between atoms: N_1  and  C_2
REMARK                            x       y       z     vdW  Elec       q    Type
REMARK                         _______ _______ _______ _____ _____    ______ ____
ROOT
ATOM      1  C   UNL     1       5.552   4.282  15.183  0.00  0.00    +0.000 A 
ATOM      2  C   UNL     1       5.839   5.617  15.537  0.00  0.00    +0.000 A 
ATOM      3  C   UNL     1       5.139   6.262  16.555  0.00  0.00    +0.000 A 
ATOM      4  C   UNL     1       4.184   5.518  17.220  0.00  0.00    +0.000 A 
ATOM      5  C   UNL     1       3.892   4.172  16.942  0.00  0.00    +0.000 A 
ATOM      6  C   UNL     1       4.605   3.550  15.921  0.00  0.00    +0.000 A 
ATOM      7  C   UNL     1       2.861   3.612  17.819  0.00  0.00    +0.000 A 
ATOM      8  C   UNL     1       2.320   2.333  17.828  0.00  0.00    +0.000 A 
ATOM      9  C   UNL     1       1.328   2.017  18.770  0.00  0.00    +0.000 A 
ATOM     10  C   UNL     1       0.874   2.968  19.701  0.00  0.00    +0.000 A 
ATOM     11  C   UNL     1       1.404   4.256  19.708  0.00  0.00    +0.000 A 
ATOM     12  C   UNL     1       2.378   4.536  18.767  0.00  0.00    +0.000 A 
ATOM     13  S   UNL     1       3.196   6.078  18.564  0.00  0.00    +0.000 S 
ATOM     14  O   UNL     1       4.054   6.302  19.706  0.00  0.00    +0.000 OA
ATOM     15  O   UNL     1       2.242   7.044  18.062  0.00  0.00    +0.000 OA
ENDROOT
BRANCH   1  16
ATOM     16  N   UNL     1       6.374   3.624  14.257  0.00  0.00    +0.000 N 
ATOM     17  H   UNL     1       6.119   3.787  13.287  0.00  0.00    +0.000 HD
ATOM     18  H   UNL     1       6.524   2.640  14.454  0.00  0.00    +0.000 HD
ENDBRANCH   1  16
TORSDOF 1
ENDMDL
MODEL 6
REMARK VINA RESULT:      -6.6      3.021      5.201
REMARK  Name = 
REMARK  1 active torsions:
REMARK  status: ('A' for Active; 'I' for Inactive)
REMARK    1  A    between atoms: N_1  and  C_2
REMARK                            x       y       z     vdW  Elec       q    Type
REMARK                         _______ _______ _______ _____ _____    ______ ____
ROOT
ATOM      1  C   UNL     1       6.483   4.735  17.263  0.00  0.00    +0.000 A 
ATOM      2  C   UNL     1       5.965   5.919  16.700  0.00  0.00    +0.000 A 
ATOM      3  C   UNL     1       4.700   6.392  17.047  0.00  0.00    +0.000 A 
ATOM      4  C   UNL     1       4.003   5.667  17.993  0.00  0.00    +0.000 A 
ATOM      5  C   UNL     1       4.492   4.509  18.622  0.00  0.00    +0.000 A 
ATOM      6  C   UNL     1       5.757   4.057  18.258  0.00  0.00    +0.000 A 
ATOM      7  C   UNL     1       3.565   3.955  19.612  0.00  0.00    +0.000 A 
ATOM      8  C   UNL     1       3.707   2.827  20.410  0.00  0.00    +0.000 A 
ATOM      9  C   UNL     1       2.675   2.481  21.296  0.00  0.00    +0.000 A 
ATOM     10  C   UNL     1       1.504   3.255  21.391  0.00  0.00    +0.000 A 
ATOM     11  C   UNL     1       1.343   4.389  20.601  0.00  0.00    +0.000 A 
ATOM     12  C   UNL     1       2.377   4.701  19.737  0.00  0.00    +0.000 A 
ATOM     13  S   UNL     1       2.416   6.070  18.634  0.00  0.00    +0.000 S 
ATOM     14  O   UNL     1       2.524   7.286  19.408  0.00  0.00    +0.000 OA
ATOM     15  O   UNL     1       1.432   5.852  17.595  0.00  0.00    +0.000 OA
ENDROOT
BRANCH   1  16
ATOM     16  N   UNL     1       7.811   4.372  17.000  0.00  0.00    +0.000 N 
ATOM     17  H   UNL     1       8.497   5.051  17.316  0.00  0.00    +0.000 HD
ATOM     18  H   UNL     1       7.982   4.070  16.046  0.00  0.00    +0.000 HD
ENDBRANCH   1  16
TORSDOF 1
ENDMDL
MODEL 7
REMARK VINA RESULT:      -6.6      3.054      3.901
REMARK  Name = 
REMARK  1 active torsions:
REMARK  status: ('A' for Active; 'I' for Inactive)
REMARK    1  A    between atoms: N_1  and  C_2
REMARK                            x       y       z     vdW  Elec       q    Type
REMARK                         _______ _______ _______ _____ _____    ______ ____
ROOT
ATOM      1  C   UNL     1       3.137   4.061  18.414  0.00  0.00    +0.000 A 
ATOM      2  C   UNL     1       4.017   4.653  19.344  0.00  0.00    +0.000 A 
ATOM      3  C   UNL     1       5.303   5.043  18.975  0.00  0.00    +0.000 A 
ATOM      4  C   UNL     1       5.655   4.856  17.653  0.00  0.00    +0.000 A 
ATOM      5  C   UNL     1       4.801   4.317  16.676  0.00  0.00    +0.000 A 
ATOM      6  C   UNL     1       3.522   3.936  17.068  0.00  0.00    +0.000 A 
ATOM      7  C   UNL     1       5.412   4.261  15.344  0.00  0.00    +0.000 A 
ATOM      8  C   UNL     1       4.875   3.786  14.154  0.00  0.00    +0.000 A 
ATOM      9  C   UNL     1       5.654   3.830  12.987  0.00  0.00    +0.000 A 
ATOM     10  C   UNL     1       6.963   4.343  13.001  0.00  0.00    +0.000 A 
ATOM     11  C   UNL     1       7.519   4.824  14.184  0.00  0.00    +0.000 A 
ATOM     12  C   UNL     1       6.726   4.766  15.316  0.00  0.00    +0.000 A 
ATOM     13  S   UNL     1       7.193   5.299  16.925  0.00  0.00    +0.000 S 
ATOM     14  O   UNL     1       7.305   6.740  16.921  0.00  0.00    +0.000 OA
ATOM     15  O   UNL     1       8.214   4.406  17.428  0.00  0.00    +0.000 OA
ENDROOT
BRANCH   1  16
ATOM     16  N   UNL     1       1.807   3.818  18.785  0.00  0.00    +0.000 N 
ATOM     17  H   UNL     1       1.158   4.546  18.502  0.00  0.00    +0.000 HD
ATOM     18  H   UNL     1       1.685   3.551  19.756  0.00  0.00    +0.000 HD
ENDBRANCH   1  16
TORSDOF 1
ENDMDL
MODEL 8
REMARK VINA RESULT:      -6.6      2.221      3.238
REMARK  Name = 
REMARK  1 active torsions:
REMARK  status: ('A' for Active; 'I' for Inactive)
REMARK    1  A    between atoms: N_1  and  C_2
REMARK                            x       y       z     vdW  Elec       q    Type
REMARK                         _______ _______ _______ _____ _____    ______ ____
ROOT
ATOM      1  C   UNL     1       2.191   2.946  21.319  0.00  0.00    +0.000 A 
ATOM      2  C   UNL     1       3.273   2.094  21.011  0.00  0.00    +0.000 A 
ATOM      3  C   UNL     1       4.211   2.438  20.040  0.00  0.00    +0.000 A 
ATOM      4  C   UNL     1       4.050   3.665  19.427  0.00  0.00    +0.000 A 
ATOM      5  C   UNL     1       3.020   4.572  19.729  0.00  0.00    +0.000 A 
ATOM      6  C   UNL     1       2.096   4.206  20.702  0.00  0.00    +0.000 A 
ATOM      7  C   UNL     1       3.102   5.815  18.956  0.00  0.00    +0.000 A 
ATOM      8  C   UNL     1       2.260   6.919  18.984  0.00  0.00    +0.000 A 
ATOM      9  C   UNL     1       2.535   8.010  18.143  0.00  0.00    +0.000 A 
ATOM     10  C   UNL     1       3.643   8.004  17.278  0.00  0.00    +0.000 A 
ATOM     11  C   UNL     1       4.498   6.907  17.236  0.00  0.00    +0.000 A 
ATOM     12  C   UNL     1       4.199   5.849  18.074  0.00  0.00    +0.000 A 
ATOM     13  S   UNL     1       5.113   4.352  18.206  0.00  0.00    +0.000 S 
ATOM     14  O   UNL     1       6.392   4.642  18.816  0.00  0.00    +0.000 OA
ATOM     15  O   UNL     1       4.949   3.603  16.979  0.00  0.00    +0.000 OA
ENDROOT
BRANCH   1  16
ATOM     16  N   UNL     1       1.355   2.633  22.399  0.00  0.00    +0.000 N 
ATOM     17  H   UNL     1       0.977   1.690  22.372  0.00  0.00    +0.000 HD
ATOM     18  H   UNL     1       0.640   3.327  22.591  0.00  0.00    +0.000 HD
ENDBRANCH   1  16
TORSDOF 1
ENDMDL
MODEL 9
REMARK VINA RESULT:      -6.5      3.447      5.571
REMARK  Name = 
REMARK  1 active torsions:
REMARK  status: ('A' for Active; 'I' for Inactive)
REMARK    1  A    between atoms: N_1  and  C_2
REMARK                            x       y       z     vdW  Elec       q    Type
REMARK                         _______ _______ _______ _____ _____    ______ ____
ROOT
ATOM      1  C   UNL     1       6.121   4.000  14.243  0.00  0.00    +0.000 A 
ATOM      2  C   UNL     1       7.165   4.758  14.813  0.00  0.00    +0.000 A 
ATOM      3  C   UNL     1       7.066   5.266  16.107  0.00  0.00    +0.000 A 
ATOM      4  C   UNL     1       5.919   4.957  16.811  0.00  0.00    +0.000 A 
ATOM      5  C   UNL     1       4.872   4.166  16.309  0.00  0.00    +0.000 A 
ATOM      6  C   UNL     1       4.993   3.671  15.015  0.00  0.00    +0.000 A 
ATOM      7  C   UNL     1       3.788   3.965  17.276  0.00  0.00    +0.000 A 
ATOM      8  C   UNL     1       2.603   3.255  17.126  0.00  0.00    +0.000 A 
ATOM      9  C   UNL     1       1.700   3.199  18.200  0.00  0.00    +0.000 A 
ATOM     10  C   UNL     1       1.973   3.845  19.418  0.00  0.00    +0.000 A 
ATOM     11  C   UNL     1       3.155   4.561  19.588  0.00  0.00    +0.000 A 
ATOM     12  C   UNL     1       4.022   4.598  18.511  0.00  0.00    +0.000 A 
ATOM     13  S   UNL     1       5.568   5.434  18.466  0.00  0.00    +0.000 S 
ATOM     14  O   UNL     1       6.489   4.754  19.350  0.00  0.00    +0.000 OA
ATOM     15  O   UNL     1       5.322   6.860  18.491  0.00  0.00    +0.000 OA
ENDROOT
BRANCH   1  16
ATOM     16  N   UNL     1       6.317   3.386  12.998  0.00  0.00    +0.000 N 
ATOM     17  H   UNL     1       7.196   2.884  12.917  0.00  0.00    +0.000 HD
ATOM     18  H   UNL     1       6.146   3.991  12.201  0.00  0.00    +0.000 HD
ENDBRANCH   1  16
TORSDOF 1
ENDMDL
