MODEL 1
REMARK VINA RESULT:      -7.2      0.000      0.000
REMARK  Name = 
REMARK  8 active torsions:
REMARK  status: ('A' for Active; 'I' for Inactive)
REMARK    1  A    between atoms: C_1  and  C_2
REMARK    2  A    between atoms: C_2  and  O_3
REMARK    3  A    between atoms: O_3  and  C_4
REMARK    4  A    between atoms: C_4  and  C_6
REMARK    5  A    between atoms: C_7  and  N_8
REMARK    6  A    between atoms: C_10  and  C_11
REMARK    7  A    between atoms: N_13  and  C_14
REMARK    8  A    between atoms: C_21  and  C_22
REMARK                            x       y       z     vdW  Elec       q    Type
REMARK                         _______ _______ _______ _____ _____    ______ ____
ROOT
ATOM      1  C   UNL     1       5.249   4.870  17.763  0.00  0.00    +0.000 A 
ATOM      2  C   UNL     1       4.780   4.124  18.831  0.00  0.00    +0.000 A 
ATOM      3  S   UNL     1       3.455   4.858  19.592  0.00  0.00    +0.000 S 
ATOM      4  C   UNL     1       3.463   6.212  18.536  0.00  0.00    +0.000 A 
ATOM      5  C   UNL     1       4.473   6.097  17.585  0.00  0.00    +0.000 A 
ATOM      6  C   UNL     1       4.752   7.070  16.473  0.00  0.00    +0.000 C 
ENDROOT
BRANCH   4   7
ATOM      7  C   UNL     1       2.458   7.275  18.715  0.00  0.00    +0.000 C 
ATOM      8  O   UNL     1       1.925   7.845  17.769  0.00  0.00    +0.000 OA
ATOM      9  N   UNL     1       2.200   7.588  20.044  0.00  0.00    +0.000 N 
ATOM     10  H   UNL     1       2.770   7.088  20.713  0.00  0.00    +0.000 HD
BRANCH   9  11
ATOM     11  C   UNL     1       1.338   8.567  20.562  0.00  0.00    +0.000 A 
ATOM     12  C   UNL     1       1.245   9.869  20.069  0.00  0.00    +0.000 A 
ATOM     13  C   UNL     1       0.388  10.795  20.675  0.00  0.00    +0.000 A 
ATOM     14  C   UNL     1      -0.374  10.418  21.778  0.00  0.00    +0.000 A 
ATOM     15 BR   UNL     1      -1.494  11.682  22.625  0.00  0.00    +0.000 Br
ATOM     16  C   UNL     1      -0.309   9.115  22.265  0.00  0.00    +0.000 A 
ATOM     17  C   UNL     1       0.538   8.191  21.650  0.00  0.00    +0.000 A 
ENDBRANCH   9  11
ENDBRANCH   4   7
BRANCH   2  18
ATOM     18  N   UNL     1       5.233   2.938  19.300  0.00  0.00    +0.000 N 
ATOM     19  H   UNL     1       5.328   2.158  18.651  0.00  0.00    +0.000 HD
ATOM     20  H   UNL     1       4.967   2.651  20.237  0.00  0.00    +0.000 HD
ENDBRANCH   2  18
BRANCH   1  21
ATOM     21  C   UNL     1       6.352   4.451  16.889  0.00  0.00    +0.000 C 
ATOM     22  O   UNL     1       7.534   4.638  17.153  0.00  0.00    +0.000 OA
BRANCH  21  23
ATOM     23  O   UNL     1       5.913   3.951  15.693  0.00  0.00    +0.000 OA
BRANCH  23  25
ATOM     24  C   UNL     1       6.031   3.760  13.307  0.00  0.00    +0.000 C 
ATOM     25  C   UNL     1       6.639   4.400  14.544  0.00  0.00    +0.000 C 
ENDBRANCH  23  25
ENDBRANCH  21  23
ENDBRANCH   1  21
TORSDOF 6
ENDMDL
MODEL 2
REMARK VINA RESULT:      -7.1      0.558      1.116
REMARK  Name = 
REMARK  8 active torsions:
REMARK  status: ('A' for Active; 'I' for Inactive)
REMARK    1  A    between atoms: C_1  and  C_2
REMARK    2  A    between atoms: C_2  and  O_3
REMARK    3  A    between atoms: O_3  and  C_4
REMARK    4  A    between atoms: C_4  and  C_6
REMARK    5  A    between atoms: C_7  and  N_8
REMARK    6  A    between atoms: C_10  and  C_11
REMARK    7  A    between atoms: N_13  and  C_14
REMARK    8  A    between atoms: C_21  and  C_22
REMARK                            x       y       z     vdW  Elec       q    Type
REMARK                         _______ _______ _______ _____ _____    ______ ____
ROOT
ATOM      1  C   UNL     1       5.260   4.709  18.252  0.00  0.00    +0.000 A 
ATOM      2  C   UNL     1       4.598   3.901  19.160  0.00  0.00    +0.000 A 
ATOM      3  S   UNL     1       3.198   4.637  19.770  0.00  0.00    +0.000 S 
ATOM      4  C   UNL     1       3.428   6.074  18.858  0.00  0.00    +0.000 A 
ATOM      5  C   UNL     1       4.572   5.986  18.070  0.00  0.00    +0.000 A 
ATOM      6  C   UNL     1       5.063   7.034  17.109  0.00  0.00    +0.000 C 
ENDROOT
BRANCH   4   7
ATOM      7  C   UNL     1       2.449   7.169  18.974  0.00  0.00    +0.000 C 
ATOM      8  O   UNL     1       1.952   7.717  17.997  0.00  0.00    +0.000 OA
ATOM      9  N   UNL     1       2.173   7.540  20.285  0.00  0.00    +0.000 N 
ATOM     10  H   UNL     1       2.714   7.050  20.985  0.00  0.00    +0.000 HD
BRANCH   9  11
ATOM     11  C   UNL     1       1.328   8.561  20.747  0.00  0.00    +0.000 A 
ATOM     12  C   UNL     1       0.839   8.643  22.052  0.00  0.00    +0.000 A 
ATOM     13  C   UNL     1      -0.035   9.674  22.415  0.00  0.00    +0.000 A 
ATOM     14  C   UNL     1      -0.421  10.622  21.472  0.00  0.00    +0.000 A 
ATOM     15 BR   UNL     1      -1.639  11.985  21.953  0.00  0.00    +0.000 Br
ATOM     16  C   UNL     1       0.078  10.567  20.174  0.00  0.00    +0.000 A 
ATOM     17  C   UNL     1       0.959   9.544  19.818  0.00  0.00    +0.000 A 
ENDBRANCH   9  11
ENDBRANCH   4   7
BRANCH   2  18
ATOM     18  N   UNL     1       4.924   2.658  19.583  0.00  0.00    +0.000 N 
ATOM     19  H   UNL     1       4.746   2.409  20.555  0.00  0.00    +0.000 HD
ATOM     20  H   UNL     1       5.754   2.214  19.200  0.00  0.00    +0.000 HD
ENDBRANCH   2  18
BRANCH   1  21
ATOM     21  C   UNL     1       6.472   4.308  17.526  0.00  0.00    +0.000 C 
ATOM     22  O   UNL     1       7.606   4.470  17.960  0.00  0.00    +0.000 OA
BRANCH  21  23
ATOM     23  O   UNL     1       6.201   3.858  16.262  0.00  0.00    +0.000 OA
BRANCH  23  25
ATOM     24  C   UNL     1       6.276   4.170  13.887  0.00  0.00    +0.000 C 
ATOM     25  C   UNL     1       6.931   4.508  15.216  0.00  0.00    +0.000 C 
ENDBRANCH  23  25
ENDBRANCH  21  23
ENDBRANCH   1  21
TORSDOF 6
ENDMDL
MODEL 3
REMARK VINA RESULT:      -7.1      1.665      2.227
REMARK  Name = 
REMARK  8 active torsions:
REMARK  status: ('A' for Active; 'I' for Inactive)
REMARK    1  A    between atoms: C_1  and  C_2
REMARK    2  A    between atoms: C_2  and  O_3
REMARK    3  A    between atoms: O_3  and  C_4
REMARK    4  A    between atoms: C_4  and  C_6
REMARK    5  A    between atoms: C_7  and  N_8
REMARK    6  A    between atoms: C_10  and  C_11
REMARK    7  A    between atoms: N_13  and  C_14
REMARK    8  A    between atoms: C_21  and  C_22
REMARK                            x       y       z     vdW  Elec       q    Type
REMARK                         _______ _______ _______ _____ _____    ______ ____
ROOT
ATOM      1  C   UNL     1       4.660   5.715  17.698  0.00  0.00    +0.000 A 
ATOM      2  C   UNL     1       4.839   4.632  18.541  0.00  0.00    +0.000 A 
ATOM      3  S   UNL     1       3.776   4.665  19.861  0.00  0.00    +0.000 S 
ATOM      4  C   UNL     1       3.042   6.138  19.368  0.00  0.00    +0.000 A 
ATOM      5  C   UNL     1       3.600   6.600  18.180  0.00  0.00    +0.000 A 
ATOM      6  C   UNL     1       3.179   7.833  17.429  0.00  0.00    +0.000 C 
ENDROOT
BRANCH   4   7
ATOM      7  C   UNL     1       1.956   6.713  20.182  0.00  0.00    +0.000 C 
ATOM      8  O   UNL     1       1.162   6.020  20.808  0.00  0.00    +0.000 OA
ATOM      9  N   UNL     1       1.900   8.101  20.145  0.00  0.00    +0.000 N 
ATOM     10  H   UNL     1       2.573   8.534  19.526  0.00  0.00    +0.000 HD
BRANCH   9  11
ATOM     11  C   UNL     1       0.977   8.958  20.766  0.00  0.00    +0.000 A 
ATOM     12  C   UNL     1       0.143   9.840  20.079  0.00  0.00    +0.000 A 
ATOM     13  C   UNL     1      -0.718  10.691  20.782  0.00  0.00    +0.000 A 
ATOM     14  C   UNL     1      -0.742  10.660  22.174  0.00  0.00    +0.000 A 
ATOM     15 BR   UNL     1      -1.869  11.843  23.123  0.00  0.00    +0.000 Br
ATOM     16  C   UNL     1       0.068   9.767  22.871  0.00  0.00    +0.000 A 
ATOM     17  C   UNL     1       0.916   8.911  22.165  0.00  0.00    +0.000 A 
ENDBRANCH   9  11
ENDBRANCH   4   7
BRANCH   2  18
ATOM     18  N   UNL     1       5.714   3.607  18.429  0.00  0.00    +0.000 N 
ATOM     19  H   UNL     1       6.257   3.334  19.247  0.00  0.00    +0.000 HD
ATOM     20  H   UNL     1       6.219   3.490  17.554  0.00  0.00    +0.000 HD
ENDBRANCH   2  18
BRANCH   1  21
ATOM     21  C   UNL     1       5.405   5.916  16.449  0.00  0.00    +0.000 C 
ATOM     22  O   UNL     1       5.372   5.133  15.507  0.00  0.00    +0.000 OA
BRANCH  21  23
ATOM     23  O   UNL     1       6.238   7.001  16.503  0.00  0.00    +0.000 OA
BRANCH  23  25
ATOM     24  C   UNL     1       7.904   8.222  17.718  0.00  0.00    +0.000 C 
ATOM     25  C   UNL     1       7.386   6.843  17.344  0.00  0.00    +0.000 C 
ENDBRANCH  23  25
ENDBRANCH  21  23
ENDBRANCH   1  21
TORSDOF 6
ENDMDL
MODEL 4
REMARK VINA RESULT:      -6.9      1.633      2.305
REMARK  Name = 
REMARK  8 active torsions:
REMARK  status: ('A' for Active; 'I' for Inactive)
REMARK    1  A    between atoms: C_1  and  C_2
REMARK    2  A    between atoms: C_2  and  O_3
REMARK    3  A    between atoms: O_3  and  C_4
REMARK    4  A    between atoms: C_4  and  C_6
REMARK    5  A    between atoms: C_7  and  N_8
REMARK    6  A    between atoms: C_10  and  C_11
REMARK    7  A    between atoms: N_13  and  C_14
REMARK    8  A    between atoms: C_21  and  C_22
REMARK                            x       y       z     vdW  Elec       q    Type
REMARK                         _______ _______ _______ _____ _____    ______ ____
ROOT
ATOM      1  C   UNL     1       4.176   4.791  18.627  0.00  0.00    +0.000 A 
ATOM      2  C   UNL     1       3.528   4.124  19.653  0.00  0.00    +0.000 A 
ATOM      3  S   UNL     1       2.370   5.097  20.418  0.00  0.00    +0.000 S 
ATOM      4  C   UNL     1       2.696   6.456  19.421  0.00  0.00    +0.000 A 
ATOM      5  C   UNL     1       3.685   6.162  18.486  0.00  0.00    +0.000 A 
ATOM      6  C   UNL     1       4.196   7.093  17.421  0.00  0.00    +0.000 C 
ENDROOT
BRANCH   4   7
ATOM      7  C   UNL     1       1.936   7.702  19.624  0.00  0.00    +0.000 C 
ATOM      8  O   UNL     1       1.717   8.496  18.716  0.00  0.00    +0.000 OA
ATOM      9  N   UNL     1       1.526   7.903  20.935  0.00  0.00    +0.000 N 
ATOM     10  H   UNL     1       1.844   7.201  21.590  0.00  0.00    +0.000 HD
BRANCH   9  11
ATOM     11  C   UNL     1       0.825   8.992  21.477  0.00  0.00    +0.000 A 
ATOM     12  C   UNL     1       0.091   8.940  22.663  0.00  0.00    +0.000 A 
ATOM     13  C   UNL     1      -0.614  10.064  23.108  0.00  0.00    +0.000 A 
ATOM     14  C   UNL     1      -0.586  11.241  22.364  0.00  0.00    +0.000 A 
ATOM     15 BR   UNL     1      -1.578  12.742  22.942  0.00  0.00    +0.000 Br
ATOM     16  C   UNL     1       0.162  11.314  21.193  0.00  0.00    +0.000 A 
ATOM     17  C   UNL     1       0.874  10.194  20.759  0.00  0.00    +0.000 A 
ENDBRANCH   9  11
ENDBRANCH   4   7
BRANCH   2  18
ATOM     18  N   UNL     1       3.706   2.853  20.081  0.00  0.00    +0.000 N 
ATOM     19  H   UNL     1       2.927   2.376  20.534  0.00  0.00    +0.000 HD
ATOM     20  H   UNL     1       4.613   2.586  20.454  0.00  0.00    +0.000 HD
ENDBRANCH   2  18
BRANCH   1  21
ATOM     21  C   UNL     1       5.188   4.179  17.758  0.00  0.00    +0.000 C 
ATOM     22  O   UNL     1       4.948   3.756  16.633  0.00  0.00    +0.000 OA
BRANCH  21  23
ATOM     23  O   UNL     1       6.391   4.013  18.389  0.00  0.00    +0.000 OA
BRANCH  23  25
ATOM     24  C   UNL     1       7.684   5.959  18.921  0.00  0.00    +0.000 C 
ATOM     25  C   UNL     1       7.449   4.850  17.909  0.00  0.00    +0.000 C 
ENDBRANCH  23  25
ENDBRANCH  21  23
ENDBRANCH   1  21
TORSDOF 6
ENDMDL
MODEL 5
REMARK VINA RESULT:      -6.9      2.343      3.212
REMARK  Name = 
REMARK  8 active torsions:
REMARK  status: ('A' for Active; 'I' for Inactive)
REMARK    1  A    between atoms: C_1  and  C_2
REMARK    2  A    between atoms: C_2  and  O_3
REMARK    3  A    between atoms: O_3  and  C_4
REMARK    4  A    between atoms: C_4  and  C_6
REMARK    5  A    between atoms: C_7  and  N_8
REMARK    6  A    between atoms: C_10  and  C_11
REMARK    7  A    between atoms: N_13  and  C_14
REMARK    8  A    between atoms: C_21  and  C_22
REMARK                            x       y       z     vdW  Elec       q    Type
REMARK                         _______ _______ _______ _____ _____    ______ ____
ROOT
ATOM      1  C   UNL     1       3.857   4.257  19.269  0.00  0.00    +0.000 A 
ATOM      2  C   UNL     1       4.634   4.768  18.243  0.00  0.00    +0.000 A 
ATOM      3  S   UNL     1       4.209   6.362  17.851  0.00  0.00    +0.000 S 
ATOM      4  C   UNL     1       2.958   6.430  19.026  0.00  0.00    +0.000 A 
ATOM      5  C   UNL     1       2.873   5.234  19.734  0.00  0.00    +0.000 A 
ATOM      6  C   UNL     1       1.927   4.945  20.867  0.00  0.00    +0.000 C 
ENDROOT
BRANCH   4   7
ATOM      7  C   UNL     1       2.170   7.666  19.173  0.00  0.00    +0.000 C 
ATOM      8  O   UNL     1       1.942   8.419  18.232  0.00  0.00    +0.000 OA
ATOM      9  N   UNL     1       1.743   7.911  20.472  0.00  0.00    +0.000 N 
ATOM     10  H   UNL     1       2.070   7.242  21.156  0.00  0.00    +0.000 HD
BRANCH   9  11
ATOM     11  C   UNL     1       1.014   9.005  20.964  0.00  0.00    +0.000 A 
ATOM     12  C   UNL     1       1.016  10.273  20.381  0.00  0.00    +0.000 A 
ATOM     13  C   UNL     1       0.293  11.319  20.965  0.00  0.00    +0.000 A 
ATOM     14  C   UNL     1      -0.430  11.098  22.134  0.00  0.00    +0.000 A 
ATOM     15 BR   UNL     1      -1.366  12.524  22.947  0.00  0.00    +0.000 Br
ATOM     16  C   UNL     1      -0.459   9.832  22.713  0.00  0.00    +0.000 A 
ATOM     17  C   UNL     1       0.253   8.787  22.121  0.00  0.00    +0.000 A 
ENDBRANCH   9  11
ENDBRANCH   4   7
BRANCH   2  18
ATOM     18  N   UNL     1       5.640   4.171  17.565  0.00  0.00    +0.000 N 
ATOM     19  H   UNL     1       6.601   4.435  17.780  0.00  0.00    +0.000 HD
ATOM     20  H   UNL     1       5.497   3.937  16.586  0.00  0.00    +0.000 HD
ENDBRANCH   2  18
BRANCH   1  21
ATOM     21  C   UNL     1       4.038   2.921  19.850  0.00  0.00    +0.000 C 
ATOM     22  O   UNL     1       5.130   2.461  20.164  0.00  0.00    +0.000 OA
BRANCH  21  23
ATOM     23  O   UNL     1       2.876   2.199  19.879  0.00  0.00    +0.000 OA
BRANCH  23  25
ATOM     24  C   UNL     1       0.814   2.256  18.658  0.00  0.00    +0.000 C 
ATOM     25  C   UNL     1       2.297   1.929  18.597  0.00  0.00    +0.000 C 
ENDBRANCH  23  25
ENDBRANCH  21  23
ENDBRANCH   1  21
TORSDOF 6
ENDMDL
MODEL 6
REMARK VINA RESULT:      -6.8      1.793      2.252
REMARK  Name = 
REMARK  8 active torsions:
REMARK  status: ('A' for Active; 'I' for Inactive)
REMARK    1  A    between atoms: C_1  and  C_2
REMARK    2  A    between atoms: C_2  and  O_3
REMARK    3  A    between atoms: O_3  and  C_4
REMARK    4  A    between atoms: C_4  and  C_6
REMARK    5  A    between atoms: C_7  and  N_8
REMARK    6  A    between atoms: C_10  and  C_11
REMARK    7  A    between atoms: N_13  and  C_14
REMARK    8  A    between atoms: C_21  and  C_22
REMARK                            x       y       z     vdW  Elec       q    Type
REMARK                         _______ _______ _______ _____ _____    ______ ____
ROOT
ATOM      1  C   UNL     1       3.944   4.815  18.833  0.00  0.00    +0.000 A 
ATOM      2  C   UNL     1       3.236   4.227  19.867  0.00  0.00    +0.000 A 
ATOM      3  S   UNL     1       2.105   5.287  20.552  0.00  0.00    +0.000 S 
ATOM      4  C   UNL     1       2.525   6.582  19.505  0.00  0.00    +0.000 A 
ATOM      5  C   UNL     1       3.525   6.199  18.615  0.00  0.00    +0.000 A 
ATOM      6  C   UNL     1       4.111   7.054  17.526  0.00  0.00    +0.000 C 
ENDROOT
BRANCH   4   7
ATOM      7  C   UNL     1       1.821   7.871  19.628  0.00  0.00    +0.000 C 
ATOM      8  O   UNL     1       1.885   8.742  18.768  0.00  0.00    +0.000 OA
ATOM      9  N   UNL     1       1.113   8.013  20.814  0.00  0.00    +0.000 N 
ATOM     10  H   UNL     1       1.213   7.243  21.461  0.00  0.00    +0.000 HD
BRANCH   9  11
ATOM     11  C   UNL     1       0.372   9.117  21.266  0.00  0.00    +0.000 A 
ATOM     12  C   UNL     1      -0.093  10.140  20.438  0.00  0.00    +0.000 A 
ATOM     13  C   UNL     1      -0.788  11.227  20.980  0.00  0.00    +0.000 A 
ATOM     14  C   UNL     1      -1.016  11.292  22.352  0.00  0.00    +0.000 A 
ATOM     15 BR   UNL     1      -1.912  12.783  23.088  0.00  0.00    +0.000 Br
ATOM     16  C   UNL     1      -0.579  10.266  23.186  0.00  0.00    +0.000 A 
ATOM     17  C   UNL     1       0.104   9.178  22.640  0.00  0.00    +0.000 A 
ENDBRANCH   9  11
ENDBRANCH   4   7
BRANCH   2  18
ATOM     18  N   UNL     1       3.339   2.970  20.357  0.00  0.00    +0.000 N 
ATOM     19  H   UNL     1       3.960   2.802  21.147  0.00  0.00    +0.000 HD
ATOM     20  H   UNL     1       3.292   2.189  19.709  0.00  0.00    +0.000 HD
ENDBRANCH   2  18
BRANCH   1  21
ATOM     21  C   UNL     1       4.951   4.115  18.024  0.00  0.00    +0.000 C 
ATOM     22  O   UNL     1       4.685   3.493  17.003  0.00  0.00    +0.000 OA
BRANCH  21  23
ATOM     23  O   UNL     1       6.190   4.125  18.604  0.00  0.00    +0.000 OA
BRANCH  23  25
ATOM     24  C   UNL     1       7.807   5.843  19.026  0.00  0.00    +0.000 C 
ATOM     25  C   UNL     1       7.153   4.972  17.967  0.00  0.00    +0.000 C 
ENDBRANCH  23  25
ENDBRANCH  21  23
ENDBRANCH   1  21
TORSDOF 6
ENDMDL
MODEL 7
REMARK VINA RESULT:      -6.8      1.700      2.084
REMARK  Name = 
REMARK  8 active torsions:
REMARK  status: ('A' for Active; 'I' for Inactive)
REMARK    1  A    between atoms: C_1  and  C_2
REMARK    2  A    between atoms: C_2  and  O_3
REMARK    3  A    between atoms: O_3  and  C_4
REMARK    4  A    between atoms: C_4  and  C_6
REMARK    5  A    between atoms: C_7  and  N_8
REMARK    6  A    between atoms: C_10  and  C_11
REMARK    7  A    between atoms: N_13  and  C_14
REMARK    8  A    between atoms: C_21  and  C_22
REMARK                            x       y       z     vdW  Elec       q    Type
REMARK                         _______ _______ _______ _____ _____    ______ ____
ROOT
ATOM      1  C   UNL     1       4.498   4.279  18.676  0.00  0.00    +0.000 A 
ATOM      2  C   UNL     1       4.251   3.286  19.609  0.00  0.00    +0.000 A 
ATOM      3  S   UNL     1       2.973   3.686  20.647  0.00  0.00    +0.000 S 
ATOM      4  C   UNL     1       2.706   5.211  19.904  0.00  0.00    +0.000 A 
ATOM      5  C   UNL     1       3.587   5.410  18.845  0.00  0.00    +0.000 A 
ATOM      6  C   UNL     1       3.618   6.609  17.937  0.00  0.00    +0.000 C 
ENDROOT
BRANCH   4   7
ATOM      7  C   UNL     1       1.632   6.085  20.409  0.00  0.00    +0.000 C 
ATOM      8  O   UNL     1       0.509   5.667  20.671  0.00  0.00    +0.000 OA
ATOM      9  N   UNL     1       2.001   7.419  20.527  0.00  0.00    +0.000 N 
ATOM     10  H   UNL     1       2.936   7.628  20.204  0.00  0.00    +0.000 HD
BRANCH   9  11
ATOM     11  C   UNL     1       1.219   8.512  20.936  0.00  0.00    +0.000 A 
ATOM     12  C   UNL     1       0.690   9.465  20.065  0.00  0.00    +0.000 A 
ATOM     13  C   UNL     1      -0.042  10.548  20.564  0.00  0.00    +0.000 A 
ATOM     14  C   UNL     1      -0.244  10.678  21.935  0.00  0.00    +0.000 A 
ATOM     15 BR   UNL     1      -1.192  12.167  22.610  0.00  0.00    +0.000 Br
ATOM     16  C   UNL     1       0.257   9.721  22.813  0.00  0.00    +0.000 A 
ATOM     17  C   UNL     1       0.977   8.635  22.310  0.00  0.00    +0.000 A 
ENDBRANCH   9  11
ENDBRANCH   4   7
BRANCH   2  18
ATOM     18  N   UNL     1       4.879   2.098  19.767  0.00  0.00    +0.000 N 
ATOM     19  H   UNL     1       5.855   2.095  20.062  0.00  0.00    +0.000 HD
ATOM     20  H   UNL     1       4.647   1.336  19.136  0.00  0.00    +0.000 HD
ENDBRANCH   2  18
BRANCH   1  21
ATOM     21  C   UNL     1       5.511   4.180  17.618  0.00  0.00    +0.000 C 
ATOM     22  O   UNL     1       5.246   3.941  16.446  0.00  0.00    +0.000 OA
BRANCH  21  23
ATOM     23  O   UNL     1       6.788   4.252  18.106  0.00  0.00    +0.000 OA
BRANCH  23  25
ATOM     24  C   UNL     1       7.372   6.568  17.914  0.00  0.00    +0.000 C 
ATOM     25  C   UNL     1       7.652   5.161  17.415  0.00  0.00    +0.000 C 
ENDBRANCH  23  25
ENDBRANCH  21  23
ENDBRANCH   1  21
TORSDOF 6
ENDMDL
MODEL 8
REMARK VINA RESULT:      -6.7      1.567      2.272
REMARK  Name = 
REMARK  8 active torsions:
REMARK  status: ('A' for Active; 'I' for Inactive)
REMARK    1  A    between atoms: C_1  and  C_2
REMARK    2  A    between atoms: C_2  and  O_3
REMARK    3  A    between atoms: O_3  and  C_4
REMARK    4  A    between atoms: C_4  and  C_6
REMARK    5  A    between atoms: C_7  and  N_8
REMARK    6  A    between atoms: C_10  and  C_11
REMARK    7  A    between atoms: N_13  and  C_14
REMARK    8  A    between atoms: C_21  and  C_22
REMARK                            x       y       z     vdW  Elec       q    Type
REMARK                         _______ _______ _______ _____ _____    ______ ____
ROOT
ATOM      1  C   UNL     1       4.372   4.605  17.409  0.00  0.00    +0.000 A 
ATOM      2  C   UNL     1       3.959   3.393  17.935  0.00  0.00    +0.000 A 
ATOM      3  S   UNL     1       2.844   3.589  19.197  0.00  0.00    +0.000 S 
ATOM      4  C   UNL     1       2.880   5.304  19.104  0.00  0.00    +0.000 A 
ATOM      5  C   UNL     1       3.735   5.730  18.092  0.00  0.00    +0.000 A 
ATOM      6  C   UNL     1       3.983   7.159  17.691  0.00  0.00    +0.000 C 
ENDROOT
BRANCH   4   7
ATOM      7  C   UNL     1       2.043   6.096  20.023  0.00  0.00    +0.000 C 
ATOM      8  O   UNL     1       1.334   5.580  20.880  0.00  0.00    +0.000 OA
ATOM      9  N   UNL     1       2.110   7.466  19.805  0.00  0.00    +0.000 N 
ATOM     10  H   UNL     1       2.679   7.740  19.015  0.00  0.00    +0.000 HD
BRANCH   9  11
ATOM     11  C   UNL     1       1.419   8.494  20.467  0.00  0.00    +0.000 A 
ATOM     12  C   UNL     1       1.230   8.547  21.848  0.00  0.00    +0.000 A 
ATOM     13  C   UNL     1       0.490   9.588  22.420  0.00  0.00    +0.000 A 
ATOM     14  C   UNL     1      -0.064  10.575  21.608  0.00  0.00    +0.000 A 
ATOM     15 BR   UNL     1      -1.104  11.952  22.378  0.00  0.00    +0.000 Br
ATOM     16  C   UNL     1       0.138  10.547  20.231  0.00  0.00    +0.000 A 
ATOM     17  C   UNL     1       0.887   9.513  19.666  0.00  0.00    +0.000 A 
ENDBRANCH   9  11
ENDBRANCH   4   7
BRANCH   2  18
ATOM     18  N   UNL     1       4.322   2.143  17.567  0.00  0.00    +0.000 N 
ATOM     19  H   UNL     1       4.481   1.949  16.579  0.00  0.00    +0.000 HD
ATOM     20  H   UNL     1       3.932   1.353  18.074  0.00  0.00    +0.000 HD
ENDBRANCH   2  18
BRANCH   1  21
ATOM     21  C   UNL     1       5.292   4.737  16.272  0.00  0.00    +0.000 C 
ATOM     22  O   UNL     1       5.108   4.200  15.186  0.00  0.00    +0.000 OA
BRANCH  21  23
ATOM     23  O   UNL     1       6.435   5.414  16.599  0.00  0.00    +0.000 OA
BRANCH  23  25
ATOM     24  C   UNL     1       7.669   5.687  18.635  0.00  0.00    +0.000 C 
ATOM     25  C   UNL     1       7.305   4.733  17.510  0.00  0.00    +0.000 C 
ENDBRANCH  23  25
ENDBRANCH  21  23
ENDBRANCH   1  21
TORSDOF 6
ENDMDL
MODEL 9
REMARK VINA RESULT:      -6.6      2.617      3.416
REMARK  Name = 
REMARK  8 active torsions:
REMARK  status: ('A' for Active; 'I' for Inactive)
REMARK    1  A    between atoms: C_1  and  C_2
REMARK    2  A    between atoms: C_2  and  O_3
REMARK    3  A    between atoms: O_3  and  C_4
REMARK    4  A    between atoms: C_4  and  C_6
REMARK    5  A    between atoms: C_7  and  N_8
REMARK    6  A    between atoms: C_10  and  C_11
REMARK    7  A    between atoms: N_13  and  C_14
REMARK    8  A    between atoms: C_21  and  C_22
REMARK                            x       y       z     vdW  Elec       q    Type
REMARK                         _______ _______ _______ _____ _____    ______ ____
ROOT
ATOM      1  C   UNL     1       3.755   5.148  18.614  0.00  0.00    +0.000 A 
ATOM      2  C   UNL     1       4.059   6.052  17.610  0.00  0.00    +0.000 A 
ATOM      3  S   UNL     1       3.301   7.549  17.845  0.00  0.00    +0.000 S 
ATOM      4  C   UNL     1       2.521   7.048  19.291  0.00  0.00    +0.000 A 
ATOM      5  C   UNL     1       2.853   5.734  19.606  0.00  0.00    +0.000 A 
ATOM      6  C   UNL     1       2.395   4.976  20.822  0.00  0.00    +0.000 C 
ENDROOT
BRANCH   4   7
ATOM      7  C   UNL     1       1.657   7.998  20.014  0.00  0.00    +0.000 C 
ATOM      8  O   UNL     1       1.272   7.799  21.160  0.00  0.00    +0.000 OA
ATOM      9  N   UNL     1       1.300   9.114  19.267  0.00  0.00    +0.000 N 
ATOM     10  H   UNL     1       1.631   9.106  18.312  0.00  0.00    +0.000 HD
BRANCH   9  11
ATOM     11  C   UNL     1       0.465  10.182  19.632  0.00  0.00    +0.000 A 
ATOM     12  C   UNL     1       0.743  11.075  20.668  0.00  0.00    +0.000 A 
ATOM     13  C   UNL     1      -0.168  12.086  20.993  0.00  0.00    +0.000 A 
ATOM     14  C   UNL     1      -1.359  12.204  20.281  0.00  0.00    +0.000 A 
ATOM     15 BR   UNL     1      -2.609  13.540  20.752  0.00  0.00    +0.000 Br
ATOM     16  C   UNL     1      -1.638  11.335  19.229  0.00  0.00    +0.000 A 
ATOM     17  C   UNL     1      -0.721  10.335  18.901  0.00  0.00    +0.000 A 
ENDBRANCH   9  11
ENDBRANCH   4   7
BRANCH   2  18
ATOM     18  N   UNL     1       4.854   5.880  16.529  0.00  0.00    +0.000 N 
ATOM     19  H   UNL     1       4.552   6.259  15.633  0.00  0.00    +0.000 HD
ATOM     20  H   UNL     1       5.380   5.015  16.443  0.00  0.00    +0.000 HD
ENDBRANCH   2  18
BRANCH   1  21
ATOM     21  C   UNL     1       4.312   3.793  18.697  0.00  0.00    +0.000 C 
ATOM     22  O   UNL     1       5.247   3.489  19.429  0.00  0.00    +0.000 OA
BRANCH  21  23
ATOM     23  O   UNL     1       3.763   2.942  17.776  0.00  0.00    +0.000 OA
BRANCH  23  25
ATOM     24  C   UNL     1       1.604   2.181  18.485  0.00  0.00    +0.000 C 
ATOM     25  C   UNL     1       3.070   1.816  18.327  0.00  0.00    +0.000 C 
ENDBRANCH  23  25
ENDBRANCH  21  23
ENDBRANCH   1  21
TORSDOF 6
ENDMDL
