MODEL 1
REMARK VINA RESULT:      -8.3      0.000      0.000
REMARK  Name = 
REMARK  15 active torsions:
REMARK  status: ('A' for Active; 'I' for Inactive)
REMARK    1  A    between atoms: C_1  and  O_2
REMARK    2  A    between atoms: O_2  and  C_3
REMARK    3  A    between atoms: C_5  and  C_6
REMARK    4  A    between atoms: C_6  and  C_7
REMARK    5  A    between atoms: C_7  and  N_8
REMARK    6  A    between atoms: N_8  and  C_9
REMARK    7  A    between atoms: C_9  and  C_10
REMARK    8  A    between atoms: C_10  and  O_11
REMARK    9  A    between atoms: C_10  and  C_12
REMARK   10  A    between atoms: C_15  and  O_16
REMARK   11  A    between atoms: C_26  and  O_27
REMARK   12  A    between atoms: O_27  and  C_28
REMARK   13  A    between atoms: C_28  and  C_29
REMARK   14  A    between atoms: C_29  and  C_30
REMARK   15  A    between atoms: C_30  and  C_31
REMARK                            x       y       z     vdW  Elec       q    Type
REMARK                         _______ _______ _______ _____ _____    ______ ____
ROOT
ATOM      1  C   UNL     1       2.068   4.089  17.767  0.00  0.00    +0.000 C 
ENDROOT
BRANCH   1   2
ATOM      2  N   UNL     1       1.449   3.632  19.022  0.00  0.00    +0.000 NA
ATOM      3  H   UNL     1       0.612   3.097  18.777  0.00  0.00    +0.000 HD
BRANCH   2   4
ATOM      4  C   UNL     1       1.023   4.777  19.865  0.00  0.00    +0.000 C 
BRANCH   4   5
ATOM      5  C   UNL     1       2.137   5.852  20.023  0.00  0.00    +0.000 C 
BRANCH   5   6
ATOM      6  C   UNL     1       1.938   7.246  19.448  0.00  0.00    +0.000 A 
ATOM      7  C   UNL     1       2.459   7.526  18.163  0.00  0.00    +0.000 A 
ATOM      8  C   UNL     1       2.400   8.806  17.604  0.00  0.00    +0.000 A 
ATOM      9  C   UNL     1       1.826   9.836  18.337  0.00  0.00    +0.000 A 
ATOM     10  C   UNL     1       1.269   9.581  19.591  0.00  0.00    +0.000 A 
ATOM     11  C   UNL     1       1.273   8.283  20.119  0.00  0.00    +0.000 A 
ATOM     12  O   UNL     1       0.582   7.981  21.259  0.00  0.00    +0.000 OA
ATOM     13  C   UNL     1       0.435   9.061  22.166  0.00  0.00    +0.000 C 
ATOM     14  C   UNL     1       0.306  10.478  21.621  0.00  0.00    +0.000 C 
ATOM     15  O   UNL     1      -0.082  11.425  22.300  0.00  0.00    +0.000 OA
ATOM     16  N   UNL     1       0.726  10.637  20.334  0.00  0.00    +0.000 N 
ATOM     17  H   UNL     1       0.745  11.570  19.933  0.00  0.00    +0.000 HD
BRANCH   9  18
ATOM     18  O   UNL     1       1.799  11.115  17.851  0.00  0.00    +0.000 OA
ATOM     19  H   UNL     1       1.054  11.195  17.230  0.00  0.00    +0.000 HD
ENDBRANCH   9  18
ENDBRANCH   5   6
BRANCH   5  20
ATOM     20  O   UNL     1       2.341   5.997  21.444  0.00  0.00    +0.000 OA
ATOM     21  H   UNL     1       3.210   5.576  21.608  0.00  0.00    +0.000 HD
ENDBRANCH   5  20
ENDBRANCH   4   5
ENDBRANCH   2   4
ENDBRANCH   1   2
BRANCH   1  22
ATOM     22  C   UNL     1       3.383   3.373  17.436  0.00  0.00    +0.000 C 
BRANCH  22  25
ATOM     23  C   UNL     1       6.011   5.520  15.704  0.00  0.00    +0.000 A 
ATOM     24  C   UNL     1       4.954   4.640  15.935  0.00  0.00    +0.000 A 
ATOM     25  C   UNL     1       4.511   4.353  17.233  0.00  0.00    +0.000 A 
ATOM     26  C   UNL     1       5.110   4.993  18.318  0.00  0.00    +0.000 A 
ATOM     27  C   UNL     1       6.146   5.903  18.101  0.00  0.00    +0.000 A 
ATOM     28  C   UNL     1       6.602   6.179  16.808  0.00  0.00    +0.000 A 
BRANCH  23  30
ATOM     29  C   UNL     1       7.439   4.943  13.820  0.00  0.00    +0.000 C 
ATOM     30  O   UNL     1       6.490   5.782  14.456  0.00  0.00    +0.000 OA
ENDBRANCH  23  30
BRANCH  28  31
ATOM     31  O   UNL     1       7.621   7.110  16.796  0.00  0.00    +0.000 OA
BRANCH  31  32
ATOM     32  C   UNL     1       7.895   7.742  18.036  0.00  0.00    +0.000 C 
BRANCH  32  33
ATOM     33  C   UNL     1       8.348   9.177  17.841  0.00  0.00    +0.000 C 
BRANCH  33  34
ATOM     34  C   UNL     1       8.833   9.707  19.191  0.00  0.00    +0.000 C 
BRANCH  34  35
ATOM     35  C   UNL     1       9.913  10.732  19.010  0.00  0.00    +0.000 A 
ATOM     36  C   UNL     1      10.584  11.248  20.124  0.00  0.00    +0.000 A 
ATOM     37  C   UNL     1      11.526  12.264  19.965  0.00  0.00    +0.000 A 
ATOM     38  C   UNL     1      11.798  12.766  18.693  0.00  0.00    +0.000 A 
ATOM     39  C   UNL     1      11.143  12.244  17.578  0.00  0.00    +0.000 A 
ATOM     40  C   UNL     1      10.205  11.228  17.735  0.00  0.00    +0.000 A 
ENDBRANCH  34  35
ENDBRANCH  33  34
ENDBRANCH  32  33
ENDBRANCH  31  32
ENDBRANCH  28  31
ENDBRANCH  22  25
ENDBRANCH   1  22
TORSDOF 14
ENDMDL
MODEL 2
REMARK VINA RESULT:      -7.9      3.573      7.744
REMARK  Name = 
REMARK  15 active torsions:
REMARK  status: ('A' for Active; 'I' for Inactive)
REMARK    1  A    between atoms: C_1  and  O_2
REMARK    2  A    between atoms: O_2  and  C_3
REMARK    3  A    between atoms: C_5  and  C_6
REMARK    4  A    between atoms: C_6  and  C_7
REMARK    5  A    between atoms: C_7  and  N_8
REMARK    6  A    between atoms: N_8  and  C_9
REMARK    7  A    between atoms: C_9  and  C_10
REMARK    8  A    between atoms: C_10  and  O_11
REMARK    9  A    between atoms: C_10  and  C_12
REMARK   10  A    between atoms: C_15  and  O_16
REMARK   11  A    between atoms: C_26  and  O_27
REMARK   12  A    between atoms: O_27  and  C_28
REMARK   13  A    between atoms: C_28  and  C_29
REMARK   14  A    between atoms: C_29  and  C_30
REMARK   15  A    between atoms: C_30  and  C_31
REMARK                            x       y       z     vdW  Elec       q    Type
REMARK                         _______ _______ _______ _____ _____    ______ ____
ROOT
ATOM      1  C   UNL     1       1.113   3.822  19.813  0.00  0.00    +0.000 C 
ENDROOT
BRANCH   1   2
ATOM      2  N   UNL     1       1.738   2.554  19.400  0.00  0.00    +0.000 NA
ATOM      3  H   UNL     1       1.428   1.830  20.054  0.00  0.00    +0.000 HD
BRANCH   2   4
ATOM      4  C   UNL     1       3.218   2.630  19.474  0.00  0.00    +0.000 C 
BRANCH   4   5
ATOM      5  C   UNL     1       3.869   3.004  18.111  0.00  0.00    +0.000 C 
BRANCH   5   6
ATOM      6  C   UNL     1       5.041   3.973  18.068  0.00  0.00    +0.000 A 
ATOM      7  C   UNL     1       5.384   4.669  19.250  0.00  0.00    +0.000 A 
ATOM      8  C   UNL     1       6.386   5.644  19.269  0.00  0.00    +0.000 A 
ATOM      9  C   UNL     1       7.054   5.948  18.090  0.00  0.00    +0.000 A 
ATOM     10  C   UNL     1       6.763   5.249  16.917  0.00  0.00    +0.000 A 
ATOM     11  C   UNL     1       5.803   4.228  16.918  0.00  0.00    +0.000 A 
ATOM     12  O   UNL     1       5.630   3.419  15.830  0.00  0.00    +0.000 OA
ATOM     13  C   UNL     1       5.950   4.022  14.588  0.00  0.00    +0.000 C 
ATOM     14  C   UNL     1       7.072   5.051  14.526  0.00  0.00    +0.000 C 
ATOM     15  O   UNL     1       7.586   5.421  13.473  0.00  0.00    +0.000 OA
ATOM     16  N   UNL     1       7.420   5.591  15.728  0.00  0.00    +0.000 N 
ATOM     17  H   UNL     1       8.104   6.342  15.753  0.00  0.00    +0.000 HD
BRANCH   9  18
ATOM     18  O   UNL     1       8.002   6.934  18.052  0.00  0.00    +0.000 OA
ATOM     19  H   UNL     1       8.558   6.860  18.847  0.00  0.00    +0.000 HD
ENDBRANCH   9  18
ENDBRANCH   5   6
BRANCH   5  20
ATOM     20  O   UNL     1       4.316   1.759  17.536  0.00  0.00    +0.000 OA
ATOM     21  H   UNL     1       5.181   1.592  17.965  0.00  0.00    +0.000 HD
ENDBRANCH   5  20
ENDBRANCH   4   5
ENDBRANCH   2   4
ENDBRANCH   1   2
BRANCH   1  22
ATOM     22  C   UNL     1       2.057   4.742  20.597  0.00  0.00    +0.000 C 
BRANCH  22  25
ATOM     23  C   UNL     1       1.270   8.467  20.752  0.00  0.00    +0.000 A 
ATOM     24  C   UNL     1       1.453   7.130  21.107  0.00  0.00    +0.000 A 
ATOM     25  C   UNL     1       1.900   6.182  20.177  0.00  0.00    +0.000 A 
ATOM     26  C   UNL     1       2.210   6.589  18.879  0.00  0.00    +0.000 A 
ATOM     27  C   UNL     1       2.065   7.929  18.518  0.00  0.00    +0.000 A 
ATOM     28  C   UNL     1       1.603   8.875  19.440  0.00  0.00    +0.000 A 
BRANCH  23  30
ATOM     29  C   UNL     1      -0.386   9.193  22.380  0.00  0.00    +0.000 C 
ATOM     30  O   UNL     1       0.794   9.399  21.624  0.00  0.00    +0.000 OA
ENDBRANCH  23  30
BRANCH  28  31
ATOM     31  O   UNL     1       1.537  10.145  18.902  0.00  0.00    +0.000 OA
BRANCH  31  32
ATOM     32  C   UNL     1       0.307  10.494  18.289  0.00  0.00    +0.000 C 
BRANCH  32  33
ATOM     33  C   UNL     1      -0.438  11.543  19.093  0.00  0.00    +0.000 C 
BRANCH  33  34
ATOM     34  C   UNL     1      -0.165  12.907  18.457  0.00  0.00    +0.000 C 
BRANCH  34  35
ATOM     35  C   UNL     1       1.106  13.503  18.985  0.00  0.00    +0.000 A 
ATOM     36  C   UNL     1       2.202  13.682  18.135  0.00  0.00    +0.000 A 
ATOM     37  C   UNL     1       3.413  14.153  18.644  0.00  0.00    +0.000 A 
ATOM     38  C   UNL     1       3.528  14.445  20.001  0.00  0.00    +0.000 A 
ATOM     39  C   UNL     1       2.434  14.283  20.851  0.00  0.00    +0.000 A 
ATOM     40  C   UNL     1       1.225  13.816  20.344  0.00  0.00    +0.000 A 
ENDBRANCH  34  35
ENDBRANCH  33  34
ENDBRANCH  32  33
ENDBRANCH  31  32
ENDBRANCH  28  31
ENDBRANCH  22  25
ENDBRANCH   1  22
TORSDOF 14
ENDMDL
MODEL 3
REMARK VINA RESULT:      -7.7      3.857      8.314
REMARK  Name = 
REMARK  15 active torsions:
REMARK  status: ('A' for Active; 'I' for Inactive)
REMARK    1  A    between atoms: C_1  and  O_2
REMARK    2  A    between atoms: O_2  and  C_3
REMARK    3  A    between atoms: C_5  and  C_6
REMARK    4  A    between atoms: C_6  and  C_7
REMARK    5  A    between atoms: C_7  and  N_8
REMARK    6  A    between atoms: N_8  and  C_9
REMARK    7  A    between atoms: C_9  and  C_10
REMARK    8  A    between atoms: C_10  and  O_11
REMARK    9  A    between atoms: C_10  and  C_12
REMARK   10  A    between atoms: C_15  and  O_16
REMARK   11  A    between atoms: C_26  and  O_27
REMARK   12  A    between atoms: O_27  and  C_28
REMARK   13  A    between atoms: C_28  and  C_29
REMARK   14  A    between atoms: C_29  and  C_30
REMARK   15  A    between atoms: C_30  and  C_31
REMARK                            x       y       z     vdW  Elec       q    Type
REMARK                         _______ _______ _______ _____ _____    ______ ____
ROOT
ATOM      1  C   UNL     1       8.035   9.071  18.283  0.00  0.00    +0.000 C 
ENDROOT
BRANCH   1   2
ATOM      2  N   UNL     1       9.256   9.263  19.083  0.00  0.00    +0.000 NA
ATOM      3  H   UNL     1       9.408   8.407  19.624  0.00  0.00    +0.000 HD
BRANCH   2   4
ATOM      4  C   UNL     1       9.106  10.385  20.041  0.00  0.00    +0.000 C 
BRANCH   4   5
ATOM      5  C   UNL     1      10.326  11.352  20.029  0.00  0.00    +0.000 C 
BRANCH   5   6
ATOM      6  C   UNL     1      10.473  12.379  18.916  0.00  0.00    +0.000 A 
ATOM      7  C   UNL     1      11.565  12.256  18.025  0.00  0.00    +0.000 A 
ATOM      8  C   UNL     1      11.823  13.209  17.036  0.00  0.00    +0.000 A 
ATOM      9  C   UNL     1      10.991  14.317  16.934  0.00  0.00    +0.000 A 
ATOM     10  C   UNL     1       9.884  14.445  17.774  0.00  0.00    +0.000 A 
ATOM     11  C   UNL     1       9.593  13.453  18.720  0.00  0.00    +0.000 A 
ATOM     12  O   UNL     1       8.423  13.472  19.428  0.00  0.00    +0.000 OA
ATOM     13  C   UNL     1       7.880  14.764  19.638  0.00  0.00    +0.000 C 
ATOM     14  C   UNL     1       8.074  15.836  18.573  0.00  0.00    +0.000 C 
ATOM     15  O   UNL     1       7.428  16.880  18.547  0.00  0.00    +0.000 OA
ATOM     16  N   UNL     1       9.075  15.584  17.683  0.00  0.00    +0.000 N 
ATOM     17  H   UNL     1       9.314  16.293  16.995  0.00  0.00    +0.000 HD
BRANCH   9  18
ATOM     18  O   UNL     1      11.241  15.302  16.017  0.00  0.00    +0.000 OA
ATOM     19  H   UNL     1      10.450  15.865  15.944  0.00  0.00    +0.000 HD
ENDBRANCH   9  18
ENDBRANCH   5   6
BRANCH   5  20
ATOM     20  O   UNL     1      10.266  12.074  21.276  0.00  0.00    +0.000 OA
ATOM     21  H   UNL     1      10.184  13.012  21.009  0.00  0.00    +0.000 HD
ENDBRANCH   5  20
ENDBRANCH   4   5
ENDBRANCH   2   4
ENDBRANCH   1   2
BRANCH   1  22
ATOM     22  C   UNL     1       8.172   7.988  17.205  0.00  0.00    +0.000 C 
BRANCH  22  25
ATOM     23  C   UNL     1       5.766   5.071  16.739  0.00  0.00    +0.000 A 
ATOM     24  C   UNL     1       6.591   6.168  16.489  0.00  0.00    +0.000 A 
ATOM     25  C   UNL     1       7.315   6.787  17.516  0.00  0.00    +0.000 A 
ATOM     26  C   UNL     1       7.245   6.271  18.811  0.00  0.00    +0.000 A 
ATOM     27  C   UNL     1       6.451   5.152  19.070  0.00  0.00    +0.000 A 
ATOM     28  C   UNL     1       5.713   4.543  18.050  0.00  0.00    +0.000 A 
BRANCH  23  30
ATOM     29  C   UNL     1       5.507   4.275  14.454  0.00  0.00    +0.000 C 
ATOM     30  O   UNL     1       5.016   4.480  15.767  0.00  0.00    +0.000 OA
ENDBRANCH  23  30
BRANCH  28  31
ATOM     31  O   UNL     1       5.001   3.448  18.497  0.00  0.00    +0.000 OA
BRANCH  31  32
ATOM     32  C   UNL     1       4.116   3.687  19.579  0.00  0.00    +0.000 C 
BRANCH  32  33
ATOM     33  C   UNL     1       2.924   4.522  19.149  0.00  0.00    +0.000 C 
BRANCH  33  34
ATOM     34  C   UNL     1       2.725   5.630  20.184  0.00  0.00    +0.000 C 
BRANCH  34  35
ATOM     35  C   UNL     1       2.327   6.917  19.524  0.00  0.00    +0.000 A 
ATOM     36  C   UNL     1       2.735   7.189  18.214  0.00  0.00    +0.000 A 
ATOM     37  C   UNL     1       2.441   8.422  17.632  0.00  0.00    +0.000 A 
ATOM     38  C   UNL     1       1.740   9.383  18.358  0.00  0.00    +0.000 A 
ATOM     39  C   UNL     1       1.317   9.111  19.659  0.00  0.00    +0.000 A 
ATOM     40  C   UNL     1       1.607   7.880  20.240  0.00  0.00    +0.000 A 
ENDBRANCH  34  35
ENDBRANCH  33  34
ENDBRANCH  32  33
ENDBRANCH  31  32
ENDBRANCH  28  31
ENDBRANCH  22  25
ENDBRANCH   1  22
TORSDOF 14
ENDMDL
MODEL 4
REMARK VINA RESULT:      -7.7      3.535      8.157
REMARK  Name = 
REMARK  15 active torsions:
REMARK  status: ('A' for Active; 'I' for Inactive)
REMARK    1  A    between atoms: C_1  and  O_2
REMARK    2  A    between atoms: O_2  and  C_3
REMARK    3  A    between atoms: C_5  and  C_6
REMARK    4  A    between atoms: C_6  and  C_7
REMARK    5  A    between atoms: C_7  and  N_8
REMARK    6  A    between atoms: N_8  and  C_9
REMARK    7  A    between atoms: C_9  and  C_10
REMARK    8  A    between atoms: C_10  and  O_11
REMARK    9  A    between atoms: C_10  and  C_12
REMARK   10  A    between atoms: C_15  and  O_16
REMARK   11  A    between atoms: C_26  and  O_27
REMARK   12  A    between atoms: O_27  and  C_28
REMARK   13  A    between atoms: C_28  and  C_29
REMARK   14  A    between atoms: C_29  and  C_30
REMARK   15  A    between atoms: C_30  and  C_31
REMARK                            x       y       z     vdW  Elec       q    Type
REMARK                         _______ _______ _______ _____ _____    ______ ____
ROOT
ATOM      1  C   UNL     1       2.059   5.294  19.146  0.00  0.00    +0.000 C 
ENDROOT
BRANCH   1   2
ATOM      2  N   UNL     1       2.531   4.899  17.808  0.00  0.00    +0.000 NA
ATOM      3  H   UNL     1       1.848   5.240  17.127  0.00  0.00    +0.000 HD
BRANCH   2   4
ATOM      4  C   UNL     1       2.609   3.424  17.674  0.00  0.00    +0.000 C 
BRANCH   4   5
ATOM      5  C   UNL     1       4.064   2.916  17.456  0.00  0.00    +0.000 C 
BRANCH   5   6
ATOM      6  C   UNL     1       5.036   3.729  16.615  0.00  0.00    +0.000 A 
ATOM      7  C   UNL     1       5.187   3.397  15.248  0.00  0.00    +0.000 A 
ATOM      8  C   UNL     1       6.126   4.033  14.432  0.00  0.00    +0.000 A 
ATOM      9  C   UNL     1       6.946   5.011  14.982  0.00  0.00    +0.000 A 
ATOM     10  C   UNL     1       6.792   5.387  16.317  0.00  0.00    +0.000 A 
ATOM     11  C   UNL     1       5.805   4.791  17.114  0.00  0.00    +0.000 A 
ATOM     12  O   UNL     1       5.524   5.266  18.365  0.00  0.00    +0.000 OA
ATOM     13  C   UNL     1       6.617   5.885  19.022  0.00  0.00    +0.000 C 
ATOM     14  C   UNL     1       7.648   6.645  18.198  0.00  0.00    +0.000 C 
ATOM     15  O   UNL     1       8.463   7.420  18.692  0.00  0.00    +0.000 OA
ATOM     16  N   UNL     1       7.649   6.348  16.867  0.00  0.00    +0.000 N 
ATOM     17  H   UNL     1       8.363   6.756  16.271  0.00  0.00    +0.000 HD
BRANCH   9  18
ATOM     18  O   UNL     1       7.917   5.618  14.233  0.00  0.00    +0.000 OA
ATOM     19  H   UNL     1       7.669   5.555  13.294  0.00  0.00    +0.000 HD
ENDBRANCH   9  18
ENDBRANCH   5   6
BRANCH   5  20
ATOM     20  O   UNL     1       4.635   2.790  18.775  0.00  0.00    +0.000 OA
ATOM     21  H   UNL     1       3.887   2.497  19.335  0.00  0.00    +0.000 HD
ENDBRANCH   5  20
ENDBRANCH   4   5
ENDBRANCH   2   4
ENDBRANCH   1   2
BRANCH   1  22
ATOM     22  C   UNL     1       2.804   6.503  19.726  0.00  0.00    +0.000 C 
BRANCH  22  25
ATOM     23  C   UNL     1       0.462   9.374  20.615  0.00  0.00    +0.000 A 
ATOM     24  C   UNL     1       1.249   8.225  20.697  0.00  0.00    +0.000 A 
ATOM     25  C   UNL     1       1.990   7.766  19.600  0.00  0.00    +0.000 A 
ATOM     26  C   UNL     1       1.977   8.496  18.411  0.00  0.00    +0.000 A 
ATOM     27  C   UNL     1       1.222   9.667  18.324  0.00  0.00    +0.000 A 
ATOM     28  C   UNL     1       0.468  10.118  19.412  0.00  0.00    +0.000 A 
BRANCH  23  30
ATOM     29  C   UNL     1       0.074   9.624  23.004  0.00  0.00    +0.000 C 
ATOM     30  O   UNL     1      -0.303   9.816  21.651  0.00  0.00    +0.000 OA
ENDBRANCH  23  30
BRANCH  28  31
ATOM     31  O   UNL     1      -0.200  11.295  19.137  0.00  0.00    +0.000 OA
BRANCH  31  32
ATOM     32  C   UNL     1       0.602  12.364  18.661  0.00  0.00    +0.000 C 
BRANCH  32  33
ATOM     33  C   UNL     1       1.144  13.204  19.803  0.00  0.00    +0.000 C 
BRANCH  33  34
ATOM     34  C   UNL     1       0.209  14.400  19.994  0.00  0.00    +0.000 C 
BRANCH  34  35
ATOM     35  C   UNL     1       0.591  15.532  19.086  0.00  0.00    +0.000 A 
ATOM     36  C   UNL     1       1.936  15.755  18.772  0.00  0.00    +0.000 A 
ATOM     37  C   UNL     1       2.300  16.859  18.001  0.00  0.00    +0.000 A 
ATOM     38  C   UNL     1       1.321  17.740  17.544  0.00  0.00    +0.000 A 
ATOM     39  C   UNL     1      -0.022  17.513  17.841  0.00  0.00    +0.000 A 
ATOM     40  C   UNL     1      -0.387  16.410  18.608  0.00  0.00    +0.000 A 
ENDBRANCH  34  35
ENDBRANCH  33  34
ENDBRANCH  32  33
ENDBRANCH  31  32
ENDBRANCH  28  31
ENDBRANCH  22  25
ENDBRANCH   1  22
TORSDOF 14
ENDMDL
MODEL 5
REMARK VINA RESULT:      -7.6      3.754      7.705
REMARK  Name = 
REMARK  15 active torsions:
REMARK  status: ('A' for Active; 'I' for Inactive)
REMARK    1  A    between atoms: C_1  and  O_2
REMARK    2  A    between atoms: O_2  and  C_3
REMARK    3  A    between atoms: C_5  and  C_6
REMARK    4  A    between atoms: C_6  and  C_7
REMARK    5  A    between atoms: C_7  and  N_8
REMARK    6  A    between atoms: N_8  and  C_9
REMARK    7  A    between atoms: C_9  and  C_10
REMARK    8  A    between atoms: C_10  and  O_11
REMARK    9  A    between atoms: C_10  and  C_12
REMARK   10  A    between atoms: C_15  and  O_16
REMARK   11  A    between atoms: C_26  and  O_27
REMARK   12  A    between atoms: O_27  and  C_28
REMARK   13  A    between atoms: C_28  and  C_29
REMARK   14  A    between atoms: C_29  and  C_30
REMARK   15  A    between atoms: C_30  and  C_31
REMARK                            x       y       z     vdW  Elec       q    Type
REMARK                         _______ _______ _______ _____ _____    ______ ____
ROOT
ATOM      1  C   UNL     1       1.225   4.089  20.276  0.00  0.00    +0.000 C 
ENDROOT
BRANCH   1   2
ATOM      2  N   UNL     1       2.005   3.006  19.656  0.00  0.00    +0.000 NA
ATOM      3  H   UNL     1       2.900   2.948  20.151  0.00  0.00    +0.000 HD
BRANCH   2   4
ATOM      4  C   UNL     1       2.294   3.293  18.229  0.00  0.00    +0.000 C 
BRANCH   4   5
ATOM      5  C   UNL     1       3.717   2.830  17.800  0.00  0.00    +0.000 C 
BRANCH   5   6
ATOM      6  C   UNL     1       4.890   3.794  17.888  0.00  0.00    +0.000 A 
ATOM      7  C   UNL     1       5.162   4.415  19.130  0.00  0.00    +0.000 A 
ATOM      8  C   UNL     1       6.161   5.381  19.271  0.00  0.00    +0.000 A 
ATOM      9  C   UNL     1       6.900   5.755  18.156  0.00  0.00    +0.000 A 
ATOM     10  C   UNL     1       6.681   5.131  16.926  0.00  0.00    +0.000 A 
ATOM     11  C   UNL     1       5.722   4.117  16.806  0.00  0.00    +0.000 A 
ATOM     12  O   UNL     1       5.615   3.377  15.661  0.00  0.00    +0.000 OA
ATOM     13  C   UNL     1       6.011   4.055  14.480  0.00  0.00    +0.000 C 
ATOM     14  C   UNL     1       7.135   5.080  14.550  0.00  0.00    +0.000 C 
ATOM     15  O   UNL     1       7.712   5.512  13.556  0.00  0.00    +0.000 OA
ATOM     16  N   UNL     1       7.409   5.543  15.803  0.00  0.00    +0.000 N 
ATOM     17  H   UNL     1       8.091   6.288  15.916  0.00  0.00    +0.000 HD
BRANCH   9  18
ATOM     18  O   UNL     1       7.849   6.737  18.237  0.00  0.00    +0.000 OA
ATOM     19  H   UNL     1       8.297   6.666  19.098  0.00  0.00    +0.000 HD
ENDBRANCH   9  18
ENDBRANCH   5   6
BRANCH   5  20
ATOM     20  O   UNL     1       4.027   1.695  18.635  0.00  0.00    +0.000 OA
ATOM     21  H   UNL     1       3.531   0.955  18.230  0.00  0.00    +0.000 HD
ENDBRANCH   5  20
ENDBRANCH   4   5
ENDBRANCH   2   4
ENDBRANCH   1   2
BRANCH   1  22
ATOM     22  C   UNL     1       2.091   5.150  20.967  0.00  0.00    +0.000 C 
BRANCH  22  25
ATOM     23  C   UNL     1       2.363   8.021  18.476  0.00  0.00    +0.000 A 
ATOM     24  C   UNL     1       2.483   6.770  19.083  0.00  0.00    +0.000 A 
ATOM     25  C   UNL     1       1.912   6.508  20.336  0.00  0.00    +0.000 A 
ATOM     26  C   UNL     1       1.171   7.503  20.973  0.00  0.00    +0.000 A 
ATOM     27  C   UNL     1       1.012   8.749  20.362  0.00  0.00    +0.000 A 
ATOM     28  C   UNL     1       1.595   9.019  19.120  0.00  0.00    +0.000 A 
BRANCH  23  30
ATOM     29  C   UNL     1       3.972   7.514  16.723  0.00  0.00    +0.000 C 
ATOM     30  O   UNL     1       2.946   8.316  17.281  0.00  0.00    +0.000 OA
ENDBRANCH  23  30
BRANCH  28  31
ATOM     31  O   UNL     1       1.318  10.296  18.676  0.00  0.00    +0.000 OA
BRANCH  31  32
ATOM     32  C   UNL     1       1.266  11.301  19.676  0.00  0.00    +0.000 C 
BRANCH  32  33
ATOM     33  C   UNL     1       1.638  12.662  19.117  0.00  0.00    +0.000 C 
BRANCH  33  34
ATOM     34  C   UNL     1       0.395  13.552  19.175  0.00  0.00    +0.000 C 
BRANCH  34  35
ATOM     35  C   UNL     1       0.732  14.971  18.822  0.00  0.00    +0.000 A 
ATOM     36  C   UNL     1      -0.289  15.912  18.651  0.00  0.00    +0.000 A 
ATOM     37  C   UNL     1       0.017  17.208  18.237  0.00  0.00    +0.000 A 
ATOM     38  C   UNL     1       1.342  17.564  17.992  0.00  0.00    +0.000 A 
ATOM     39  C   UNL     1       2.365  16.634  18.176  0.00  0.00    +0.000 A 
ATOM     40  C   UNL     1       2.061  15.341  18.592  0.00  0.00    +0.000 A 
ENDBRANCH  34  35
ENDBRANCH  33  34
ENDBRANCH  32  33
ENDBRANCH  31  32
ENDBRANCH  28  31
ENDBRANCH  22  25
ENDBRANCH   1  22
TORSDOF 14
ENDMDL
MODEL 6
REMARK VINA RESULT:      -7.6      3.510      9.276
REMARK  Name = 
REMARK  15 active torsions:
REMARK  status: ('A' for Active; 'I' for Inactive)
REMARK    1  A    between atoms: C_1  and  O_2
REMARK    2  A    between atoms: O_2  and  C_3
REMARK    3  A    between atoms: C_5  and  C_6
REMARK    4  A    between atoms: C_6  and  C_7
REMARK    5  A    between atoms: C_7  and  N_8
REMARK    6  A    between atoms: N_8  and  C_9
REMARK    7  A    between atoms: C_9  and  C_10
REMARK    8  A    between atoms: C_10  and  O_11
REMARK    9  A    between atoms: C_10  and  C_12
REMARK   10  A    between atoms: C_15  and  O_16
REMARK   11  A    between atoms: C_26  and  O_27
REMARK   12  A    between atoms: O_27  and  C_28
REMARK   13  A    between atoms: C_28  and  C_29
REMARK   14  A    between atoms: C_29  and  C_30
REMARK   15  A    between atoms: C_30  and  C_31
REMARK                            x       y       z     vdW  Elec       q    Type
REMARK                         _______ _______ _______ _____ _____    ______ ____
ROOT
ATOM      1  C   UNL     1       1.564   5.192  17.785  0.00  0.00    +0.000 C 
ENDROOT
BRANCH   1   2
ATOM      2  N   UNL     1       2.046   3.855  17.402  0.00  0.00    +0.000 NA
ATOM      3  H   UNL     1       1.227   3.284  17.180  0.00  0.00    +0.000 HD
BRANCH   2   4
ATOM      4  C   UNL     1       2.768   3.198  18.520  0.00  0.00    +0.000 C 
BRANCH   4   5
ATOM      5  C   UNL     1       4.227   2.807  18.145  0.00  0.00    +0.000 C 
BRANCH   5   6
ATOM      6  C   UNL     1       5.306   3.876  18.068  0.00  0.00    +0.000 A 
ATOM      7  C   UNL     1       5.616   4.607  19.238  0.00  0.00    +0.000 A 
ATOM      8  C   UNL     1       6.527   5.667  19.228  0.00  0.00    +0.000 A 
ATOM      9  C   UNL     1       7.135   6.023  18.031  0.00  0.00    +0.000 A 
ATOM     10  C   UNL     1       6.877   5.294  16.868  0.00  0.00    +0.000 A 
ATOM     11  C   UNL     1       6.013   4.191  16.898  0.00  0.00    +0.000 A 
ATOM     12  O   UNL     1       5.885   3.364  15.818  0.00  0.00    +0.000 OA
ATOM     13  C   UNL     1       6.117   3.986  14.565  0.00  0.00    +0.000 C 
ATOM     14  C   UNL     1       7.141   5.111  14.471  0.00  0.00    +0.000 C 
ATOM     15  O   UNL     1       7.592   5.519  13.404  0.00  0.00    +0.000 OA
ATOM     16  N   UNL     1       7.470   5.686  15.662  0.00  0.00    +0.000 N 
ATOM     17  H   UNL     1       8.084   6.496  15.666  0.00  0.00    +0.000 HD
BRANCH   9  18
ATOM     18  O   UNL     1       7.989   7.089  17.965  0.00  0.00    +0.000 OA
ATOM     19  H   UNL     1       7.701   7.757  18.612  0.00  0.00    +0.000 HD
ENDBRANCH   9  18
ENDBRANCH   5   6
BRANCH   5  20
ATOM     20  O   UNL     1       4.641   1.846  19.138  0.00  0.00    +0.000 OA
ATOM     21  H   UNL     1       5.618   1.917  19.150  0.00  0.00    +0.000 HD
ENDBRANCH   5  20
ENDBRANCH   4   5
ENDBRANCH   2   4
ENDBRANCH   1   2
BRANCH   1  22
ATOM     22  C   UNL     1       2.686   6.150  18.207  0.00  0.00    +0.000 C 
BRANCH  22  25
ATOM     23  C   UNL     1       1.026   8.838  20.337  0.00  0.00    +0.000 A 
ATOM     24  C   UNL     1       1.567   7.625  19.909  0.00  0.00    +0.000 A 
ATOM     25  C   UNL     1       2.140   7.487  18.638  0.00  0.00    +0.000 A 
ATOM     26  C   UNL     1       2.209   8.597  17.794  0.00  0.00    +0.000 A 
ATOM     27  C   UNL     1       1.703   9.826  18.221  0.00  0.00    +0.000 A 
ATOM     28  C   UNL     1       1.116   9.962  19.483  0.00  0.00    +0.000 A 
BRANCH  23  30
ATOM     29  C   UNL     1       1.153   9.310  22.720  0.00  0.00    +0.000 C 
ATOM     30  O   UNL     1       0.424   8.986  21.549  0.00  0.00    +0.000 OA
ENDBRANCH  23  30
BRANCH  28  31
ATOM     31  O   UNL     1       0.687  11.251  19.727  0.00  0.00    +0.000 OA
BRANCH  31  32
ATOM     32  C   UNL     1       0.767  12.147  18.631  0.00  0.00    +0.000 C 
BRANCH  32  33
ATOM     33  C   UNL     1      -0.547  12.874  18.410  0.00  0.00    +0.000 C 
BRANCH  33  34
ATOM     34  C   UNL     1      -1.540  12.386  19.465  0.00  0.00    +0.000 C 
BRANCH  34  35
ATOM     35  C   UNL     1      -2.844  11.990  18.836  0.00  0.00    +0.000 A 
ATOM     36  C   UNL     1      -4.047  12.227  19.508  0.00  0.00    +0.000 A 
ATOM     37  C   UNL     1      -5.252  11.780  18.964  0.00  0.00    +0.000 A 
ATOM     38  C   UNL     1      -5.254  11.098  17.750  0.00  0.00    +0.000 A 
ATOM     39  C   UNL     1      -4.058  10.873  17.068  0.00  0.00    +0.000 A 
ATOM     40  C   UNL     1      -2.856  11.320  17.608  0.00  0.00    +0.000 A 
ENDBRANCH  34  35
ENDBRANCH  33  34
ENDBRANCH  32  33
ENDBRANCH  31  32
ENDBRANCH  28  31
ENDBRANCH  22  25
ENDBRANCH   1  22
TORSDOF 14
ENDMDL
MODEL 7
REMARK VINA RESULT:      -7.6      3.507      9.603
REMARK  Name = 
REMARK  15 active torsions:
REMARK  status: ('A' for Active; 'I' for Inactive)
REMARK    1  A    between atoms: C_1  and  O_2
REMARK    2  A    between atoms: O_2  and  C_3
REMARK    3  A    between atoms: C_5  and  C_6
REMARK    4  A    between atoms: C_6  and  C_7
REMARK    5  A    between atoms: C_7  and  N_8
REMARK    6  A    between atoms: N_8  and  C_9
REMARK    7  A    between atoms: C_9  and  C_10
REMARK    8  A    between atoms: C_10  and  O_11
REMARK    9  A    between atoms: C_10  and  C_12
REMARK   10  A    between atoms: C_15  and  O_16
REMARK   11  A    between atoms: C_26  and  O_27
REMARK   12  A    between atoms: O_27  and  C_28
REMARK   13  A    between atoms: C_28  and  C_29
REMARK   14  A    between atoms: C_29  and  C_30
REMARK   15  A    between atoms: C_30  and  C_31
REMARK                            x       y       z     vdW  Elec       q    Type
REMARK                         _______ _______ _______ _____ _____    ______ ____
ROOT
ATOM      1  C   UNL     1       2.152   5.533  18.259  0.00  0.00    +0.000 C 
ENDROOT
BRANCH   1   2
ATOM      2  N   UNL     1       1.754   4.120  18.140  0.00  0.00    +0.000 NA
ATOM      3  H   UNL     1       1.828   3.700  19.070  0.00  0.00    +0.000 HD
BRANCH   2   4
ATOM      4  C   UNL     1       2.662   3.376  17.233  0.00  0.00    +0.000 C 
BRANCH   4   5
ATOM      5  C   UNL     1       3.995   2.965  17.923  0.00  0.00    +0.000 C 
BRANCH   5   6
ATOM      6  C   UNL     1       5.170   3.931  17.947  0.00  0.00    +0.000 A 
ATOM      7  C   UNL     1       5.506   4.554  19.172  0.00  0.00    +0.000 A 
ATOM      8  C   UNL     1       6.510   5.523  19.258  0.00  0.00    +0.000 A 
ATOM      9  C   UNL     1       7.188   5.896  18.104  0.00  0.00    +0.000 A 
ATOM     10  C   UNL     1       6.904   5.270  16.889  0.00  0.00    +0.000 A 
ATOM     11  C   UNL     1       5.942   4.253  16.821  0.00  0.00    +0.000 A 
ATOM     12  O   UNL     1       5.775   3.512  15.685  0.00  0.00    +0.000 OA
ATOM     13  C   UNL     1       6.106   4.188  14.484  0.00  0.00    +0.000 C 
ATOM     14  C   UNL     1       7.230   5.216  14.492  0.00  0.00    +0.000 C 
ATOM     15  O   UNL     1       7.753   5.648  13.468  0.00  0.00    +0.000 OA
ATOM     16  N   UNL     1       7.570   5.681  15.728  0.00  0.00    +0.000 N 
ATOM     17  H   UNL     1       8.256   6.428  15.803  0.00  0.00    +0.000 HD
BRANCH   9  18
ATOM     18  O   UNL     1       8.138   6.880  18.133  0.00  0.00    +0.000 OA
ATOM     19  H   UNL     1       8.613   6.828  18.981  0.00  0.00    +0.000 HD
ENDBRANCH   9  18
ENDBRANCH   5   6
BRANCH   5  20
ATOM     20  O   UNL     1       3.652   2.670  19.293  0.00  0.00    +0.000 OA
ATOM     21  H   UNL     1       4.121   1.831  19.484  0.00  0.00    +0.000 HD
ENDBRANCH   5  20
ENDBRANCH   4   5
ENDBRANCH   2   4
ENDBRANCH   1   2
BRANCH   1  22
ATOM     22  C   UNL     1       2.169   6.045  19.705  0.00  0.00    +0.000 C 
BRANCH  22  25
ATOM     23  C   UNL     1       1.227   9.460  21.107  0.00  0.00    +0.000 A 
ATOM     24  C   UNL     1       1.540   8.104  21.005  0.00  0.00    +0.000 A 
ATOM     25  C   UNL     1       1.865   7.520  19.773  0.00  0.00    +0.000 A 
ATOM     26  C   UNL     1       1.918   8.318  18.630  0.00  0.00    +0.000 A 
ATOM     27  C   UNL     1       1.641   9.683  18.722  0.00  0.00    +0.000 A 
ATOM     28  C   UNL     1       1.301  10.265  19.947  0.00  0.00    +0.000 A 
BRANCH  23  30
ATOM     29  C   UNL     1      -0.478  10.058  22.738  0.00  0.00    +0.000 C 
ATOM     30  O   UNL     1       0.864  10.042  22.284  0.00  0.00    +0.000 OA
ENDBRANCH  23  30
BRANCH  28  31
ATOM     31  O   UNL     1       1.074  11.623  19.839  0.00  0.00    +0.000 OA
BRANCH  31  32
ATOM     32  C   UNL     1       0.077  12.011  18.908  0.00  0.00    +0.000 C 
BRANCH  32  33
ATOM     33  C   UNL     1      -1.318  11.806  19.470  0.00  0.00    +0.000 C 
BRANCH  33  34
ATOM     34  C   UNL     1      -2.039  10.789  18.583  0.00  0.00    +0.000 C 
BRANCH  34  35
ATOM     35  C   UNL     1      -3.400  11.285  18.193  0.00  0.00    +0.000 A 
ATOM     36  C   UNL     1      -3.855  11.126  16.880  0.00  0.00    +0.000 A 
ATOM     37  C   UNL     1      -5.083  11.664  16.494  0.00  0.00    +0.000 A 
ATOM     38  C   UNL     1      -5.856  12.361  17.421  0.00  0.00    +0.000 A 
ATOM     39  C   UNL     1      -5.415  12.509  18.736  0.00  0.00    +0.000 A 
ATOM     40  C   UNL     1      -4.191  11.969  19.122  0.00  0.00    +0.000 A 
ENDBRANCH  34  35
ENDBRANCH  33  34
ENDBRANCH  32  33
ENDBRANCH  31  32
ENDBRANCH  28  31
ENDBRANCH  22  25
ENDBRANCH   1  22
TORSDOF 14
ENDMDL
MODEL 8
REMARK VINA RESULT:      -7.6      3.067      6.478
REMARK  Name = 
REMARK  15 active torsions:
REMARK  status: ('A' for Active; 'I' for Inactive)
REMARK    1  A    between atoms: C_1  and  O_2
REMARK    2  A    between atoms: O_2  and  C_3
REMARK    3  A    between atoms: C_5  and  C_6
REMARK    4  A    between atoms: C_6  and  C_7
REMARK    5  A    between atoms: C_7  and  N_8
REMARK    6  A    between atoms: N_8  and  C_9
REMARK    7  A    between atoms: C_9  and  C_10
REMARK    8  A    between atoms: C_10  and  O_11
REMARK    9  A    between atoms: C_10  and  C_12
REMARK   10  A    between atoms: C_15  and  O_16
REMARK   11  A    between atoms: C_26  and  O_27
REMARK   12  A    between atoms: O_27  and  C_28
REMARK   13  A    between atoms: C_28  and  C_29
REMARK   14  A    between atoms: C_29  and  C_30
REMARK   15  A    between atoms: C_30  and  C_31
REMARK                            x       y       z     vdW  Elec       q    Type
REMARK                         _______ _______ _______ _____ _____    ______ ____
ROOT
ATOM      1  C   UNL     1       7.781   8.431  17.590  0.00  0.00    +0.000 C 
ENDROOT
BRANCH   1   2
ATOM      2  N   UNL     1       7.494   7.007  17.829  0.00  0.00    +0.000 NA
ATOM      3  H   UNL     1       8.345   6.481  17.613  0.00  0.00    +0.000 HD
BRANCH   2   4
ATOM      4  C   UNL     1       6.416   6.514  16.937  0.00  0.00    +0.000 C 
BRANCH   4   5
ATOM      5  C   UNL     1       5.592   5.358  17.573  0.00  0.00    +0.000 C 
BRANCH   5   6
ATOM      6  C   UNL     1       4.336   5.668  18.373  0.00  0.00    +0.000 A 
ATOM      7  C   UNL     1       3.782   6.967  18.281  0.00  0.00    +0.000 A 
ATOM      8  C   UNL     1       2.686   7.359  19.055  0.00  0.00    +0.000 A 
ATOM      9  C   UNL     1       2.133   6.453  19.950  0.00  0.00    +0.000 A 
ATOM     10  C   UNL     1       2.634   5.153  20.034  0.00  0.00    +0.000 A 
ATOM     11  C   UNL     1       3.692   4.745  19.209  0.00  0.00    +0.000 A 
ATOM     12  O   UNL     1       4.079   3.435  19.151  0.00  0.00    +0.000 OA
ATOM     13  C   UNL     1       3.845   2.696  20.338  0.00  0.00    +0.000 C 
ATOM     14  C   UNL     1       2.634   3.033  21.199  0.00  0.00    +0.000 C 
ATOM     15  O   UNL     1       2.212   2.291  22.082  0.00  0.00    +0.000 OA
ATOM     16  N   UNL     1       2.091   4.261  20.966  0.00  0.00    +0.000 N 
ATOM     17  H   UNL     1       1.332   4.585  21.559  0.00  0.00    +0.000 HD
BRANCH   9  18
ATOM     18  O   UNL     1       1.096   6.813  20.767  0.00  0.00    +0.000 OA
ATOM     19  H   UNL     1       0.319   7.007  20.214  0.00  0.00    +0.000 HD
ENDBRANCH   9  18
ENDBRANCH   5   6
BRANCH   5  20
ATOM     20  O   UNL     1       5.205   4.504  16.476  0.00  0.00    +0.000 OA
ATOM     21  H   UNL     1       4.410   4.036  16.804  0.00  0.00    +0.000 HD
ENDBRANCH   5  20
ENDBRANCH   4   5
ENDBRANCH   2   4
ENDBRANCH   1   2
BRANCH   1  22
ATOM     22  C   UNL     1       8.649   9.072  18.681  0.00  0.00    +0.000 C 
BRANCH  22  25
ATOM     23  C   UNL     1       8.501  12.729  17.623  0.00  0.00    +0.000 A 
ATOM     24  C   UNL     1       8.133  11.442  18.013  0.00  0.00    +0.000 A 
ATOM     25  C   UNL     1       9.093  10.459  18.291  0.00  0.00    +0.000 A 
ATOM     26  C   UNL     1      10.448  10.786  18.217  0.00  0.00    +0.000 A 
ATOM     27  C   UNL     1      10.831  12.080  17.862  0.00  0.00    +0.000 A 
ATOM     28  C   UNL     1       9.875  13.058  17.568  0.00  0.00    +0.000 A 
BRANCH  23  30
ATOM     29  C   UNL     1       7.118  14.630  18.253  0.00  0.00    +0.000 C 
ATOM     30  O   UNL     1       7.588  13.689  17.304  0.00  0.00    +0.000 OA
ENDBRANCH  23  30
BRANCH  28  31
ATOM     31  O   UNL     1      10.446  14.274  17.250  0.00  0.00    +0.000 OA
BRANCH  31  32
ATOM     32  C   UNL     1      11.404  14.767  18.174  0.00  0.00    +0.000 C 
BRANCH  32  33
ATOM     33  C   UNL     1      10.756  15.637  19.235  0.00  0.00    +0.000 C 
BRANCH  33  34
ATOM     34  C   UNL     1      11.087  15.038  20.603  0.00  0.00    +0.000 C 
BRANCH  34  35
ATOM     35  C   UNL     1       9.982  14.141  21.079  0.00  0.00    +0.000 A 
ATOM     36  C   UNL     1       8.744  14.683  21.438  0.00  0.00    +0.000 A 
ATOM     37  C   UNL     1       7.747  13.861  21.964  0.00  0.00    +0.000 A 
ATOM     38  C   UNL     1       7.987  12.499  22.131  0.00  0.00    +0.000 A 
ATOM     39  C   UNL     1       9.214  11.950  21.759  0.00  0.00    +0.000 A 
ATOM     40  C   UNL     1      10.209  12.768  21.231  0.00  0.00    +0.000 A 
ENDBRANCH  34  35
ENDBRANCH  33  34
ENDBRANCH  32  33
ENDBRANCH  31  32
ENDBRANCH  28  31
ENDBRANCH  22  25
ENDBRANCH   1  22
TORSDOF 14
ENDMDL
MODEL 9
REMARK VINA RESULT:      -7.5      4.697     11.335
REMARK  Name = 
REMARK  15 active torsions:
REMARK  status: ('A' for Active; 'I' for Inactive)
REMARK    1  A    between atoms: C_1  and  O_2
REMARK    2  A    between atoms: O_2  and  C_3
REMARK    3  A    between atoms: C_5  and  C_6
REMARK    4  A    between atoms: C_6  and  C_7
REMARK    5  A    between atoms: C_7  and  N_8
REMARK    6  A    between atoms: N_8  and  C_9
REMARK    7  A    between atoms: C_9  and  C_10
REMARK    8  A    between atoms: C_10  and  O_11
REMARK    9  A    between atoms: C_10  and  C_12
REMARK   10  A    between atoms: C_15  and  O_16
REMARK   11  A    between atoms: C_26  and  O_27
REMARK   12  A    between atoms: O_27  and  C_28
REMARK   13  A    between atoms: C_28  and  C_29
REMARK   14  A    between atoms: C_29  and  C_30
REMARK   15  A    between atoms: C_30  and  C_31
REMARK                            x       y       z     vdW  Elec       q    Type
REMARK                         _______ _______ _______ _____ _____    ______ ____
ROOT
ATOM      1  C   UNL     1       0.835   9.334  21.872  0.00  0.00    +0.000 C 
ENDROOT
BRANCH   1   2
ATOM      2  N   UNL     1       1.820   8.266  21.630  0.00  0.00    +0.000 NA
ATOM      3  H   UNL     1       2.713   8.714  21.408  0.00  0.00    +0.000 HD
BRANCH   2   4
ATOM      4  C   UNL     1       1.433   7.425  20.470  0.00  0.00    +0.000 C 
BRANCH   4   5
ATOM      5  C   UNL     1       2.630   7.127  19.520  0.00  0.00    +0.000 C 
BRANCH   5   6
ATOM      6  C   UNL     1       3.229   5.729  19.466  0.00  0.00    +0.000 A 
ATOM      7  C   UNL     1       2.628   4.708  20.238  0.00  0.00    +0.000 A 
ATOM      8  C   UNL     1       3.173   3.423  20.316  0.00  0.00    +0.000 A 
ATOM      9  C   UNL     1       4.346   3.145  19.627  0.00  0.00    +0.000 A 
ATOM     10  C   UNL     1       4.940   4.122  18.826  0.00  0.00    +0.000 A 
ATOM     11  C   UNL     1       4.353   5.389  18.700  0.00  0.00    +0.000 A 
ATOM     12  O   UNL     1       4.819   6.296  17.789  0.00  0.00    +0.000 OA
ATOM     13  C   UNL     1       6.198   6.174  17.484  0.00  0.00    +0.000 C 
ATOM     14  C   UNL     1       6.844   4.795  17.494  0.00  0.00    +0.000 C 
ATOM     15  O   UNL     1       7.942   4.565  16.995  0.00  0.00    +0.000 OA
ATOM     16  N   UNL     1       6.141   3.838  18.165  0.00  0.00    +0.000 N 
ATOM     17  H   UNL     1       6.550   2.916  18.281  0.00  0.00    +0.000 HD
BRANCH   9  18
ATOM     18  O   UNL     1       4.944   1.917  19.721  0.00  0.00    +0.000 OA
ATOM     19  H   UNL     1       5.889   2.016  19.508  0.00  0.00    +0.000 HD
ENDBRANCH   9  18
ENDBRANCH   5   6
BRANCH   5  20
ATOM     20  O   UNL     1       2.165   7.449  18.193  0.00  0.00    +0.000 OA
ATOM     21  H   UNL     1       2.737   6.918  17.601  0.00  0.00    +0.000 HD
ENDBRANCH   5  20
ENDBRANCH   4   5
ENDBRANCH   2   4
ENDBRANCH   1   2
BRANCH   1  22
ATOM     22  C   UNL     1       1.052  10.576  20.998  0.00  0.00    +0.000 C 
BRANCH  22  25
ATOM     23  C   UNL     1      -2.365  11.760  19.799  0.00  0.00    +0.000 A 
ATOM     24  C   UNL     1      -1.241  11.526  20.592  0.00  0.00    +0.000 A 
ATOM     25  C   UNL     1      -0.129  10.831  20.096  0.00  0.00    +0.000 A 
ATOM     26  C   UNL     1      -0.126  10.401  18.769  0.00  0.00    +0.000 A 
ATOM     27  C   UNL     1      -1.229  10.659  17.953  0.00  0.00    +0.000 A 
ATOM     28  C   UNL     1      -2.347  11.336  18.450  0.00  0.00    +0.000 A 
BRANCH  23  30
ATOM     29  C   UNL     1      -3.519  13.793  20.474  0.00  0.00    +0.000 C 
ATOM     30  O   UNL     1      -3.476  12.392  20.270  0.00  0.00    +0.000 OA
ENDBRANCH  23  30
BRANCH  28  31
ATOM     31  O   UNL     1      -3.328  11.505  17.493  0.00  0.00    +0.000 OA
BRANCH  31  32
ATOM     32  C   UNL     1      -4.482  10.693  17.640  0.00  0.00    +0.000 C 
BRANCH  32  33
ATOM     33  C   UNL     1      -5.754  11.517  17.575  0.00  0.00    +0.000 C 
BRANCH  33  34
ATOM     34  C   UNL     1      -6.769  10.896  18.536  0.00  0.00    +0.000 C 
BRANCH  34  35
ATOM     35  C   UNL     1      -7.110  11.847  19.646  0.00  0.00    +0.000 A 
ATOM     36  C   UNL     1      -7.146  11.397  20.969  0.00  0.00    +0.000 A 
ATOM     37  C   UNL     1      -7.549  12.257  21.991  0.00  0.00    +0.000 A 
ATOM     38  C   UNL     1      -7.916  13.567  21.690  0.00  0.00    +0.000 A 
ATOM     39  C   UNL     1      -7.868  14.026  20.374  0.00  0.00    +0.000 A 
ATOM     40  C   UNL     1      -7.463  13.169  19.354  0.00  0.00    +0.000 A 
ENDBRANCH  34  35
ENDBRANCH  33  34
ENDBRANCH  32  33
ENDBRANCH  31  32
ENDBRANCH  28  31
ENDBRANCH  22  25
ENDBRANCH   1  22
TORSDOF 14
ENDMDL
