MODEL 1
REMARK VINA RESULT:      -7.4      0.000      0.000
REMARK  Name = 
REMARK  10 active torsions:
REMARK  status: ('A' for Active; 'I' for Inactive)
REMARK    1  A    between atoms: C_1  and  C_2
REMARK    2  A    between atoms: C_2  and  C_3
REMARK    3  A    between atoms: C_2  and  C_4
REMARK    4  A    between atoms: C_4  and  C_5
REMARK    5  A    between atoms: C_9  and  C_10
REMARK    6  A    between atoms: C_9  and  C_11
REMARK    7  A    between atoms: C_23  and  C_24
REMARK    8  A    between atoms: C_24  and  C_25
REMARK    9  A    between atoms: C_24  and  C_26
REMARK   10  A    between atoms: C_27  and  C_28
REMARK                            x       y       z     vdW  Elec       q    Type
REMARK                         _______ _______ _______ _____ _____    ______ ____
ROOT
ATOM      1  C   UNL     1       0.362  13.364  19.543  0.00  0.00    +0.000 C 
ATOM      2  O   UNL     1       0.837  14.719  19.554  0.00  0.00    +0.000 OA
ATOM      3  C   UNL     1      -0.147  15.657  19.660  0.00  0.00    +0.000 C 
ATOM      4  O   UNL     1      -0.749  16.066  18.674  0.00  0.00    +0.000 OA
ATOM      5  C   UNL     1      -0.358  16.179  21.086  0.00  0.00    +0.000 C 
ATOM      6  C   UNL     1       0.077  15.155  22.151  0.00  0.00    +0.000 C 
ATOM      7  C   UNL     1       0.493  17.440  21.276  0.00  0.00    +0.000 C 
ATOM      8  C   UNL     1      -1.872  16.509  21.221  0.00  0.00    +0.000 C 
ATOM      9  N   UNL     1      -2.298  16.554  22.611  0.00  0.00    +0.000 N 
ATOM     10  C   UNL     1      -3.321  15.730  23.053  0.00  0.00    +0.000 C 
ATOM     11  O   UNL     1      -4.280  15.414  22.359  0.00  0.00    +0.000 OA
ATOM     12  C   UNL     1      -3.029  15.154  24.442  0.00  0.00    +0.000 C 
ATOM     13  N   UNL     1      -3.975  14.178  24.943  0.00  0.00    +0.000 N 
ATOM     14  C   UNL     1      -4.043  12.845  24.686  0.00  0.00    +0.000 C 
ATOM     15  O   UNL     1      -4.759  12.107  25.354  0.00  0.00    +0.000 OA
ATOM     16  C   UNL     1      -3.337  12.311  23.507  0.00  0.00    +0.000 C 
ATOM     17  C   UNL     1      -2.019  12.061  23.448  0.00  0.00    +0.000 C 
ATOM     18  C   UNL     1      -1.423  11.533  22.174  0.00  0.00    +0.000 C 
ATOM     19  C   UNL     1       0.094  11.223  22.183  0.00  0.00    +0.000 C 
ATOM     20  O   UNL     1       0.512  11.340  20.793  0.00  0.00    +0.000 OA
ATOM     21  C   UNL     1       1.184  12.496  20.504  0.00  0.00    +0.000 C 
ATOM     22  O   UNL     1       2.215  12.837  21.075  0.00  0.00    +0.000 OA
ATOM     23  H   UNL     1      -1.670  16.968  23.289  0.00  0.00    +0.000 HD
ATOM     24  H   UNL     1      -4.629  14.475  25.656  0.00  0.00    +0.000 HD
ENDROOT
BRANCH  19  25
ATOM     25  C   UNL     1       0.430   9.810  22.740  0.00  0.00    +0.000 C 
ATOM     26  C   UNL     1      -0.817   8.998  23.100  0.00  0.00    +0.000 C 
BRANCH  25  27
ATOM     27  C   UNL     1       1.236   9.039  21.716  0.00  0.00    +0.000 C 
ATOM     28  C   UNL     1       0.863   7.892  21.118  0.00  0.00    +0.000 C 
BRANCH  28  29
ATOM     29  C   UNL     1       1.759   7.169  20.200  0.00  0.00    +0.000 A 
ATOM     30  C   UNL     1       2.116   5.834  20.450  0.00  0.00    +0.000 A 
ATOM     31  C   UNL     1       2.952   5.142  19.575  0.00  0.00    +0.000 A 
ATOM     32  C   UNL     1       3.431   5.767  18.429  0.00  0.00    +0.000 A 
ATOM     33  C   UNL     1       3.064   7.084  18.153  0.00  0.00    +0.000 A 
ATOM     34  C   UNL     1       2.226   7.782  19.031  0.00  0.00    +0.000 A 
ENDBRANCH  28  29
ENDBRANCH  25  27
ENDBRANCH  19  25
BRANCH   1  35
ATOM     35  C   UNL     1       0.251  12.756  18.145  0.00  0.00    +0.000 C 
BRANCH  35  37
ATOM     36  C   UNL     1      -0.695  10.467  17.867  0.00  0.00    +0.000 C 
ATOM     37  C   UNL     1      -1.023  11.964  17.811  0.00  0.00    +0.000 C 
ATOM     38  C   UNL     1      -2.188  12.258  18.756  0.00  0.00    +0.000 C 
ENDBRANCH  35  37
ENDBRANCH   1  35
TORSDOF 5
ENDMDL
MODEL 2
REMARK VINA RESULT:      -7.3      2.885      4.823
REMARK  Name = 
REMARK  10 active torsions:
REMARK  status: ('A' for Active; 'I' for Inactive)
REMARK    1  A    between atoms: C_1  and  C_2
REMARK    2  A    between atoms: C_2  and  C_3
REMARK    3  A    between atoms: C_2  and  C_4
REMARK    4  A    between atoms: C_4  and  C_5
REMARK    5  A    between atoms: C_9  and  C_10
REMARK    6  A    between atoms: C_9  and  C_11
REMARK    7  A    between atoms: C_23  and  C_24
REMARK    8  A    between atoms: C_24  and  C_25
REMARK    9  A    between atoms: C_24  and  C_26
REMARK   10  A    between atoms: C_27  and  C_28
REMARK                            x       y       z     vdW  Elec       q    Type
REMARK                         _______ _______ _______ _____ _____    ______ ____
ROOT
ATOM      1  C   UNL     1      -0.058  16.451  21.850  0.00  0.00    +0.000 C 
ATOM      2  O   UNL     1       0.027  16.980  23.183  0.00  0.00    +0.000 OA
ATOM      3  C   UNL     1      -1.151  17.463  23.671  0.00  0.00    +0.000 C 
ATOM      4  O   UNL     1      -1.520  18.607  23.433  0.00  0.00    +0.000 OA
ATOM      5  C   UNL     1      -1.900  16.478  24.576  0.00  0.00    +0.000 C 
ATOM      6  C   UNL     1      -1.550  15.013  24.256  0.00  0.00    +0.000 C 
ATOM      7  C   UNL     1      -1.499  16.748  26.031  0.00  0.00    +0.000 C 
ATOM      8  C   UNL     1      -3.418  16.743  24.364  0.00  0.00    +0.000 C 
ATOM      9  N   UNL     1      -4.231  15.608  24.771  0.00  0.00    +0.000 N 
ATOM     10  C   UNL     1      -5.091  15.006  23.865  0.00  0.00    +0.000 C 
ATOM     11  O   UNL     1      -5.688  15.623  22.990  0.00  0.00    +0.000 OA
ATOM     12  C   UNL     1      -5.083  13.480  23.999  0.00  0.00    +0.000 C 
ATOM     13  N   UNL     1      -5.850  12.746  23.014  0.00  0.00    +0.000 N 
ATOM     14  C   UNL     1      -5.493  12.381  21.754  0.00  0.00    +0.000 C 
ATOM     15  O   UNL     1      -6.159  11.572  21.116  0.00  0.00    +0.000 OA
ATOM     16  C   UNL     1      -4.358  13.067  21.109  0.00  0.00    +0.000 C 
ATOM     17  C   UNL     1      -3.063  12.801  21.347  0.00  0.00    +0.000 C 
ATOM     18  C   UNL     1      -2.003  13.590  20.632  0.00  0.00    +0.000 C 
ATOM     19  C   UNL     1      -0.531  13.207  20.915  0.00  0.00    +0.000 C 
ATOM     20  O   UNL     1       0.234  14.417  20.645  0.00  0.00    +0.000 OA
ATOM     21  C   UNL     1       0.639  15.088  21.766  0.00  0.00    +0.000 C 
ATOM     22  O   UNL     1       1.332  14.580  22.642  0.00  0.00    +0.000 OA
ATOM     23  H   UNL     1      -3.961  15.101  25.605  0.00  0.00    +0.000 HD
ATOM     24  H   UNL     1      -6.738  12.355  23.299  0.00  0.00    +0.000 HD
ENDROOT
BRANCH  19  25
ATOM     25  C   UNL     1      -0.021  12.028  20.039  0.00  0.00    +0.000 C 
ATOM     26  C   UNL     1       0.056  10.704  20.805  0.00  0.00    +0.000 C 
BRANCH  25  27
ATOM     27  C   UNL     1      -0.936  11.849  18.846  0.00  0.00    +0.000 C 
ATOM     28  C   UNL     1      -1.648  10.744  18.555  0.00  0.00    +0.000 C 
BRANCH  28  29
ATOM     29  C   UNL     1      -2.441  10.635  17.319  0.00  0.00    +0.000 A 
ATOM     30  C   UNL     1      -2.046   9.770  16.286  0.00  0.00    +0.000 A 
ATOM     31  C   UNL     1      -2.803   9.653  15.122  0.00  0.00    +0.000 A 
ATOM     32  C   UNL     1      -3.975  10.388  14.977  0.00  0.00    +0.000 A 
ATOM     33  C   UNL     1      -4.394  11.233  16.004  0.00  0.00    +0.000 A 
ATOM     34  C   UNL     1      -3.635  11.352  17.175  0.00  0.00    +0.000 A 
ENDBRANCH  28  29
ENDBRANCH  25  27
ENDBRANCH  19  25
BRANCH   1  35
ATOM     35  C   UNL     1       0.409  17.423  20.767  0.00  0.00    +0.000 C 
BRANCH  35  37
ATOM     36  C   UNL     1      -0.162  16.996  18.378  0.00  0.00    +0.000 C 
ATOM     37  C   UNL     1      -0.579  17.763  19.640  0.00  0.00    +0.000 C 
ATOM     38  C   UNL     1      -2.030  17.419  19.978  0.00  0.00    +0.000 C 
ENDBRANCH  35  37
ENDBRANCH   1  35
TORSDOF 5
ENDMDL
MODEL 3
REMARK VINA RESULT:      -7.2      2.624      4.632
REMARK  Name = 
REMARK  10 active torsions:
REMARK  status: ('A' for Active; 'I' for Inactive)
REMARK    1  A    between atoms: C_1  and  C_2
REMARK    2  A    between atoms: C_2  and  C_3
REMARK    3  A    between atoms: C_2  and  C_4
REMARK    4  A    between atoms: C_4  and  C_5
REMARK    5  A    between atoms: C_9  and  C_10
REMARK    6  A    between atoms: C_9  and  C_11
REMARK    7  A    between atoms: C_23  and  C_24
REMARK    8  A    between atoms: C_24  and  C_25
REMARK    9  A    between atoms: C_24  and  C_26
REMARK   10  A    between atoms: C_27  and  C_28
REMARK                            x       y       z     vdW  Elec       q    Type
REMARK                         _______ _______ _______ _____ _____    ______ ____
ROOT
ATOM      1  C   UNL     1      -0.026  13.811  21.361  0.00  0.00    +0.000 C 
ATOM      2  O   UNL     1      -0.667  13.757  22.645  0.00  0.00    +0.000 OA
ATOM      3  C   UNL     1      -1.953  14.211  22.650  0.00  0.00    +0.000 C 
ATOM      4  O   UNL     1      -2.209  15.402  22.772  0.00  0.00    +0.000 OA
ATOM      5  C   UNL     1      -3.005  13.099  22.563  0.00  0.00    +0.000 C 
ATOM      6  C   UNL     1      -2.461  11.836  21.869  0.00  0.00    +0.000 C 
ATOM      7  C   UNL     1      -3.423  12.708  23.985  0.00  0.00    +0.000 C 
ATOM      8  C   UNL     1      -4.210  13.687  21.775  0.00  0.00    +0.000 C 
ATOM      9  N   UNL     1      -5.054  12.644  21.212  0.00  0.00    +0.000 N 
ATOM     10  C   UNL     1      -5.292  12.602  19.846  0.00  0.00    +0.000 C 
ATOM     11  O   UNL     1      -5.387  13.604  19.147  0.00  0.00    +0.000 OA
ATOM     12  C   UNL     1      -5.270  11.168  19.308  0.00  0.00    +0.000 C 
ATOM     13  N   UNL     1      -5.380  11.021  17.871  0.00  0.00    +0.000 N 
ATOM     14  C   UNL     1      -4.408  11.118  16.926  0.00  0.00    +0.000 C 
ATOM     15  O   UNL     1      -4.606  10.750  15.774  0.00  0.00    +0.000 OA
ATOM     16  C   UNL     1      -3.142  11.790  17.274  0.00  0.00    +0.000 C 
ATOM     17  C   UNL     1      -2.141  11.230  17.973  0.00  0.00    +0.000 C 
ATOM     18  C   UNL     1      -0.910  12.036  18.274  0.00  0.00    +0.000 C 
ATOM     19  C   UNL     1       0.227  11.322  19.045  0.00  0.00    +0.000 C 
ATOM     20  O   UNL     1       0.954  12.388  19.720  0.00  0.00    +0.000 OA
ATOM     21  C   UNL     1       0.689  12.489  21.059  0.00  0.00    +0.000 C 
ATOM     22  O   UNL     1       0.860  11.568  21.851  0.00  0.00    +0.000 OA
ATOM     23  H   UNL     1      -5.222  11.815  21.767  0.00  0.00    +0.000 HD
ATOM     24  H   UNL     1      -6.266  10.712  17.493  0.00  0.00    +0.000 HD
ENDROOT
BRANCH  19  25
ATOM     25  C   UNL     1       1.178  10.507  18.124  0.00  0.00    +0.000 C 
ATOM     26  C   UNL     1       2.544  11.174  17.935  0.00  0.00    +0.000 C 
BRANCH  25  27
ATOM     27  C   UNL     1       1.387   9.124  18.704  0.00  0.00    +0.000 C 
ATOM     28  C   UNL     1       2.194   8.170  18.202  0.00  0.00    +0.000 C 
BRANCH  28  29
ATOM     29  C   UNL     1       2.260   6.822  18.790  0.00  0.00    +0.000 A 
ATOM     30  C   UNL     1       2.026   6.625  20.161  0.00  0.00    +0.000 A 
ATOM     31  C   UNL     1       2.073   5.348  20.718  0.00  0.00    +0.000 A 
ATOM     32  C   UNL     1       2.340   4.246  19.912  0.00  0.00    +0.000 A 
ATOM     33  C   UNL     1       2.548   4.423  18.545  0.00  0.00    +0.000 A 
ATOM     34  C   UNL     1       2.502   5.704  17.983  0.00  0.00    +0.000 A 
ENDBRANCH  28  29
ENDBRANCH  25  27
ENDBRANCH  19  25
BRANCH   1  35
ATOM     35  C   UNL     1       0.877  15.029  21.169  0.00  0.00    +0.000 C 
BRANCH  35  37
ATOM     36  C   UNL     1       1.712  15.747  18.933  0.00  0.00    +0.000 C 
ATOM     37  C   UNL     1       0.595  15.943  19.966  0.00  0.00    +0.000 C 
ATOM     38  C   UNL     1      -0.755  15.675  19.301  0.00  0.00    +0.000 C 
ENDBRANCH  35  37
ENDBRANCH   1  35
TORSDOF 5
ENDMDL
MODEL 4
REMARK VINA RESULT:      -6.9      2.189      3.718
REMARK  Name = 
REMARK  10 active torsions:
REMARK  status: ('A' for Active; 'I' for Inactive)
REMARK    1  A    between atoms: C_1  and  C_2
REMARK    2  A    between atoms: C_2  and  C_3
REMARK    3  A    between atoms: C_2  and  C_4
REMARK    4  A    between atoms: C_4  and  C_5
REMARK    5  A    between atoms: C_9  and  C_10
REMARK    6  A    between atoms: C_9  and  C_11
REMARK    7  A    between atoms: C_23  and  C_24
REMARK    8  A    between atoms: C_24  and  C_25
REMARK    9  A    between atoms: C_24  and  C_26
REMARK   10  A    between atoms: C_27  and  C_28
REMARK                            x       y       z     vdW  Elec       q    Type
REMARK                         _______ _______ _______ _____ _____    ______ ____
ROOT
ATOM      1  C   UNL     1      -0.401  15.195  21.288  0.00  0.00    +0.000 C 
ATOM      2  O   UNL     1       0.004  15.450  22.642  0.00  0.00    +0.000 OA
ATOM      3  C   UNL     1      -0.875  16.208  23.357  0.00  0.00    +0.000 C 
ATOM      4  O   UNL     1      -0.850  17.432  23.308  0.00  0.00    +0.000 OA
ATOM      5  C   UNL     1      -1.814  15.392  24.253  0.00  0.00    +0.000 C 
ATOM      6  C   UNL     1      -2.028  13.962  23.722  0.00  0.00    +0.000 C 
ATOM      7  C   UNL     1      -1.189  15.284  25.648  0.00  0.00    +0.000 C 
ATOM      8  C   UNL     1      -3.161  16.168  24.310  0.00  0.00    +0.000 C 
ATOM      9  N   UNL     1      -4.267  15.311  24.710  0.00  0.00    +0.000 N 
ATOM     10  C   UNL     1      -5.374  15.173  23.887  0.00  0.00    +0.000 C 
ATOM     11  O   UNL     1      -5.813  16.079  23.189  0.00  0.00    +0.000 OA
ATOM     12  C   UNL     1      -5.878  13.726  23.848  0.00  0.00    +0.000 C 
ATOM     13  N   UNL     1      -6.953  13.447  22.918  0.00  0.00    +0.000 N 
ATOM     14  C   UNL     1      -6.883  13.189  21.585  0.00  0.00    +0.000 C 
ATOM     15  O   UNL     1      -7.851  12.752  20.973  0.00  0.00    +0.000 OA
ATOM     16  C   UNL     1      -5.658  13.559  20.852  0.00  0.00    +0.000 C 
ATOM     17  C   UNL     1      -4.517  12.852  20.855  0.00  0.00    +0.000 C 
ATOM     18  C   UNL     1      -3.334  13.354  20.077  0.00  0.00    +0.000 C 
ATOM     19  C   UNL     1      -2.062  12.472  20.083  0.00  0.00    +0.000 C 
ATOM     20  O   UNL     1      -0.962  13.393  19.833  0.00  0.00    +0.000 OA
ATOM     21  C   UNL     1      -0.230  13.710  20.945  0.00  0.00    +0.000 C 
ATOM     22  O   UNL     1       0.335  12.873  21.641  0.00  0.00    +0.000 OA
ATOM     23  H   UNL     1      -4.099  14.619  25.430  0.00  0.00    +0.000 HD
ATOM     24  H   UNL     1      -7.885  13.328  23.293  0.00  0.00    +0.000 HD
ENDROOT
BRANCH  19  25
ATOM     25  C   UNL     1      -2.088  11.345  19.013  0.00  0.00    +0.000 C 
ATOM     26  C   UNL     1      -1.935  11.875  17.583  0.00  0.00    +0.000 C 
BRANCH  25  27
ATOM     27  C   UNL     1      -0.976  10.355  19.287  0.00  0.00    +0.000 C 
ATOM     28  C   UNL     1       0.085  10.117  18.492  0.00  0.00    +0.000 C 
BRANCH  28  29
ATOM     29  C   UNL     1       1.069   9.068  18.806  0.00  0.00    +0.000 A 
ATOM     30  C   UNL     1       1.136   8.508  20.092  0.00  0.00    +0.000 A 
ATOM     31  C   UNL     1       2.057   7.504  20.387  0.00  0.00    +0.000 A 
ATOM     32  C   UNL     1       2.914   7.032  19.398  0.00  0.00    +0.000 A 
ATOM     33  C   UNL     1       2.841   7.560  18.110  0.00  0.00    +0.000 A 
ATOM     34  C   UNL     1       1.918   8.569  17.810  0.00  0.00    +0.000 A 
ENDBRANCH  28  29
ENDBRANCH  25  27
ENDBRANCH  19  25
BRANCH   1  35
ATOM     35  C   UNL     1       0.251  16.118  20.260  0.00  0.00    +0.000 C 
BRANCH  35  37
ATOM     36  C   UNL     1      -0.449  17.105  18.081  0.00  0.00    +0.000 C 
ATOM     37  C   UNL     1      -0.633  17.189  19.601  0.00  0.00    +0.000 C 
ATOM     38  C   UNL     1      -2.118  17.043  19.935  0.00  0.00    +0.000 C 
ENDBRANCH  35  37
ENDBRANCH   1  35
TORSDOF 5
ENDMDL
MODEL 5
REMARK VINA RESULT:      -6.9      2.805      5.025
REMARK  Name = 
REMARK  10 active torsions:
REMARK  status: ('A' for Active; 'I' for Inactive)
REMARK    1  A    between atoms: C_1  and  C_2
REMARK    2  A    between atoms: C_2  and  C_3
REMARK    3  A    between atoms: C_2  and  C_4
REMARK    4  A    between atoms: C_4  and  C_5
REMARK    5  A    between atoms: C_9  and  C_10
REMARK    6  A    between atoms: C_9  and  C_11
REMARK    7  A    between atoms: C_23  and  C_24
REMARK    8  A    between atoms: C_24  and  C_25
REMARK    9  A    between atoms: C_24  and  C_26
REMARK   10  A    between atoms: C_27  and  C_28
REMARK                            x       y       z     vdW  Elec       q    Type
REMARK                         _______ _______ _______ _____ _____    ______ ____
ROOT
ATOM      1  C   UNL     1      -0.809  14.475  21.021  0.00  0.00    +0.000 C 
ATOM      2  O   UNL     1      -1.567  14.393  22.238  0.00  0.00    +0.000 OA
ATOM      3  C   UNL     1      -2.903  14.624  22.084  0.00  0.00    +0.000 C 
ATOM      4  O   UNL     1      -3.358  15.761  22.088  0.00  0.00    +0.000 OA
ATOM      5  C   UNL     1      -3.747  13.349  21.983  0.00  0.00    +0.000 C 
ATOM      6  C   UNL     1      -2.936  12.155  21.445  0.00  0.00    +0.000 C 
ATOM      7  C   UNL     1      -4.247  12.980  23.385  0.00  0.00    +0.000 C 
ATOM      8  C   UNL     1      -4.939  13.677  21.040  0.00  0.00    +0.000 C 
ATOM      9  N   UNL     1      -5.539  12.475  20.482  0.00  0.00    +0.000 N 
ATOM     10  C   UNL     1      -5.620  12.310  19.107  0.00  0.00    +0.000 C 
ATOM     11  O   UNL     1      -5.798  13.237  18.326  0.00  0.00    +0.000 OA
ATOM     12  C   UNL     1      -5.310  10.870  18.687  0.00  0.00    +0.000 C 
ATOM     13  N   UNL     1      -5.240  10.619  17.262  0.00  0.00    +0.000 N 
ATOM     14  C   UNL     1      -4.200  10.820  16.410  0.00  0.00    +0.000 C 
ATOM     15  O   UNL     1      -4.212  10.354  15.276  0.00  0.00    +0.000 OA
ATOM     16  C   UNL     1      -3.103  11.714  16.824  0.00  0.00    +0.000 C 
ATOM     17  C   UNL     1      -2.107  11.374  17.657  0.00  0.00    +0.000 C 
ATOM     18  C   UNL     1      -1.060  12.392  18.012  0.00  0.00    +0.000 C 
ATOM     19  C   UNL     1       0.087  11.927  18.941  0.00  0.00    +0.000 C 
ATOM     20  O   UNL     1       0.557  13.139  19.598  0.00  0.00    +0.000 OA
ATOM     21  C   UNL     1       0.137  13.275  20.893  0.00  0.00    +0.000 C 
ATOM     22  O   UNL     1       0.368  12.446  21.767  0.00  0.00    +0.000 OA
ATOM     23  H   UNL     1      -5.631  11.664  21.081  0.00  0.00    +0.000 HD
ATOM     24  H   UNL     1      -6.019  10.143  16.826  0.00  0.00    +0.000 HD
ENDROOT
BRANCH  19  25
ATOM     25  C   UNL     1       1.250  11.228  18.182  0.00  0.00    +0.000 C 
ATOM     26  C   UNL     1       2.574  11.992  18.283  0.00  0.00    +0.000 C 
BRANCH  25  27
ATOM     27  C   UNL     1       1.450   9.831  18.731  0.00  0.00    +0.000 C 
ATOM     28  C   UNL     1       2.180   8.855  18.161  0.00  0.00    +0.000 C 
BRANCH  28  29
ATOM     29  C   UNL     1       2.240   7.498  18.730  0.00  0.00    +0.000 A 
ATOM     30  C   UNL     1       1.904   7.268  20.073  0.00  0.00    +0.000 A 
ATOM     31  C   UNL     1       1.945   5.983  20.610  0.00  0.00    +0.000 A 
ATOM     32  C   UNL     1       2.308   4.904  19.810  0.00  0.00    +0.000 A 
ATOM     33  C   UNL     1       2.620   5.113  18.467  0.00  0.00    +0.000 A 
ATOM     34  C   UNL     1       2.580   6.403  17.925  0.00  0.00    +0.000 A 
ENDBRANCH  28  29
ENDBRANCH  25  27
ENDBRANCH  19  25
BRANCH   1  35
ATOM     35  C   UNL     1      -0.098  15.813  20.822  0.00  0.00    +0.000 C 
BRANCH  35  37
ATOM     36  C   UNL     1      -0.465  18.223  20.302  0.00  0.00    +0.000 C 
ATOM     37  C   UNL     1      -0.695  16.792  19.798  0.00  0.00    +0.000 C 
ATOM     38  C   UNL     1      -0.096  16.651  18.399  0.00  0.00    +0.000 C 
ENDBRANCH  35  37
ENDBRANCH   1  35
TORSDOF 5
ENDMDL
MODEL 6
REMARK VINA RESULT:      -6.8      1.620      2.070
REMARK  Name = 
REMARK  10 active torsions:
REMARK  status: ('A' for Active; 'I' for Inactive)
REMARK    1  A    between atoms: C_1  and  C_2
REMARK    2  A    between atoms: C_2  and  C_3
REMARK    3  A    between atoms: C_2  and  C_4
REMARK    4  A    between atoms: C_4  and  C_5
REMARK    5  A    between atoms: C_9  and  C_10
REMARK    6  A    between atoms: C_9  and  C_11
REMARK    7  A    between atoms: C_23  and  C_24
REMARK    8  A    between atoms: C_24  and  C_25
REMARK    9  A    between atoms: C_24  and  C_26
REMARK   10  A    between atoms: C_27  and  C_28
REMARK                            x       y       z     vdW  Elec       q    Type
REMARK                         _______ _______ _______ _____ _____    ______ ____
ROOT
ATOM      1  C   UNL     1       0.471  15.058  20.294  0.00  0.00    +0.000 C 
ATOM      2  O   UNL     1       0.718  16.405  20.726  0.00  0.00    +0.000 OA
ATOM      3  C   UNL     1      -0.373  17.221  20.669  0.00  0.00    +0.000 C 
ATOM      4  O   UNL     1      -0.684  17.800  19.635  0.00  0.00    +0.000 OA
ATOM      5  C   UNL     1      -1.097  17.386  22.010  0.00  0.00    +0.000 C 
ATOM      6  C   UNL     1      -0.880  16.178  22.941  0.00  0.00    +0.000 C 
ATOM      7  C   UNL     1      -0.542  18.627  22.717  0.00  0.00    +0.000 C 
ATOM      8  C   UNL     1      -2.607  17.566  21.682  0.00  0.00    +0.000 C 
ATOM      9  N   UNL     1      -3.453  17.261  22.825  0.00  0.00    +0.000 N 
ATOM     10  C   UNL     1      -4.435  16.287  22.726  0.00  0.00    +0.000 C 
ATOM     11  O   UNL     1      -5.068  16.070  21.700  0.00  0.00    +0.000 OA
ATOM     12  C   UNL     1      -4.517  15.430  23.993  0.00  0.00    +0.000 C 
ATOM     13  N   UNL     1      -5.422  14.299  23.945  0.00  0.00    +0.000 N 
ATOM     14  C   UNL     1      -5.212  13.060  23.429  0.00  0.00    +0.000 C 
ATOM     15  O   UNL     1      -5.989  12.139  23.658  0.00  0.00    +0.000 OA
ATOM     16  C   UNL     1      -4.100  12.862  22.482  0.00  0.00    +0.000 C 
ATOM     17  C   UNL     1      -2.810  12.727  22.828  0.00  0.00    +0.000 C 
ATOM     18  C   UNL     1      -1.771  12.550  21.757  0.00  0.00    +0.000 C 
ATOM     19  C   UNL     1      -0.308  12.356  22.221  0.00  0.00    +0.000 C 
ATOM     20  O   UNL     1       0.508  12.818  21.107  0.00  0.00    +0.000 OA
ATOM     21  C   UNL     1       1.063  14.055  21.292  0.00  0.00    +0.000 C 
ATOM     22  O   UNL     1       1.799  14.328  22.234  0.00  0.00    +0.000 OA
ATOM     23  H   UNL     1      -3.140  17.553  23.743  0.00  0.00    +0.000 HD
ATOM     24  H   UNL     1      -6.304  14.377  24.435  0.00  0.00    +0.000 HD
ENDROOT
BRANCH  19  25
ATOM     25  C   UNL     1       0.035  10.881  22.577  0.00  0.00    +0.000 C 
ATOM     26  C   UNL     1      -1.186  10.079  23.038  0.00  0.00    +0.000 C 
BRANCH  25  27
ATOM     27  C   UNL     1       0.643  10.195  21.372  0.00  0.00    +0.000 C 
ATOM     28  C   UNL     1       0.906   8.879  21.261  0.00  0.00    +0.000 C 
BRANCH  28  29
ATOM     29  C   UNL     1       1.583   8.321  20.079  0.00  0.00    +0.000 A 
ATOM     30  C   UNL     1       2.125   7.026  20.107  0.00  0.00    +0.000 A 
ATOM     31  C   UNL     1       2.752   6.489  18.984  0.00  0.00    +0.000 A 
ATOM     32  C   UNL     1       2.835   7.231  17.811  0.00  0.00    +0.000 A 
ATOM     33  C   UNL     1       2.278   8.508  17.759  0.00  0.00    +0.000 A 
ATOM     34  C   UNL     1       1.648   9.050  18.885  0.00  0.00    +0.000 A 
ENDBRANCH  28  29
ENDBRANCH  25  27
ENDBRANCH  19  25
BRANCH   1  35
ATOM     35  C   UNL     1       0.898  14.780  18.853  0.00  0.00    +0.000 C 
BRANCH  35  37
ATOM     36  C   UNL     1       2.314  12.901  18.031  0.00  0.00    +0.000 C 
ATOM     37  C   UNL     1       2.345  14.320  18.614  0.00  0.00    +0.000 C 
ATOM     38  C   UNL     1       3.127  15.233  17.671  0.00  0.00    +0.000 C 
ENDBRANCH  35  37
ENDBRANCH   1  35
TORSDOF 5
ENDMDL
MODEL 7
REMARK VINA RESULT:      -6.8      1.060      1.667
REMARK  Name = 
REMARK  10 active torsions:
REMARK  status: ('A' for Active; 'I' for Inactive)
REMARK    1  A    between atoms: C_1  and  C_2
REMARK    2  A    between atoms: C_2  and  C_3
REMARK    3  A    between atoms: C_2  and  C_4
REMARK    4  A    between atoms: C_4  and  C_5
REMARK    5  A    between atoms: C_9  and  C_10
REMARK    6  A    between atoms: C_9  and  C_11
REMARK    7  A    between atoms: C_23  and  C_24
REMARK    8  A    between atoms: C_24  and  C_25
REMARK    9  A    between atoms: C_24  and  C_26
REMARK   10  A    between atoms: C_27  and  C_28
REMARK                            x       y       z     vdW  Elec       q    Type
REMARK                         _______ _______ _______ _____ _____    ______ ____
ROOT
ATOM      1  C   UNL     1       0.645  13.972  19.878  0.00  0.00    +0.000 C 
ATOM      2  O   UNL     1       1.113  15.301  20.157  0.00  0.00    +0.000 OA
ATOM      3  C   UNL     1       0.121  16.219  20.335  0.00  0.00    +0.000 C 
ATOM      4  O   UNL     1      -0.395  16.794  19.384  0.00  0.00    +0.000 OA
ATOM      5  C   UNL     1      -0.214  16.497  21.805  0.00  0.00    +0.000 C 
ATOM      6  C   UNL     1       0.130  15.303  22.715  0.00  0.00    +0.000 C 
ATOM      7  C   UNL     1       0.613  17.698  22.277  0.00  0.00    +0.000 C 
ATOM      8  C   UNL     1      -1.735  16.816  21.863  0.00  0.00    +0.000 C 
ATOM      9  N   UNL     1      -2.279  16.633  23.199  0.00  0.00    +0.000 N 
ATOM     10  C   UNL     1      -3.335  15.758  23.408  0.00  0.00    +0.000 C 
ATOM     11  O   UNL     1      -4.229  15.574  22.591  0.00  0.00    +0.000 OA
ATOM     12  C   UNL     1      -3.161  14.953  24.700  0.00  0.00    +0.000 C 
ATOM     13  N   UNL     1      -4.144  13.918  24.947  0.00  0.00    +0.000 N 
ATOM     14  C   UNL     1      -4.186  12.648  24.464  0.00  0.00    +0.000 C 
ATOM     15  O   UNL     1      -4.954  11.816  24.935  0.00  0.00    +0.000 OA
ATOM     16  C   UNL     1      -3.378  12.311  23.277  0.00  0.00    +0.000 C 
ATOM     17  C   UNL     1      -2.060  12.059  23.290  0.00  0.00    +0.000 C 
ATOM     18  C   UNL     1      -1.354  11.746  22.001  0.00  0.00    +0.000 C 
ATOM     19  C   UNL     1       0.157  11.422  22.087  0.00  0.00    +0.000 C 
ATOM     20  O   UNL     1       0.693  11.766  20.777  0.00  0.00    +0.000 OA
ATOM     21  C   UNL     1       1.384  12.946  20.746  0.00  0.00    +0.000 C 
ATOM     22  O   UNL     1       2.361  13.174  21.452  0.00  0.00    +0.000 OA
ATOM     23  H   UNL     1      -1.714  16.919  23.989  0.00  0.00    +0.000 HD
ATOM     24  H   UNL     1      -4.858  14.098  25.640  0.00  0.00    +0.000 HD
ENDROOT
BRANCH  19  25
ATOM     25  C   UNL     1       0.448   9.932  22.425  0.00  0.00    +0.000 C 
ATOM     26  C   UNL     1      -0.823   9.121  22.697  0.00  0.00    +0.000 C 
BRANCH  25  27
ATOM     27  C   UNL     1       1.201   9.288  21.280  0.00  0.00    +0.000 C 
ATOM     28  C   UNL     1       1.153   7.988  20.933  0.00  0.00    +0.000 C 
BRANCH  28  29
ATOM     29  C   UNL     1       1.994   7.440  19.857  0.00  0.00    +0.000 A 
ATOM     30  C   UNL     1       2.255   8.190  18.698  0.00  0.00    +0.000 A 
ATOM     31  C   UNL     1       3.063   7.680  17.684  0.00  0.00    +0.000 A 
ATOM     32  C   UNL     1       3.636   6.419  17.817  0.00  0.00    +0.000 A 
ATOM     33  C   UNL     1       3.408   5.674  18.973  0.00  0.00    +0.000 A 
ATOM     34  C   UNL     1       2.595   6.183  19.993  0.00  0.00    +0.000 A 
ENDBRANCH  28  29
ENDBRANCH  25  27
ENDBRANCH  19  25
BRANCH   1  35
ATOM     35  C   UNL     1       0.657  13.609  18.393  0.00  0.00    +0.000 C 
BRANCH  35  37
ATOM     36  C   UNL     1       3.012  14.412  18.242  0.00  0.00    +0.000 C 
ATOM     37  C   UNL     1       2.022  13.356  17.733  0.00  0.00    +0.000 C 
ATOM     38  C   UNL     1       2.586  11.963  18.013  0.00  0.00    +0.000 C 
ENDBRANCH  35  37
ENDBRANCH   1  35
TORSDOF 5
ENDMDL
MODEL 8
REMARK VINA RESULT:      -6.8      2.552      4.829
REMARK  Name = 
REMARK  10 active torsions:
REMARK  status: ('A' for Active; 'I' for Inactive)
REMARK    1  A    between atoms: C_1  and  C_2
REMARK    2  A    between atoms: C_2  and  C_3
REMARK    3  A    between atoms: C_2  and  C_4
REMARK    4  A    between atoms: C_4  and  C_5
REMARK    5  A    between atoms: C_9  and  C_10
REMARK    6  A    between atoms: C_9  and  C_11
REMARK    7  A    between atoms: C_23  and  C_24
REMARK    8  A    between atoms: C_24  and  C_25
REMARK    9  A    between atoms: C_24  and  C_26
REMARK   10  A    between atoms: C_27  and  C_28
REMARK                            x       y       z     vdW  Elec       q    Type
REMARK                         _______ _______ _______ _____ _____    ______ ____
ROOT
ATOM      1  C   UNL     1      -1.209  14.455  22.433  0.00  0.00    +0.000 C 
ATOM      2  O   UNL     1      -1.836  14.162  23.691  0.00  0.00    +0.000 OA
ATOM      3  C   UNL     1      -3.184  14.365  23.707  0.00  0.00    +0.000 C 
ATOM      4  O   UNL     1      -3.661  15.471  23.930  0.00  0.00    +0.000 OA
ATOM      5  C   UNL     1      -4.007  13.089  23.495  0.00  0.00    +0.000 C 
ATOM      6  C   UNL     1      -3.230  12.020  22.704  0.00  0.00    +0.000 C 
ATOM      7  C   UNL     1      -4.352  12.496  24.866  0.00  0.00    +0.000 C 
ATOM      8  C   UNL     1      -5.297  13.511  22.735  0.00  0.00    +0.000 C 
ATOM      9  N   UNL     1      -5.925  12.386  22.061  0.00  0.00    +0.000 N 
ATOM     10  C   UNL     1      -6.143  12.427  20.693  0.00  0.00    +0.000 C 
ATOM     11  O   UNL     1      -6.421  13.453  20.084  0.00  0.00    +0.000 OA
ATOM     12  C   UNL     1      -5.847  11.078  20.028  0.00  0.00    +0.000 C 
ATOM     13  N   UNL     1      -5.919  11.047  18.582  0.00  0.00    +0.000 N 
ATOM     14  C   UNL     1      -4.977  11.412  17.672  0.00  0.00    +0.000 C 
ATOM     15  O   UNL     1      -5.095  11.121  16.487  0.00  0.00    +0.000 OA
ATOM     16  C   UNL     1      -3.863  12.273  18.109  0.00  0.00    +0.000 C 
ATOM     17  C   UNL     1      -2.779  11.849  18.778  0.00  0.00    +0.000 C 
ATOM     18  C   UNL     1      -1.723  12.840  19.179  0.00  0.00    +0.000 C 
ATOM     19  C   UNL     1      -0.477  12.283  19.909  0.00  0.00    +0.000 C 
ATOM     20  O   UNL     1       0.032  13.398  20.694  0.00  0.00    +0.000 OA
ATOM     21  C   UNL     1      -0.255  13.323  22.029  0.00  0.00    +0.000 C 
ATOM     22  O   UNL     1       0.082  12.381  22.739  0.00  0.00    +0.000 OA
ATOM     23  H   UNL     1      -5.938  11.491  22.536  0.00  0.00    +0.000 HD
ATOM     24  H   UNL     1      -6.729  10.614  18.156  0.00  0.00    +0.000 HD
ENDROOT
BRANCH  19  25
ATOM     25  C   UNL     1       0.616  11.749  18.941  0.00  0.00    +0.000 C 
ATOM     26  C   UNL     1       1.886  12.606  18.943  0.00  0.00    +0.000 C 
BRANCH  25  27
ATOM     27  C   UNL     1       0.985  10.331  19.320  0.00  0.00    +0.000 C 
ATOM     28  C   UNL     1       1.707   9.474  18.574  0.00  0.00    +0.000 C 
BRANCH  28  29
ATOM     29  C   UNL     1       1.937   8.082  18.993  0.00  0.00    +0.000 A 
ATOM     30  C   UNL     1       1.651   7.672  20.306  0.00  0.00    +0.000 A 
ATOM     31  C   UNL     1       1.853   6.351  20.701  0.00  0.00    +0.000 A 
ATOM     32  C   UNL     1       2.328   5.415  19.789  0.00  0.00    +0.000 A 
ATOM     33  C   UNL     1       2.591   5.801  18.475  0.00  0.00    +0.000 A 
ATOM     34  C   UNL     1       2.391   7.128  18.075  0.00  0.00    +0.000 A 
ENDBRANCH  28  29
ENDBRANCH  25  27
ENDBRANCH  19  25
BRANCH   1  35
ATOM     35  C   UNL     1      -0.550  15.833  22.372  0.00  0.00    +0.000 C 
BRANCH  35  37
ATOM     36  C   UNL     1       0.131  16.922  20.237  0.00  0.00    +0.000 C 
ATOM     37  C   UNL     1      -1.005  16.791  21.260  0.00  0.00    +0.000 C 
ATOM     38  C   UNL     1      -2.275  16.334  20.543  0.00  0.00    +0.000 C 
ENDBRANCH  35  37
ENDBRANCH   1  35
TORSDOF 5
ENDMDL
MODEL 9
REMARK VINA RESULT:      -6.8      2.549      4.818
REMARK  Name = 
REMARK  10 active torsions:
REMARK  status: ('A' for Active; 'I' for Inactive)
REMARK    1  A    between atoms: C_1  and  C_2
REMARK    2  A    between atoms: C_2  and  C_3
REMARK    3  A    between atoms: C_2  and  C_4
REMARK    4  A    between atoms: C_4  and  C_5
REMARK    5  A    between atoms: C_9  and  C_10
REMARK    6  A    between atoms: C_9  and  C_11
REMARK    7  A    between atoms: C_23  and  C_24
REMARK    8  A    between atoms: C_24  and  C_25
REMARK    9  A    between atoms: C_24  and  C_26
REMARK   10  A    between atoms: C_27  and  C_28
REMARK                            x       y       z     vdW  Elec       q    Type
REMARK                         _______ _______ _______ _____ _____    ______ ____
ROOT
ATOM      1  C   UNL     1      -1.012  14.286  22.287  0.00  0.00    +0.000 C 
ATOM      2  O   UNL     1      -1.618  14.054  23.569  0.00  0.00    +0.000 OA
ATOM      3  C   UNL     1      -2.948  14.351  23.623  0.00  0.00    +0.000 C 
ATOM      4  O   UNL     1      -3.339  15.491  23.844  0.00  0.00    +0.000 OA
ATOM      5  C   UNL     1      -3.864  13.134  23.456  0.00  0.00    +0.000 C 
ATOM      6  C   UNL     1      -3.190  12.003  22.656  0.00  0.00    +0.000 C 
ATOM      7  C   UNL     1      -4.206  12.584  24.845  0.00  0.00    +0.000 C 
ATOM      8  C   UNL     1      -5.145  13.637  22.730  0.00  0.00    +0.000 C 
ATOM      9  N   UNL     1      -5.872  12.550  22.092  0.00  0.00    +0.000 N 
ATOM     10  C   UNL     1      -6.129  12.589  20.730  0.00  0.00    +0.000 C 
ATOM     11  O   UNL     1      -6.354  13.626  20.116  0.00  0.00    +0.000 OA
ATOM     12  C   UNL     1      -5.950  11.215  20.076  0.00  0.00    +0.000 C 
ATOM     13  N   UNL     1      -6.070  11.171  18.633  0.00  0.00    +0.000 N 
ATOM     14  C   UNL     1      -5.134  11.458  17.690  0.00  0.00    +0.000 C 
ATOM     15  O   UNL     1      -5.310  11.162  16.513  0.00  0.00    +0.000 OA
ATOM     16  C   UNL     1      -3.949  12.244  18.079  0.00  0.00    +0.000 C 
ATOM     17  C   UNL     1      -2.877  11.752  18.721  0.00  0.00    +0.000 C 
ATOM     18  C   UNL     1      -1.742  12.671  19.075  0.00  0.00    +0.000 C 
ATOM     19  C   UNL     1      -0.515  12.037  19.774  0.00  0.00    +0.000 C 
ATOM     20  O   UNL     1       0.096  13.123  20.527  0.00  0.00    +0.000 OA
ATOM     21  C   UNL     1      -0.154  13.085  21.871  0.00  0.00    +0.000 C 
ATOM     22  O   UNL     1       0.139  12.130  22.584  0.00  0.00    +0.000 OA
ATOM     23  H   UNL     1      -5.932  11.665  22.579  0.00  0.00    +0.000 HD
ATOM     24  H   UNL     1      -6.921  10.791  18.240  0.00  0.00    +0.000 HD
ENDROOT
BRANCH  19  25
ATOM     25  C   UNL     1       0.507  11.416  18.780  0.00  0.00    +0.000 C 
ATOM     26  C   UNL     1       1.817  12.205  18.700  0.00  0.00    +0.000 C 
BRANCH  25  27
ATOM     27  C   UNL     1       0.819   9.993  19.194  0.00  0.00    +0.000 C 
ATOM     28  C   UNL     1       1.807   9.224  18.698  0.00  0.00    +0.000 C 
BRANCH  28  29
ATOM     29  C   UNL     1       1.973   7.819  19.103  0.00  0.00    +0.000 A 
ATOM     30  C   UNL     1       2.512   6.875  18.214  0.00  0.00    +0.000 A 
ATOM     31  C   UNL     1       2.685   5.547  18.599  0.00  0.00    +0.000 A 
ATOM     32  C   UNL     1       2.337   5.144  19.884  0.00  0.00    +0.000 A 
ATOM     33  C   UNL     1       1.826   6.075  20.787  0.00  0.00    +0.000 A 
ATOM     34  C   UNL     1       1.650   7.409  20.402  0.00  0.00    +0.000 A 
ENDBRANCH  28  29
ENDBRANCH  25  27
ENDBRANCH  19  25
BRANCH   1  35
ATOM     35  C   UNL     1      -0.261  15.613  22.186  0.00  0.00    +0.000 C 
BRANCH  35  37
ATOM     36  C   UNL     1      -1.997  16.086  20.462  0.00  0.00    +0.000 C 
ATOM     37  C   UNL     1      -0.861  16.705  21.286  0.00  0.00    +0.000 C 
ATOM     38  C   UNL     1      -1.402  17.906  22.062  0.00  0.00    +0.000 C 
ENDBRANCH  35  37
ENDBRANCH   1  35
TORSDOF 5
ENDMDL
