MODEL 1
REMARK VINA RESULT:      -7.7      0.000      0.000
REMARK  Name = 
REMARK  7 active torsions:
REMARK  status: ('A' for Active; 'I' for Inactive)
REMARK    1  A    between atoms: C_1  and  C_2
REMARK    2  A    between atoms: C_2  and  N_3
REMARK    3  A    between atoms: N_3  and  C_4
REMARK    4  A    between atoms: N_3  and  C_12
REMARK    5  A    between atoms: C_4  and  C_5
REMARK    6  A    between atoms: C_8  and  C_9
REMARK    7  A    between atoms: N_15  and  C_16
REMARK                            x       y       z     vdW  Elec       q    Type
REMARK                         _______ _______ _______ _____ _____    ______ ____
ROOT
ATOM      1  C   UNL     1       5.674   6.870  18.208  0.00  0.00    +0.000 C 
ATOM      2  C   UNL     1       4.531   7.090  17.208  0.00  0.00    +0.000 C 
ATOM      3  C   UNL     1       3.315   6.461  17.856  0.00  0.00    +0.000 C 
ATOM      4  N   UNL     1       3.834   5.395  18.671  0.00  0.00    +0.000 N 
ATOM      5  C   UNL     1       5.187   5.617  18.964  0.00  0.00    +0.000 C 
ATOM      6  O   UNL     1       5.879   4.981  19.748  0.00  0.00    +0.000 OA
ENDROOT
BRANCH   4   7
ATOM      7  C   UNL     1       3.018   4.374  19.241  0.00  0.00    +0.000 A 
ATOM      8  C   UNL     1       2.176   4.620  20.336  0.00  0.00    +0.000 A 
ATOM      9  C   UNL     1       1.374   3.619  20.890  0.00  0.00    +0.000 A 
ATOM     10  C   UNL     1       1.405   2.334  20.365  0.00  0.00    +0.000 A 
ATOM     11  C   UNL     1       2.239   2.057  19.285  0.00  0.00    +0.000 A 
ATOM     12  C   UNL     1       3.032   3.069  18.727  0.00  0.00    +0.000 A 
ENDBRANCH   4   7
BRANCH   1  13
ATOM     13  N   UNL     1       6.993   6.695  17.538  0.00  0.00    +0.000 NA
BRANCH  13  15
ATOM     14  C   UNL     1       8.225   8.850  18.004  0.00  0.00    +0.000 C 
ATOM     15  C   UNL     1       8.083   7.354  18.288  0.00  0.00    +0.000 C 
ENDBRANCH  13  15
BRANCH  13  16
ATOM     16  C   UNL     1       7.325   5.278  17.217  0.00  0.00    +0.000 C 
BRANCH  16  17
ATOM     17  C   UNL     1       6.916   4.763  15.852  0.00  0.00    +0.000 A 
ATOM     18  C   UNL     1       5.902   3.824  15.695  0.00  0.00    +0.000 A 
ATOM     19  N   UNL     1       5.535   3.325  14.488  0.00  0.00    +0.000 NA
ATOM     20  C   UNL     1       6.203   3.816  13.421  0.00  0.00    +0.000 A 
ATOM     21  C   UNL     1       5.817   3.326  12.062  0.00  0.00    +0.000 C 
ATOM     22  C   UNL     1       7.208   4.761  13.570  0.00  0.00    +0.000 A 
ATOM     23  N   UNL     1       7.591   5.244  14.773  0.00  0.00    +0.000 NA
ENDBRANCH  16  17
ENDBRANCH  13  16
ENDBRANCH   1  13
TORSDOF 5
ENDMDL
MODEL 2
REMARK VINA RESULT:      -7.5      0.286      1.022
REMARK  Name = 
REMARK  7 active torsions:
REMARK  status: ('A' for Active; 'I' for Inactive)
REMARK    1  A    between atoms: C_1  and  C_2
REMARK    2  A    between atoms: C_2  and  N_3
REMARK    3  A    between atoms: N_3  and  C_4
REMARK    4  A    between atoms: N_3  and  C_12
REMARK    5  A    between atoms: C_4  and  C_5
REMARK    6  A    between atoms: C_8  and  C_9
REMARK    7  A    between atoms: N_15  and  C_16
REMARK                            x       y       z     vdW  Elec       q    Type
REMARK                         _______ _______ _______ _____ _____    ______ ____
ROOT
ATOM      1  C   UNL     1       5.660   7.060  17.940  0.00  0.00    +0.000 C 
ATOM      2  C   UNL     1       4.558   7.157  16.877  0.00  0.00    +0.000 C 
ATOM      3  C   UNL     1       3.328   6.557  17.528  0.00  0.00    +0.000 C 
ATOM      4  N   UNL     1       3.835   5.585  18.459  0.00  0.00    +0.000 N 
ATOM      5  C   UNL     1       5.167   5.869  18.788  0.00  0.00    +0.000 C 
ATOM      6  O   UNL     1       5.838   5.326  19.656  0.00  0.00    +0.000 OA
ENDROOT
BRANCH   4   7
ATOM      7  C   UNL     1       3.018   4.599  19.087  0.00  0.00    +0.000 A 
ATOM      8  C   UNL     1       3.197   3.227  18.854  0.00  0.00    +0.000 A 
ATOM      9  C   UNL     1       2.398   2.262  19.473  0.00  0.00    +0.000 A 
ATOM     10  C   UNL     1       1.384   2.652  20.337  0.00  0.00    +0.000 A 
ATOM     11  C   UNL     1       1.175   4.006  20.580  0.00  0.00    +0.000 A 
ATOM     12  C   UNL     1       1.988   4.968  19.965  0.00  0.00    +0.000 A 
ENDBRANCH   4   7
BRANCH   1  13
ATOM     13  N   UNL     1       7.011   6.859  17.346  0.00  0.00    +0.000 NA
BRANCH  13  15
ATOM     14  C   UNL     1       8.110   9.055  17.938  0.00  0.00    +0.000 C 
ATOM     15  C   UNL     1       8.063   7.539  18.131  0.00  0.00    +0.000 C 
ENDBRANCH  13  15
BRANCH  13  16
ATOM     16  C   UNL     1       7.353   5.432  17.088  0.00  0.00    +0.000 C 
BRANCH  16  17
ATOM     17  C   UNL     1       6.946   4.854  15.748  0.00  0.00    +0.000 A 
ATOM     18  C   UNL     1       5.960   3.879  15.638  0.00  0.00    +0.000 A 
ATOM     19  N   UNL     1       5.596   3.323  14.456  0.00  0.00    +0.000 NA
ATOM     20  C   UNL     1       6.236   3.795  13.362  0.00  0.00    +0.000 A 
ATOM     21  C   UNL     1       5.851   3.243  12.028  0.00  0.00    +0.000 C 
ATOM     22  C   UNL     1       7.212   4.776  13.464  0.00  0.00    +0.000 A 
ATOM     23  N   UNL     1       7.593   5.316  14.644  0.00  0.00    +0.000 NA
ENDBRANCH  16  17
ENDBRANCH  13  16
ENDBRANCH   1  13
TORSDOF 5
ENDMDL
MODEL 3
REMARK VINA RESULT:      -7.1      0.711      1.086
REMARK  Name = 
REMARK  7 active torsions:
REMARK  status: ('A' for Active; 'I' for Inactive)
REMARK    1  A    between atoms: C_1  and  C_2
REMARK    2  A    between atoms: C_2  and  N_3
REMARK    3  A    between atoms: N_3  and  C_4
REMARK    4  A    between atoms: N_3  and  C_12
REMARK    5  A    between atoms: C_4  and  C_5
REMARK    6  A    between atoms: C_8  and  C_9
REMARK    7  A    between atoms: N_15  and  C_16
REMARK                            x       y       z     vdW  Elec       q    Type
REMARK                         _______ _______ _______ _____ _____    ______ ____
ROOT
ATOM      1  C   UNL     1       5.560   6.704  18.200  0.00  0.00    +0.000 C 
ATOM      2  C   UNL     1       4.462   7.151  17.225  0.00  0.00    +0.000 C 
ATOM      3  C   UNL     1       3.181   6.560  17.777  0.00  0.00    +0.000 C 
ATOM      4  N   UNL     1       3.585   5.358  18.456  0.00  0.00    +0.000 N 
ATOM      5  C   UNL     1       4.945   5.417  18.788  0.00  0.00    +0.000 C 
ATOM      6  O   UNL     1       5.560   4.627  19.492  0.00  0.00    +0.000 OA
ENDROOT
BRANCH   4   7
ATOM      7  C   UNL     1       2.668   4.354  18.885  0.00  0.00    +0.000 A 
ATOM      8  C   UNL     1       1.931   4.478  20.073  0.00  0.00    +0.000 A 
ATOM      9  C   UNL     1       1.030   3.495  20.488  0.00  0.00    +0.000 A 
ATOM     10  C   UNL     1       0.854   2.347  19.727  0.00  0.00    +0.000 A 
ATOM     11  C   UNL     1       1.579   2.191  18.549  0.00  0.00    +0.000 A 
ATOM     12  C   UNL     1       2.472   3.187  18.131  0.00  0.00    +0.000 A 
ENDBRANCH   4   7
BRANCH   1  13
ATOM     13  N   UNL     1       6.872   6.493  17.526  0.00  0.00    +0.000 NA
BRANCH  13  15
ATOM     14  C   UNL     1       8.193   8.596  17.983  0.00  0.00    +0.000 C 
ATOM     15  C   UNL     1       7.983   7.112  18.280  0.00  0.00    +0.000 C 
ENDBRANCH  13  15
BRANCH  13  16
ATOM     16  C   UNL     1       7.158   5.069  17.193  0.00  0.00    +0.000 C 
BRANCH  16  17
ATOM     17  C   UNL     1       6.761   4.588  15.812  0.00  0.00    +0.000 A 
ATOM     18  C   UNL     1       7.398   5.049  14.664  0.00  0.00    +0.000 A 
ATOM     19  N   UNL     1       7.044   4.658  13.414  0.00  0.00    +0.000 NA
ATOM     20  C   UNL     1       6.037   3.759  13.341  0.00  0.00    +0.000 A 
ATOM     21  C   UNL     1       5.628   3.267  11.991  0.00  0.00    +0.000 C 
ATOM     22  C   UNL     1       5.407   3.287  14.484  0.00  0.00    +0.000 A 
ATOM     23  N   UNL     1       5.742   3.692  15.730  0.00  0.00    +0.000 NA
ENDBRANCH  16  17
ENDBRANCH  13  16
ENDBRANCH   1  13
TORSDOF 5
ENDMDL
MODEL 4
REMARK VINA RESULT:      -7.0      1.925      6.714
REMARK  Name = 
REMARK  7 active torsions:
REMARK  status: ('A' for Active; 'I' for Inactive)
REMARK    1  A    between atoms: C_1  and  C_2
REMARK    2  A    between atoms: C_2  and  N_3
REMARK    3  A    between atoms: N_3  and  C_4
REMARK    4  A    between atoms: N_3  and  C_12
REMARK    5  A    between atoms: C_4  and  C_5
REMARK    6  A    between atoms: C_8  and  C_9
REMARK    7  A    between atoms: N_15  and  C_16
REMARK                            x       y       z     vdW  Elec       q    Type
REMARK                         _______ _______ _______ _____ _____    ______ ____
ROOT
ATOM      1  C   UNL     1       5.213   6.331  17.597  0.00  0.00    +0.000 C 
ATOM      2  C   UNL     1       5.703   4.941  18.026  0.00  0.00    +0.000 C 
ATOM      3  C   UNL     1       6.580   4.463  16.888  0.00  0.00    +0.000 C 
ATOM      4  N   UNL     1       6.042   5.093  15.712  0.00  0.00    +0.000 N 
ATOM      5  C   UNL     1       5.295   6.226  16.060  0.00  0.00    +0.000 C 
ATOM      6  O   UNL     1       4.830   7.059  15.293  0.00  0.00    +0.000 OA
ENDROOT
BRANCH   4   7
ATOM      7  C   UNL     1       6.395   4.707  14.385  0.00  0.00    +0.000 A 
ATOM      8  C   UNL     1       7.461   5.305  13.694  0.00  0.00    +0.000 A 
ATOM      9  C   UNL     1       7.808   4.922  12.397  0.00  0.00    +0.000 A 
ATOM     10  C   UNL     1       7.082   3.933  11.747  0.00  0.00    +0.000 A 
ATOM     11  C   UNL     1       6.013   3.327  12.402  0.00  0.00    +0.000 A 
ATOM     12  C   UNL     1       5.679   3.708  13.709  0.00  0.00    +0.000 A 
ENDBRANCH   4   7
BRANCH   1  13
ATOM     13  N   UNL     1       3.848   6.639  18.108  0.00  0.00    +0.000 NA
BRANCH  13  15
ATOM     14  C   UNL     1       1.998   8.357  18.182  0.00  0.00    +0.000 C 
ATOM     15  C   UNL     1       3.389   7.977  17.677  0.00  0.00    +0.000 C 
ENDBRANCH  13  15
BRANCH  13  16
ATOM     16  C   UNL     1       2.837   5.587  17.808  0.00  0.00    +0.000 C 
BRANCH  16  17
ATOM     17  C   UNL     1       2.389   4.709  18.959  0.00  0.00    +0.000 A 
ATOM     18  C   UNL     1       1.737   3.499  18.748  0.00  0.00    +0.000 A 
ATOM     19  N   UNL     1       1.299   2.707  19.759  0.00  0.00    +0.000 NA
ATOM     20  C   UNL     1       1.558   3.152  21.009  0.00  0.00    +0.000 A 
ATOM     21  C   UNL     1       1.128   2.304  22.162  0.00  0.00    +0.000 C 
ATOM     22  C   UNL     1       2.219   4.353  21.225  0.00  0.00    +0.000 A 
ATOM     23  N   UNL     1       2.636   5.155  20.220  0.00  0.00    +0.000 NA
ENDBRANCH  16  17
ENDBRANCH  13  16
ENDBRANCH   1  13
TORSDOF 5
ENDMDL
MODEL 5
REMARK VINA RESULT:      -7.0      1.890      6.718
REMARK  Name = 
REMARK  7 active torsions:
REMARK  status: ('A' for Active; 'I' for Inactive)
REMARK    1  A    between atoms: C_1  and  C_2
REMARK    2  A    between atoms: C_2  and  N_3
REMARK    3  A    between atoms: N_3  and  C_4
REMARK    4  A    between atoms: N_3  and  C_12
REMARK    5  A    between atoms: C_4  and  C_5
REMARK    6  A    between atoms: C_8  and  C_9
REMARK    7  A    between atoms: N_15  and  C_16
REMARK                            x       y       z     vdW  Elec       q    Type
REMARK                         _______ _______ _______ _____ _____    ______ ____
ROOT
ATOM      1  C   UNL     1       5.336   6.327  17.541  0.00  0.00    +0.000 C 
ATOM      2  C   UNL     1       5.813   4.933  17.968  0.00  0.00    +0.000 C 
ATOM      3  C   UNL     1       6.663   4.438  16.815  0.00  0.00    +0.000 C 
ATOM      4  N   UNL     1       6.111   5.070  15.646  0.00  0.00    +0.000 N 
ATOM      5  C   UNL     1       5.387   6.215  16.003  0.00  0.00    +0.000 C 
ATOM      6  O   UNL     1       4.919   7.051  15.242  0.00  0.00    +0.000 OA
ENDROOT
BRANCH   4   7
ATOM      7  C   UNL     1       6.434   4.673  14.314  0.00  0.00    +0.000 A 
ATOM      8  C   UNL     1       7.501   5.246  13.606  0.00  0.00    +0.000 A 
ATOM      9  C   UNL     1       7.818   4.852  12.303  0.00  0.00    +0.000 A 
ATOM     10  C   UNL     1       7.059   3.878  11.668  0.00  0.00    +0.000 A 
ATOM     11  C   UNL     1       5.988   3.299  12.342  0.00  0.00    +0.000 A 
ATOM     12  C   UNL     1       5.683   3.690  13.653  0.00  0.00    +0.000 A 
ENDBRANCH   4   7
BRANCH   1  13
ATOM     13  N   UNL     1       3.985   6.657  18.077  0.00  0.00    +0.000 NA
BRANCH  13  15
ATOM     14  C   UNL     1       2.057   8.279  17.893  0.00  0.00    +0.000 C 
ATOM     15  C   UNL     1       3.543   8.006  17.661  0.00  0.00    +0.000 C 
ENDBRANCH  13  15
BRANCH  13  16
ATOM     16  C   UNL     1       2.950   5.625  17.786  0.00  0.00    +0.000 C 
BRANCH  16  17
ATOM     17  C   UNL     1       2.508   4.745  18.938  0.00  0.00    +0.000 A 
ATOM     18  C   UNL     1       2.511   5.201  20.252  0.00  0.00    +0.000 A 
ATOM     19  N   UNL     1       2.149   4.426  21.305  0.00  0.00    +0.000 NA
ATOM     20  C   UNL     1       1.752   3.170  21.002  0.00  0.00    +0.000 A 
ATOM     21  C   UNL     1       1.309   2.282  22.120  0.00  0.00    +0.000 C 
ATOM     22  C   UNL     1       1.736   2.714  19.692  0.00  0.00    +0.000 A 
ATOM     23  N   UNL     1       2.118   3.477  18.643  0.00  0.00    +0.000 NA
ENDBRANCH  16  17
ENDBRANCH  13  16
ENDBRANCH   1  13
TORSDOF 5
ENDMDL
MODEL 6
REMARK VINA RESULT:      -7.0      1.920      6.750
REMARK  Name = 
REMARK  7 active torsions:
REMARK  status: ('A' for Active; 'I' for Inactive)
REMARK    1  A    between atoms: C_1  and  C_2
REMARK    2  A    between atoms: C_2  and  N_3
REMARK    3  A    between atoms: N_3  and  C_4
REMARK    4  A    between atoms: N_3  and  C_12
REMARK    5  A    between atoms: C_4  and  C_5
REMARK    6  A    between atoms: C_8  and  C_9
REMARK    7  A    between atoms: N_15  and  C_16
REMARK                            x       y       z     vdW  Elec       q    Type
REMARK                         _______ _______ _______ _____ _____    ______ ____
ROOT
ATOM      1  C   UNL     1       5.253   6.357  17.535  0.00  0.00    +0.000 C 
ATOM      2  C   UNL     1       5.794   4.995  17.988  0.00  0.00    +0.000 C 
ATOM      3  C   UNL     1       6.652   4.509  16.839  0.00  0.00    +0.000 C 
ATOM      4  N   UNL     1       6.063   5.089  15.661  0.00  0.00    +0.000 N 
ATOM      5  C   UNL     1       5.294   6.210  16.000  0.00  0.00    +0.000 C 
ATOM      6  O   UNL     1       4.784   7.008  15.224  0.00  0.00    +0.000 OA
ENDROOT
BRANCH   4   7
ATOM      7  C   UNL     1       6.389   4.675  14.336  0.00  0.00    +0.000 A 
ATOM      8  C   UNL     1       5.637   3.705  13.653  0.00  0.00    +0.000 A 
ATOM      9  C   UNL     1       5.955   3.305  12.353  0.00  0.00    +0.000 A 
ATOM     10  C   UNL     1       7.050   3.860  11.704  0.00  0.00    +0.000 A 
ATOM     11  C   UNL     1       7.821   4.816  12.359  0.00  0.00    +0.000 A 
ATOM     12  C   UNL     1       7.488   5.222  13.659  0.00  0.00    +0.000 A 
ENDBRANCH   4   7
BRANCH   1  13
ATOM     13  N   UNL     1       3.895   6.643  18.077  0.00  0.00    +0.000 NA
BRANCH  13  15
ATOM     14  C   UNL     1       1.924   8.215  17.922  0.00  0.00    +0.000 C 
ATOM     15  C   UNL     1       3.416   7.984  17.681  0.00  0.00    +0.000 C 
ENDBRANCH  13  15
BRANCH  13  16
ATOM     16  C   UNL     1       2.888   5.587  17.774  0.00  0.00    +0.000 C 
BRANCH  16  17
ATOM     17  C   UNL     1       2.426   4.720  18.928  0.00  0.00    +0.000 A 
ATOM     18  C   UNL     1       2.814   4.977  20.240  0.00  0.00    +0.000 A 
ATOM     19  N   UNL     1       2.439   4.201  21.287  0.00  0.00    +0.000 NA
ATOM     20  C   UNL     1       1.632   3.158  20.989  0.00  0.00    +0.000 A 
ATOM     21  C   UNL     1       1.160   2.290  22.110  0.00  0.00    +0.000 C 
ATOM     22  C   UNL     1       1.232   2.905  19.684  0.00  0.00    +0.000 A 
ATOM     23  N   UNL     1       1.622   3.663  18.635  0.00  0.00    +0.000 NA
ENDBRANCH  16  17
ENDBRANCH  13  16
ENDBRANCH   1  13
TORSDOF 5
ENDMDL
MODEL 7
REMARK VINA RESULT:      -6.9      2.739      7.293
REMARK  Name = 
REMARK  7 active torsions:
REMARK  status: ('A' for Active; 'I' for Inactive)
REMARK    1  A    between atoms: C_1  and  C_2
REMARK    2  A    between atoms: C_2  and  N_3
REMARK    3  A    between atoms: N_3  and  C_4
REMARK    4  A    between atoms: N_3  and  C_12
REMARK    5  A    between atoms: C_4  and  C_5
REMARK    6  A    between atoms: C_8  and  C_9
REMARK    7  A    between atoms: N_15  and  C_16
REMARK                            x       y       z     vdW  Elec       q    Type
REMARK                         _______ _______ _______ _____ _____    ______ ____
ROOT
ATOM      1  C   UNL     1       4.363   5.149  17.724  0.00  0.00    +0.000 C 
ATOM      2  C   UNL     1       4.484   3.620  17.686  0.00  0.00    +0.000 C 
ATOM      3  C   UNL     1       5.557   3.335  16.655  0.00  0.00    +0.000 C 
ATOM      4  N   UNL     1       5.478   4.426  15.722  0.00  0.00    +0.000 N 
ATOM      5  C   UNL     1       4.854   5.533  16.313  0.00  0.00    +0.000 C 
ATOM      6  O   UNL     1       4.762   6.659  15.842  0.00  0.00    +0.000 OA
ENDROOT
BRANCH   4   7
ATOM      7  C   UNL     1       6.122   4.419  14.449  0.00  0.00    +0.000 A 
ATOM      8  C   UNL     1       7.273   5.179  14.193  0.00  0.00    +0.000 A 
ATOM      9  C   UNL     1       7.905   5.166  12.948  0.00  0.00    +0.000 A 
ATOM     10  C   UNL     1       7.388   4.396  11.915  0.00  0.00    +0.000 A 
ATOM     11  C   UNL     1       6.240   3.639  12.135  0.00  0.00    +0.000 A 
ATOM     12  C   UNL     1       5.619   3.647  13.391  0.00  0.00    +0.000 A 
ENDBRANCH   4   7
BRANCH   1  13
ATOM     13  N   UNL     1       2.977   5.605  18.026  0.00  0.00    +0.000 NA
BRANCH  13  15
ATOM     14  C   UNL     1       1.397   4.181  19.388  0.00  0.00    +0.000 C 
ATOM     15  C   UNL     1       2.016   4.482  18.023  0.00  0.00    +0.000 C 
ENDBRANCH  13  15
BRANCH  13  16
ATOM     16  C   UNL     1       2.865   6.422  19.267  0.00  0.00    +0.000 C 
BRANCH  16  17
ATOM     17  C   UNL     1       2.191   7.774  19.147  0.00  0.00    +0.000 A 
ATOM     18  C   UNL     1       2.253   8.523  17.976  0.00  0.00    +0.000 A 
ATOM     19  N   UNL     1       1.685   9.749  17.851  0.00  0.00    +0.000 NA
ATOM     20  C   UNL     1       1.019  10.203  18.936  0.00  0.00    +0.000 A 
ATOM     21  C   UNL     1       0.344  11.533  18.843  0.00  0.00    +0.000 C 
ATOM     22  C   UNL     1       0.944   9.454  20.103  0.00  0.00    +0.000 A 
ATOM     23  N   UNL     1       1.528   8.242  20.238  0.00  0.00    +0.000 NA
ENDBRANCH  16  17
ENDBRANCH  13  16
ENDBRANCH   1  13
TORSDOF 5
ENDMDL
MODEL 8
REMARK VINA RESULT:      -6.9      2.731      7.286
REMARK  Name = 
REMARK  7 active torsions:
REMARK  status: ('A' for Active; 'I' for Inactive)
REMARK    1  A    between atoms: C_1  and  C_2
REMARK    2  A    between atoms: C_2  and  N_3
REMARK    3  A    between atoms: N_3  and  C_4
REMARK    4  A    between atoms: N_3  and  C_12
REMARK    5  A    between atoms: C_4  and  C_5
REMARK    6  A    between atoms: C_8  and  C_9
REMARK    7  A    between atoms: N_15  and  C_16
REMARK                            x       y       z     vdW  Elec       q    Type
REMARK                         _______ _______ _______ _____ _____    ______ ____
ROOT
ATOM      1  C   UNL     1       4.230   5.041  17.777  0.00  0.00    +0.000 C 
ATOM      2  C   UNL     1       4.226   3.513  17.634  0.00  0.00    +0.000 C 
ATOM      3  C   UNL     1       5.304   3.210  16.613  0.00  0.00    +0.000 C 
ATOM      4  N   UNL     1       5.344   4.366  15.757  0.00  0.00    +0.000 N 
ATOM      5  C   UNL     1       4.794   5.478  16.409  0.00  0.00    +0.000 C 
ATOM      6  O   UNL     1       4.810   6.637  16.016  0.00  0.00    +0.000 OA
ENDROOT
BRANCH   4   7
ATOM      7  C   UNL     1       6.024   4.391  14.504  0.00  0.00    +0.000 A 
ATOM      8  C   UNL     1       5.596   3.622  13.410  0.00  0.00    +0.000 A 
ATOM      9  C   UNL     1       6.261   3.653  12.182  0.00  0.00    +0.000 A 
ATOM     10  C   UNL     1       7.388   4.448  12.021  0.00  0.00    +0.000 A 
ATOM     11  C   UNL     1       7.842   5.214  13.091  0.00  0.00    +0.000 A 
ATOM     12  C   UNL     1       7.162   5.188  14.317  0.00  0.00    +0.000 A 
ENDBRANCH   4   7
BRANCH   1  13
ATOM     13  N   UNL     1       2.878   5.590  18.074  0.00  0.00    +0.000 NA
BRANCH  13  15
ATOM     14  C   UNL     1       1.393   4.204  19.575  0.00  0.00    +0.000 C 
ATOM     15  C   UNL     1       1.856   4.524  18.154  0.00  0.00    +0.000 C 
ENDBRANCH  13  15
BRANCH  13  16
ATOM     16  C   UNL     1       2.836   6.483  19.267  0.00  0.00    +0.000 C 
BRANCH  16  17
ATOM     17  C   UNL     1       2.194   7.844  19.090  0.00  0.00    +0.000 A 
ATOM     18  C   UNL     1       2.317   8.565  17.906  0.00  0.00    +0.000 A 
ATOM     19  N   UNL     1       1.778   9.797  17.731  0.00  0.00    +0.000 NA
ATOM     20  C   UNL     1       1.080  10.289  18.779  0.00  0.00    +0.000 A 
ATOM     21  C   UNL     1       0.435  11.629  18.629  0.00  0.00    +0.000 C 
ATOM     22  C   UNL     1       0.945   9.570  19.958  0.00  0.00    +0.000 A 
ATOM     23  N   UNL     1       1.500   8.351  20.144  0.00  0.00    +0.000 NA
ENDBRANCH  16  17
ENDBRANCH  13  16
ENDBRANCH   1  13
TORSDOF 5
ENDMDL
MODEL 9
REMARK VINA RESULT:      -6.8      2.800      7.344
REMARK  Name = 
REMARK  7 active torsions:
REMARK  status: ('A' for Active; 'I' for Inactive)
REMARK    1  A    between atoms: C_1  and  C_2
REMARK    2  A    between atoms: C_2  and  N_3
REMARK    3  A    between atoms: N_3  and  C_4
REMARK    4  A    between atoms: N_3  and  C_12
REMARK    5  A    between atoms: C_4  and  C_5
REMARK    6  A    between atoms: C_8  and  C_9
REMARK    7  A    between atoms: N_15  and  C_16
REMARK                            x       y       z     vdW  Elec       q    Type
REMARK                         _______ _______ _______ _____ _____    ______ ____
ROOT
ATOM      1  C   UNL     1       4.378   5.245  17.688  0.00  0.00    +0.000 C 
ATOM      2  C   UNL     1       4.461   3.713  17.672  0.00  0.00    +0.000 C 
ATOM      3  C   UNL     1       5.522   3.387  16.640  0.00  0.00    +0.000 C 
ATOM      4  N   UNL     1       5.464   4.466  15.691  0.00  0.00    +0.000 N 
ATOM      5  C   UNL     1       4.871   5.597  16.269  0.00  0.00    +0.000 C 
ATOM      6  O   UNL     1       4.803   6.717  15.782  0.00  0.00    +0.000 OA
ENDROOT
BRANCH   4   7
ATOM      7  C   UNL     1       6.101   4.424  14.416  0.00  0.00    +0.000 A 
ATOM      8  C   UNL     1       5.622   3.619  13.371  0.00  0.00    +0.000 A 
ATOM      9  C   UNL     1       6.245   3.583  12.121  0.00  0.00    +0.000 A 
ATOM     10  C   UNL     1       7.379   4.348  11.888  0.00  0.00    +0.000 A 
ATOM     11  C   UNL     1       7.884   5.150  12.908  0.00  0.00    +0.000 A 
ATOM     12  C   UNL     1       7.247   5.191  14.156  0.00  0.00    +0.000 A 
ENDBRANCH   4   7
BRANCH   1  13
ATOM     13  N   UNL     1       3.005   5.740  17.989  0.00  0.00    +0.000 NA
BRANCH  13  15
ATOM     14  C   UNL     1       1.431   4.220  19.252  0.00  0.00    +0.000 C 
ATOM     15  C   UNL     1       2.000   4.659  17.903  0.00  0.00    +0.000 C 
ENDBRANCH  13  15
BRANCH  13  16
ATOM     16  C   UNL     1       2.899   6.488  19.274  0.00  0.00    +0.000 C 
BRANCH  16  17
ATOM     17  C   UNL     1       2.143   7.801  19.250  0.00  0.00    +0.000 A 
ATOM     18  C   UNL     1       1.501   8.298  20.379  0.00  0.00    +0.000 A 
ATOM     19  N   UNL     1       0.793   9.455  20.378  0.00  0.00    +0.000 NA
ATOM     20  C   UNL     1       0.765  10.128  19.206  0.00  0.00    +0.000 A 
ATOM     21  C   UNL     1       0.028  11.427  19.156  0.00  0.00    +0.000 C 
ATOM     22  C   UNL     1       1.414   9.642  18.079  0.00  0.00    +0.000 A 
ATOM     23  N   UNL     1       2.102   8.478  18.071  0.00  0.00    +0.000 NA
ENDBRANCH  16  17
ENDBRANCH  13  16
ENDBRANCH   1  13
TORSDOF 5
ENDMDL
