MODEL 1
REMARK VINA RESULT:      -8.4      0.000      0.000
REMARK  Name = 
REMARK  11 active torsions:
REMARK  status: ('A' for Active; 'I' for Inactive)
REMARK    1  A    between atoms: C_1  and  O_2
REMARK    2  A    between atoms: O_2  and  C_3
REMARK    3  A    between atoms: C_3  and  C_5
REMARK    4  A    between atoms: C_7  and  N_8
REMARK    5  A    between atoms: C_9  and  C_11
REMARK    6  A    between atoms: C_11  and  O_12
REMARK    7  A    between atoms: O_12  and  C_13
REMARK    8  A    between atoms: C_13  and  C_15
REMARK    9  A    between atoms: C_26  and  C_27
REMARK   10  A    between atoms: C_27  and  O_29
REMARK   11  A    between atoms: O_29  and  C_30
REMARK                            x       y       z     vdW  Elec       q    Type
REMARK                         _______ _______ _______ _____ _____    ______ ____
ROOT
ATOM      1  N   UNL     1       2.314   5.793  20.965  0.00  0.00    +0.000 N 
ATOM      2  C   UNL     1       1.612   4.613  20.769  0.00  0.00    +0.000 C 
ATOM      3  O   UNL     1       0.488   4.518  20.284  0.00  0.00    +0.000 OA
ATOM      4  H   UNL     1       3.232   5.698  21.405  0.00  0.00    +0.000 HD
ENDROOT
BRANCH   1   7
ATOM      5  C   UNL     1       1.526   9.080  19.347  0.00  0.00    +0.000 A 
ATOM      6  C   UNL     1       2.026   7.779  19.522  0.00  0.00    +0.000 A 
ATOM      7  C   UNL     1       1.875   7.115  20.735  0.00  0.00    +0.000 A 
ATOM      8  C   UNL     1       1.232   7.770  21.790  0.00  0.00    +0.000 A 
ATOM      9  C   UNL     1       0.713   9.062  21.633  0.00  0.00    +0.000 A 
ATOM     10  C   UNL     1       0.862   9.723  20.408  0.00  0.00    +0.000 A 
BRANCH   5  11
ATOM     11  C   UNL     1       1.661   9.811  18.060  0.00  0.00    +0.000 C 
ATOM     12  O   UNL     1       2.037   9.289  17.024  0.00  0.00    +0.000 OA
BRANCH  11  14
ATOM     13  C   UNL     1       2.401  12.035  18.126  0.00  0.00    +0.000 C 
ATOM     14  O   UNL     1       1.317  11.112  18.218  0.00  0.00    +0.000 OA
ENDBRANCH  11  14
ENDBRANCH   5  11
BRANCH   9  15
ATOM     15  C   UNL     1      -0.006   9.674  22.790  0.00  0.00    +0.000 C 
ATOM     16  O   UNL     1       0.347   9.520  23.943  0.00  0.00    +0.000 OA
BRANCH  15  17
ATOM     17  O   UNL     1      -1.091  10.368  22.375  0.00  0.00    +0.000 OA
ATOM     18  C   UNL     1      -1.171  11.690  22.918  0.00  0.00    +0.000 C 
ENDBRANCH  15  17
ENDBRANCH   9  15
ENDBRANCH   1   7
BRANCH   2  19
ATOM     19  C   UNL     1       2.384   3.346  21.190  0.00  0.00    +0.000 C 
BRANCH  19  20
ATOM     20  O   UNL     1       2.873   2.484  20.156  0.00  0.00    +0.000 OA
BRANCH  20  21
ATOM     21  C   UNL     1       4.210   2.556  19.915  0.00  0.00    +0.000 C 
ATOM     22  O   UNL     1       5.014   1.750  20.380  0.00  0.00    +0.000 OA
BRANCH  21  23
ATOM     23  C   UNL     1       4.609   3.800  19.143  0.00  0.00    +0.000 C 
ATOM     24  C   UNL     1       4.653   3.678  17.631  0.00  0.00    +0.000 C 
ATOM     25  O   UNL     1       4.607   5.037  17.126  0.00  0.00    +0.000 OA
ATOM     26  C   UNL     1       5.641   5.758  17.686  0.00  0.00    +0.000 A 
ATOM     27  C   UNL     1       6.009   6.951  17.076  0.00  0.00    +0.000 A 
ATOM     28  C   UNL     1       7.218   7.549  17.432  0.00  0.00    +0.000 A 
ATOM     29  C   UNL     1       8.047   6.942  18.381  0.00  0.00    +0.000 A 
ATOM     30  C   UNL     1       7.603   5.826  19.090  0.00  0.00    +0.000 A 
ATOM     31  C   UNL     1       6.364   5.277  18.786  0.00  0.00    +0.000 A 
ATOM     32  O   UNL     1       5.915   4.238  19.567  0.00  0.00    +0.000 OA
ENDBRANCH  21  23
ENDBRANCH  20  21
ENDBRANCH  19  20
ENDBRANCH   2  19
TORSDOF 9
ENDMDL
MODEL 2
REMARK VINA RESULT:      -8.1      2.557      7.077
REMARK  Name = 
REMARK  11 active torsions:
REMARK  status: ('A' for Active; 'I' for Inactive)
REMARK    1  A    between atoms: C_1  and  O_2
REMARK    2  A    between atoms: O_2  and  C_3
REMARK    3  A    between atoms: C_3  and  C_5
REMARK    4  A    between atoms: C_7  and  N_8
REMARK    5  A    between atoms: C_9  and  C_11
REMARK    6  A    between atoms: C_11  and  O_12
REMARK    7  A    between atoms: O_12  and  C_13
REMARK    8  A    between atoms: C_13  and  C_15
REMARK    9  A    between atoms: C_26  and  C_27
REMARK   10  A    between atoms: C_27  and  O_29
REMARK   11  A    between atoms: O_29  and  C_30
REMARK                            x       y       z     vdW  Elec       q    Type
REMARK                         _______ _______ _______ _____ _____    ______ ____
ROOT
ATOM      1  N   UNL     1       3.993   3.703  17.824  0.00  0.00    +0.000 N 
ATOM      2  C   UNL     1       4.051   2.967  18.997  0.00  0.00    +0.000 C 
ATOM      3  O   UNL     1       5.062   2.747  19.659  0.00  0.00    +0.000 OA
ATOM      4  H   UNL     1       3.072   3.770  17.384  0.00  0.00    +0.000 HD
ENDROOT
BRANCH   1   7
ATOM      5  C   UNL     1       6.409   4.614  15.108  0.00  0.00    +0.000 A 
ATOM      6  C   UNL     1       5.355   3.972  15.779  0.00  0.00    +0.000 A 
ATOM      7  C   UNL     1       5.064   4.278  17.104  0.00  0.00    +0.000 A 
ATOM      8  C   UNL     1       5.849   5.224  17.770  0.00  0.00    +0.000 A 
ATOM      9  C   UNL     1       6.897   5.887  17.116  0.00  0.00    +0.000 A 
ATOM     10  C   UNL     1       7.181   5.580  15.779  0.00  0.00    +0.000 A 
BRANCH   5  11
ATOM     11  C   UNL     1       6.738   4.318  13.689  0.00  0.00    +0.000 C 
ATOM     12  O   UNL     1       7.490   5.003  13.014  0.00  0.00    +0.000 OA
BRANCH  11  14
ATOM     13  C   UNL     1       5.449   3.321  12.005  0.00  0.00    +0.000 C 
ATOM     14  O   UNL     1       6.086   3.206  13.276  0.00  0.00    +0.000 OA
ENDBRANCH  11  14
ENDBRANCH   5  11
BRANCH   9  15
ATOM     15  C   UNL     1       7.656   6.921  17.879  0.00  0.00    +0.000 C 
ATOM     16  O   UNL     1       8.220   6.685  18.930  0.00  0.00    +0.000 OA
BRANCH  15  17
ATOM     17  O   UNL     1       7.592   8.124  17.262  0.00  0.00    +0.000 OA
ATOM     18  C   UNL     1       8.255   9.173  17.974  0.00  0.00    +0.000 C 
ENDBRANCH  15  17
ENDBRANCH   9  15
ENDBRANCH   1   7
BRANCH   2  19
ATOM     19  C   UNL     1       2.684   2.434  19.472  0.00  0.00    +0.000 C 
BRANCH  19  20
ATOM     20  O   UNL     1       1.650   3.387  19.746  0.00  0.00    +0.000 OA
BRANCH  20  21
ATOM     21  C   UNL     1       1.959   4.341  20.665  0.00  0.00    +0.000 C 
ATOM     22  O   UNL     1       2.291   4.072  21.818  0.00  0.00    +0.000 OA
BRANCH  21  23
ATOM     23  C   UNL     1       1.713   5.752  20.162  0.00  0.00    +0.000 C 
ATOM     24  C   UNL     1       2.867   6.432  19.448  0.00  0.00    +0.000 C 
ATOM     25  O   UNL     1       2.276   7.523  18.697  0.00  0.00    +0.000 OA
ATOM     26  C   UNL     1       1.567   8.330  19.564  0.00  0.00    +0.000 A 
ATOM     27  C   UNL     1       1.236   9.610  19.138  0.00  0.00    +0.000 A 
ATOM     28  C   UNL     1       0.787  10.540  20.076  0.00  0.00    +0.000 A 
ATOM     29  C   UNL     1       0.685  10.182  21.424  0.00  0.00    +0.000 A 
ATOM     30  C   UNL     1       0.878   8.857  21.816  0.00  0.00    +0.000 A 
ATOM     31  C   UNL     1       1.253   7.916  20.865  0.00  0.00    +0.000 A 
ATOM     32  O   UNL     1       1.342   6.603  21.266  0.00  0.00    +0.000 OA
ENDBRANCH  21  23
ENDBRANCH  20  21
ENDBRANCH  19  20
ENDBRANCH   2  19
TORSDOF 9
ENDMDL
MODEL 3
REMARK VINA RESULT:      -7.8      0.811      1.038
REMARK  Name = 
REMARK  11 active torsions:
REMARK  status: ('A' for Active; 'I' for Inactive)
REMARK    1  A    between atoms: C_1  and  O_2
REMARK    2  A    between atoms: O_2  and  C_3
REMARK    3  A    between atoms: C_3  and  C_5
REMARK    4  A    between atoms: C_7  and  N_8
REMARK    5  A    between atoms: C_9  and  C_11
REMARK    6  A    between atoms: C_11  and  O_12
REMARK    7  A    between atoms: O_12  and  C_13
REMARK    8  A    between atoms: C_13  and  C_15
REMARK    9  A    between atoms: C_26  and  C_27
REMARK   10  A    between atoms: C_27  and  O_29
REMARK   11  A    between atoms: O_29  and  C_30
REMARK                            x       y       z     vdW  Elec       q    Type
REMARK                         _______ _______ _______ _____ _____    ______ ____
ROOT
ATOM      1  N   UNL     1       2.240   5.748  21.076  0.00  0.00    +0.000 N 
ATOM      2  C   UNL     1       1.591   4.559  20.779  0.00  0.00    +0.000 C 
ATOM      3  O   UNL     1       0.553   4.449  20.133  0.00  0.00    +0.000 OA
ATOM      4  H   UNL     1       3.084   5.665  21.647  0.00  0.00    +0.000 HD
ENDROOT
BRANCH   1   7
ATOM      5  C   UNL     1       1.342   8.909  19.274  0.00  0.00    +0.000 A 
ATOM      6  C   UNL     1       1.814   7.605  19.502  0.00  0.00    +0.000 A 
ATOM      7  C   UNL     1       1.821   7.065  20.783  0.00  0.00    +0.000 A 
ATOM      8  C   UNL     1       1.368   7.845  21.851  0.00  0.00    +0.000 A 
ATOM      9  C   UNL     1       0.881   9.144  21.645  0.00  0.00    +0.000 A 
ATOM     10  C   UNL     1       0.869   9.680  20.351  0.00  0.00    +0.000 A 
BRANCH   5  11
ATOM     11  C   UNL     1       1.311   9.511  17.916  0.00  0.00    +0.000 C 
ATOM     12  O   UNL     1       2.235  10.150  17.439  0.00  0.00    +0.000 OA
BRANCH  11  14
ATOM     13  C   UNL     1      -0.926  10.154  17.638  0.00  0.00    +0.000 C 
ATOM     14  O   UNL     1       0.127   9.249  17.311  0.00  0.00    +0.000 OA
ENDBRANCH  11  14
ENDBRANCH   5  11
BRANCH   9  15
ATOM     15  C   UNL     1       0.366   9.895  22.828  0.00  0.00    +0.000 C 
ATOM     16  O   UNL     1       0.387   9.445  23.957  0.00  0.00    +0.000 OA
BRANCH  15  17
ATOM     17  O   UNL     1      -0.141  11.094  22.458  0.00  0.00    +0.000 OA
ATOM     18  C   UNL     1      -1.451  11.349  22.975  0.00  0.00    +0.000 C 
ENDBRANCH  15  17
ENDBRANCH   9  15
ENDBRANCH   1   7
BRANCH   2  19
ATOM     19  C   UNL     1       2.309   3.302  21.310  0.00  0.00    +0.000 C 
BRANCH  19  20
ATOM     20  O   UNL     1       3.562   2.943  20.715  0.00  0.00    +0.000 OA
BRANCH  20  21
ATOM     21  C   UNL     1       3.565   2.855  19.359  0.00  0.00    +0.000 C 
ATOM     22  O   UNL     1       3.158   1.864  18.755  0.00  0.00    +0.000 OA
BRANCH  21  23
ATOM     23  C   UNL     1       4.248   4.033  18.688  0.00  0.00    +0.000 C 
ATOM     24  C   UNL     1       4.572   3.883  17.213  0.00  0.00    +0.000 C 
ATOM     25  O   UNL     1       4.783   5.229  16.718  0.00  0.00    +0.000 OA
ATOM     26  C   UNL     1       5.765   5.836  17.474  0.00  0.00    +0.000 A 
ATOM     27  C   UNL     1       6.379   6.969  16.956  0.00  0.00    +0.000 A 
ATOM     28  C   UNL     1       7.557   7.430  17.546  0.00  0.00    +0.000 A 
ATOM     29  C   UNL     1       8.109   6.747  18.635  0.00  0.00    +0.000 A 
ATOM     30  C   UNL     1       7.409   5.701  19.236  0.00  0.00    +0.000 A 
ATOM     31  C   UNL     1       6.198   5.293  18.691  0.00  0.00    +0.000 A 
ATOM     32  O   UNL     1       5.489   4.325  19.363  0.00  0.00    +0.000 OA
ENDBRANCH  21  23
ENDBRANCH  20  21
ENDBRANCH  19  20
ENDBRANCH   2  19
TORSDOF 9
ENDMDL
MODEL 4
REMARK VINA RESULT:      -7.7      5.468      7.779
REMARK  Name = 
REMARK  11 active torsions:
REMARK  status: ('A' for Active; 'I' for Inactive)
REMARK    1  A    between atoms: C_1  and  O_2
REMARK    2  A    between atoms: O_2  and  C_3
REMARK    3  A    between atoms: C_3  and  C_5
REMARK    4  A    between atoms: C_7  and  N_8
REMARK    5  A    between atoms: C_9  and  C_11
REMARK    6  A    between atoms: C_11  and  O_12
REMARK    7  A    between atoms: O_12  and  C_13
REMARK    8  A    between atoms: C_13  and  C_15
REMARK    9  A    between atoms: C_26  and  C_27
REMARK   10  A    between atoms: C_27  and  O_29
REMARK   11  A    between atoms: O_29  and  C_30
REMARK                            x       y       z     vdW  Elec       q    Type
REMARK                         _______ _______ _______ _____ _____    ______ ____
ROOT
ATOM      1  N   UNL     1       9.013   9.024  19.025  0.00  0.00    +0.000 N 
ATOM      2  C   UNL     1       8.098   8.555  18.095  0.00  0.00    +0.000 C 
ATOM      3  O   UNL     1       7.540   9.228  17.232  0.00  0.00    +0.000 OA
ATOM      4  H   UNL     1       9.366   8.333  19.691  0.00  0.00    +0.000 HD
ENDROOT
BRANCH   1   7
ATOM      5  C   UNL     1      10.383  12.476  18.520  0.00  0.00    +0.000 A 
ATOM      6  C   UNL     1      10.027  11.142  18.255  0.00  0.00    +0.000 A 
ATOM      7  C   UNL     1       9.434  10.356  19.236  0.00  0.00    +0.000 A 
ATOM      8  C   UNL     1       9.210  10.905  20.502  0.00  0.00    +0.000 A 
ATOM      9  C   UNL     1       9.544  12.237  20.784  0.00  0.00    +0.000 A 
ATOM     10  C   UNL     1      10.135  13.027  19.790  0.00  0.00    +0.000 A 
BRANCH   5  11
ATOM     11  C   UNL     1      11.008  13.346  17.490  0.00  0.00    +0.000 C 
ATOM     12  O   UNL     1      11.996  13.028  16.848  0.00  0.00    +0.000 OA
BRANCH  11  14
ATOM     13  C   UNL     1      11.150  15.669  17.210  0.00  0.00    +0.000 C 
ATOM     14  O   UNL     1      10.330  14.514  17.385  0.00  0.00    +0.000 OA
ENDBRANCH  11  14
ENDBRANCH   5  11
BRANCH   9  15
ATOM     15  C   UNL     1       9.226  12.766  22.144  0.00  0.00    +0.000 C 
ATOM     16  O   UNL     1       8.702  12.092  23.009  0.00  0.00    +0.000 OA
BRANCH  15  17
ATOM     17  O   UNL     1       9.563  14.073  22.247  0.00  0.00    +0.000 OA
ATOM     18  C   UNL     1       8.940  14.743  23.346  0.00  0.00    +0.000 C 
ENDBRANCH  15  17
ENDBRANCH   9  15
ENDBRANCH   1   7
BRANCH   2  19
ATOM     19  C   UNL     1       7.828   7.039  18.189  0.00  0.00    +0.000 C 
BRANCH  19  20
ATOM     20  O   UNL     1       7.571   6.326  16.973  0.00  0.00    +0.000 OA
BRANCH  20  21
ATOM     21  C   UNL     1       6.260   6.154  16.659  0.00  0.00    +0.000 C 
ATOM     22  O   UNL     1       5.743   6.657  15.663  0.00  0.00    +0.000 OA
BRANCH  21  23
ATOM     23  C   UNL     1       5.485   5.407  17.729  0.00  0.00    +0.000 C 
ATOM     24  C   UNL     1       4.886   4.071  17.329  0.00  0.00    +0.000 C 
ATOM     25  O   UNL     1       4.611   3.376  18.571  0.00  0.00    +0.000 OA
ATOM     26  C   UNL     1       3.801   4.169  19.358  0.00  0.00    +0.000 A 
ATOM     27  C   UNL     1       3.121   3.565  20.409  0.00  0.00    +0.000 A 
ATOM     28  C   UNL     1       2.084   4.260  21.032  0.00  0.00    +0.000 A 
ATOM     29  C   UNL     1       1.734   5.541  20.591  0.00  0.00    +0.000 A 
ATOM     30  C   UNL     1       2.515   6.192  19.636  0.00  0.00    +0.000 A 
ATOM     31  C   UNL     1       3.594   5.525  19.071  0.00  0.00    +0.000 A 
ATOM     32  O   UNL     1       4.399   6.228  18.205  0.00  0.00    +0.000 OA
ENDBRANCH  21  23
ENDBRANCH  20  21
ENDBRANCH  19  20
ENDBRANCH   2  19
TORSDOF 9
ENDMDL
MODEL 5
REMARK VINA RESULT:      -7.6      1.309      1.888
REMARK  Name = 
REMARK  11 active torsions:
REMARK  status: ('A' for Active; 'I' for Inactive)
REMARK    1  A    between atoms: C_1  and  O_2
REMARK    2  A    between atoms: O_2  and  C_3
REMARK    3  A    between atoms: C_3  and  C_5
REMARK    4  A    between atoms: C_7  and  N_8
REMARK    5  A    between atoms: C_9  and  C_11
REMARK    6  A    between atoms: C_11  and  O_12
REMARK    7  A    between atoms: O_12  and  C_13
REMARK    8  A    between atoms: C_13  and  C_15
REMARK    9  A    between atoms: C_26  and  C_27
REMARK   10  A    between atoms: C_27  and  O_29
REMARK   11  A    between atoms: O_29  and  C_30
REMARK                            x       y       z     vdW  Elec       q    Type
REMARK                         _______ _______ _______ _____ _____    ______ ____
ROOT
ATOM      1  N   UNL     1       2.195   5.607  21.155  0.00  0.00    +0.000 N 
ATOM      2  C   UNL     1       1.544   4.419  20.857  0.00  0.00    +0.000 C 
ATOM      3  O   UNL     1       0.558   4.301  20.136  0.00  0.00    +0.000 OA
ATOM      4  H   UNL     1       2.989   5.532  21.794  0.00  0.00    +0.000 HD
ENDROOT
BRANCH   1   7
ATOM      5  C   UNL     1       1.696   8.766  19.202  0.00  0.00    +0.000 A 
ATOM      6  C   UNL     1       2.126   7.470  19.532  0.00  0.00    +0.000 A 
ATOM      7  C   UNL     1       1.831   6.917  20.774  0.00  0.00    +0.000 A 
ATOM      8  C   UNL     1       1.113   7.678  21.701  0.00  0.00    +0.000 A 
ATOM      9  C   UNL     1       0.662   8.967  21.387  0.00  0.00    +0.000 A 
ATOM     10  C   UNL     1       0.956   9.516  20.133  0.00  0.00    +0.000 A 
BRANCH   5  11
ATOM     11  C   UNL     1       1.985   9.380  17.880  0.00  0.00    +0.000 C 
ATOM     12  O   UNL     1       2.565   8.798  16.977  0.00  0.00    +0.000 OA
BRANCH  11  14
ATOM     13  C   UNL     1       2.529  11.660  17.931  0.00  0.00    +0.000 C 
ATOM     14  O   UNL     1       1.523  10.652  17.839  0.00  0.00    +0.000 OA
ENDBRANCH  11  14
ENDBRANCH   5  11
BRANCH   9  15
ATOM     15  C   UNL     1      -0.144   9.697  22.411  0.00  0.00    +0.000 C 
ATOM     16  O   UNL     1      -0.914   9.137  23.167  0.00  0.00    +0.000 OA
BRANCH  15  17
ATOM     17  O   UNL     1       0.080  11.029  22.346  0.00  0.00    +0.000 OA
ATOM     18  C   UNL     1      -1.116  11.815  22.341  0.00  0.00    +0.000 C 
ENDBRANCH  15  17
ENDBRANCH   9  15
ENDBRANCH   1   7
BRANCH   2  19
ATOM     19  C   UNL     1       2.189   3.172  21.497  0.00  0.00    +0.000 C 
BRANCH  19  20
ATOM     20  O   UNL     1       3.362   2.631  20.878  0.00  0.00    +0.000 OA
BRANCH  20  21
ATOM     21  C   UNL     1       3.288   2.454  19.532  0.00  0.00    +0.000 C 
ATOM     22  O   UNL     1       2.407   1.785  18.996  0.00  0.00    +0.000 OA
BRANCH  21  23
ATOM     23  C   UNL     1       4.475   3.041  18.789  0.00  0.00    +0.000 C 
ATOM     24  C   UNL     1       5.026   4.353  19.315  0.00  0.00    +0.000 C 
ATOM     25  O   UNL     1       6.362   4.468  18.763  0.00  0.00    +0.000 OA
ATOM     26  C   UNL     1       6.288   4.372  17.388  0.00  0.00    +0.000 A 
ATOM     27  C   UNL     1       7.374   4.818  16.645  0.00  0.00    +0.000 A 
ATOM     28  C   UNL     1       7.222   5.008  15.272  0.00  0.00    +0.000 A 
ATOM     29  C   UNL     1       5.987   4.762  14.662  0.00  0.00    +0.000 A 
ATOM     30  C   UNL     1       4.950   4.177  15.390  0.00  0.00    +0.000 A 
ATOM     31  C   UNL     1       5.130   3.919  16.742  0.00  0.00    +0.000 A 
ATOM     32  O   UNL     1       4.125   3.256  17.407  0.00  0.00    +0.000 OA
ENDBRANCH  21  23
ENDBRANCH  20  21
ENDBRANCH  19  20
ENDBRANCH   2  19
TORSDOF 9
ENDMDL
MODEL 6
REMARK VINA RESULT:      -7.5      2.285      6.920
REMARK  Name = 
REMARK  11 active torsions:
REMARK  status: ('A' for Active; 'I' for Inactive)
REMARK    1  A    between atoms: C_1  and  O_2
REMARK    2  A    between atoms: O_2  and  C_3
REMARK    3  A    between atoms: C_3  and  C_5
REMARK    4  A    between atoms: C_7  and  N_8
REMARK    5  A    between atoms: C_9  and  C_11
REMARK    6  A    between atoms: C_11  and  O_12
REMARK    7  A    between atoms: O_12  and  C_13
REMARK    8  A    between atoms: C_13  and  C_15
REMARK    9  A    between atoms: C_26  and  C_27
REMARK   10  A    between atoms: C_27  and  O_29
REMARK   11  A    between atoms: O_29  and  C_30
REMARK                            x       y       z     vdW  Elec       q    Type
REMARK                         _______ _______ _______ _____ _____    ______ ____
ROOT
ATOM      1  N   UNL     1       3.601   3.324  18.484  0.00  0.00    +0.000 N 
ATOM      2  C   UNL     1       2.284   3.477  18.077  0.00  0.00    +0.000 C 
ATOM      3  O   UNL     1       1.909   4.051  17.059  0.00  0.00    +0.000 OA
ATOM      4  H   UNL     1       3.740   2.838  19.373  0.00  0.00    +0.000 HD
ENDROOT
BRANCH   1   7
ATOM      5  C   UNL     1       6.187   4.358  15.976  0.00  0.00    +0.000 A 
ATOM      6  C   UNL     1       5.029   3.774  16.517  0.00  0.00    +0.000 A 
ATOM      7  C   UNL     1       4.765   3.850  17.880  0.00  0.00    +0.000 A 
ATOM      8  C   UNL     1       5.679   4.502  18.713  0.00  0.00    +0.000 A 
ATOM      9  C   UNL     1       6.833   5.103  18.192  0.00  0.00    +0.000 A 
ATOM     10  C   UNL     1       7.091   5.030  16.818  0.00  0.00    +0.000 A 
BRANCH   5  11
ATOM     11  C   UNL     1       6.492   4.304  14.522  0.00  0.00    +0.000 C 
ATOM     12  O   UNL     1       5.786   3.735  13.705  0.00  0.00    +0.000 OA
BRANCH  11  14
ATOM     13  C   UNL     1       7.829   5.325  12.890  0.00  0.00    +0.000 C 
ATOM     14  O   UNL     1       7.645   4.962  14.258  0.00  0.00    +0.000 OA
ENDBRANCH  11  14
ENDBRANCH   5  11
BRANCH   9  15
ATOM     15  C   UNL     1       7.735   5.826  19.138  0.00  0.00    +0.000 C 
ATOM     16  O   UNL     1       7.810   5.550  20.320  0.00  0.00    +0.000 OA
BRANCH  15  17
ATOM     17  O   UNL     1       8.401   6.821  18.508  0.00  0.00    +0.000 OA
ATOM     18  C   UNL     1       7.545   7.811  17.930  0.00  0.00    +0.000 C 
ENDBRANCH  15  17
ENDBRANCH   9  15
ENDBRANCH   1   7
BRANCH   2  19
ATOM     19  C   UNL     1       1.256   2.815  19.017  0.00  0.00    +0.000 C 
BRANCH  19  20
ATOM     20  O   UNL     1       0.669   3.621  20.045  0.00  0.00    +0.000 OA
BRANCH  20  21
ATOM     21  C   UNL     1       1.522   4.456  20.696  0.00  0.00    +0.000 C 
ATOM     22  O   UNL     1       2.223   4.091  21.637  0.00  0.00    +0.000 OA
BRANCH  21  23
ATOM     23  C   UNL     1       1.408   5.899  20.236  0.00  0.00    +0.000 C 
ATOM     24  C   UNL     1       2.656   6.525  19.641  0.00  0.00    +0.000 C 
ATOM     25  O   UNL     1       2.198   7.680  18.895  0.00  0.00    +0.000 OA
ATOM     26  C   UNL     1       1.476   8.501  19.738  0.00  0.00    +0.000 A 
ATOM     27  C   UNL     1       1.264   9.816  19.342  0.00  0.00    +0.000 A 
ATOM     28  C   UNL     1       0.802  10.738  20.282  0.00  0.00    +0.000 A 
ATOM     29  C   UNL     1       0.571  10.338  21.602  0.00  0.00    +0.000 A 
ATOM     30  C   UNL     1       0.647   8.989  21.951  0.00  0.00    +0.000 A 
ATOM     31  C   UNL     1       1.035   8.061  20.993  0.00  0.00    +0.000 A 
ATOM     32  O   UNL     1       1.007   6.731  21.343  0.00  0.00    +0.000 OA
ENDBRANCH  21  23
ENDBRANCH  20  21
ENDBRANCH  19  20
ENDBRANCH   2  19
TORSDOF 9
ENDMDL
MODEL 7
REMARK VINA RESULT:      -7.5      2.854      8.926
REMARK  Name = 
REMARK  11 active torsions:
REMARK  status: ('A' for Active; 'I' for Inactive)
REMARK    1  A    between atoms: C_1  and  O_2
REMARK    2  A    between atoms: O_2  and  C_3
REMARK    3  A    between atoms: C_3  and  C_5
REMARK    4  A    between atoms: C_7  and  N_8
REMARK    5  A    between atoms: C_9  and  C_11
REMARK    6  A    between atoms: C_11  and  O_12
REMARK    7  A    between atoms: O_12  and  C_13
REMARK    8  A    between atoms: C_13  and  C_15
REMARK    9  A    between atoms: C_26  and  C_27
REMARK   10  A    between atoms: C_27  and  O_29
REMARK   11  A    between atoms: O_29  and  C_30
REMARK                            x       y       z     vdW  Elec       q    Type
REMARK                         _______ _______ _______ _____ _____    ______ ____
ROOT
ATOM      1  N   UNL     1       2.729   7.836  17.816  0.00  0.00    +0.000 N 
ATOM      2  C   UNL     1       2.047   8.275  18.940  0.00  0.00    +0.000 C 
ATOM      3  O   UNL     1       1.994   7.695  20.021  0.00  0.00    +0.000 OA
ATOM      4  H   UNL     1       2.651   8.429  16.987  0.00  0.00    +0.000 HD
ENDROOT
BRANCH   1   7
ATOM      5  C   UNL     1       3.592   4.195  17.609  0.00  0.00    +0.000 A 
ATOM      6  C   UNL     1       2.855   5.368  17.844  0.00  0.00    +0.000 A 
ATOM      7  C   UNL     1       3.425   6.619  17.641  0.00  0.00    +0.000 A 
ATOM      8  C   UNL     1       4.755   6.698  17.215  0.00  0.00    +0.000 A 
ATOM      9  C   UNL     1       5.505   5.541  16.962  0.00  0.00    +0.000 A 
ATOM     10  C   UNL     1       4.923   4.283  17.161  0.00  0.00    +0.000 A 
BRANCH   5  11
ATOM     11  C   UNL     1       3.008   2.843  17.806  0.00  0.00    +0.000 C 
ATOM     12  O   UNL     1       3.672   1.851  18.058  0.00  0.00    +0.000 OA
BRANCH  11  14
ATOM     13  C   UNL     1       0.922   2.385  18.772  0.00  0.00    +0.000 C 
ATOM     14  O   UNL     1       1.662   2.885  17.659  0.00  0.00    +0.000 OA
ENDBRANCH  11  14
ENDBRANCH   5  11
BRANCH   9  15
ATOM     15  C   UNL     1       6.901   5.706  16.460  0.00  0.00    +0.000 C 
ATOM     16  O   UNL     1       7.571   6.695  16.686  0.00  0.00    +0.000 OA
BRANCH  15  17
ATOM     17  O   UNL     1       7.277   4.643  15.712  0.00  0.00    +0.000 OA
ATOM     18  C   UNL     1       7.008   4.798  14.315  0.00  0.00    +0.000 C 
ENDBRANCH  15  17
ENDBRANCH   9  15
ENDBRANCH   1   7
BRANCH   2  19
ATOM     19  C   UNL     1       1.343   9.635  18.756  0.00  0.00    +0.000 C 
BRANCH  19  20
ATOM     20  O   UNL     1       0.360  10.019  19.724  0.00  0.00    +0.000 OA
BRANCH  20  21
ATOM     21  C   UNL     1       0.772  10.919  20.656  0.00  0.00    +0.000 C 
ATOM     22  O   UNL     1       1.230  10.585  21.747  0.00  0.00    +0.000 OA
BRANCH  21  23
ATOM     23  C   UNL     1       0.475  12.356  20.266  0.00  0.00    +0.000 C 
ATOM     24  C   UNL     1      -0.649  12.573  19.271  0.00  0.00    +0.000 C 
ATOM     25  O   UNL     1      -1.028  13.966  19.405  0.00  0.00    +0.000 OA
ATOM     26  C   UNL     1       0.087  14.755  19.210  0.00  0.00    +0.000 A 
ATOM     27  C   UNL     1      -0.109  16.102  18.928  0.00  0.00    +0.000 A 
ATOM     28  C   UNL     1       0.962  16.853  18.443  0.00  0.00    +0.000 A 
ATOM     29  C   UNL     1       2.206  16.249  18.236  0.00  0.00    +0.000 A 
ATOM     30  C   UNL     1       2.429  14.938  18.659  0.00  0.00    +0.000 A 
ATOM     31  C   UNL     1       1.380  14.215  19.211  0.00  0.00    +0.000 A 
ATOM     32  O   UNL     1       1.657  12.962  19.704  0.00  0.00    +0.000 OA
ENDBRANCH  21  23
ENDBRANCH  20  21
ENDBRANCH  19  20
ENDBRANCH   2  19
TORSDOF 9
ENDMDL
MODEL 8
REMARK VINA RESULT:      -7.5      3.590      9.377
REMARK  Name = 
REMARK  11 active torsions:
REMARK  status: ('A' for Active; 'I' for Inactive)
REMARK    1  A    between atoms: C_1  and  O_2
REMARK    2  A    between atoms: O_2  and  C_3
REMARK    3  A    between atoms: C_3  and  C_5
REMARK    4  A    between atoms: C_7  and  N_8
REMARK    5  A    between atoms: C_9  and  C_11
REMARK    6  A    between atoms: C_11  and  O_12
REMARK    7  A    between atoms: O_12  and  C_13
REMARK    8  A    between atoms: C_13  and  C_15
REMARK    9  A    between atoms: C_26  and  C_27
REMARK   10  A    between atoms: C_27  and  O_29
REMARK   11  A    between atoms: O_29  and  C_30
REMARK                            x       y       z     vdW  Elec       q    Type
REMARK                         _______ _______ _______ _____ _____    ______ ____
ROOT
ATOM      1  N   UNL     1       2.331   7.791  18.892  0.00  0.00    +0.000 N 
ATOM      2  C   UNL     1       1.807   8.972  18.388  0.00  0.00    +0.000 C 
ATOM      3  O   UNL     1       1.790   9.303  17.205  0.00  0.00    +0.000 OA
ATOM      4  H   UNL     1       2.287   7.681  19.907  0.00  0.00    +0.000 HD
ENDROOT
BRANCH   1   7
ATOM      5  C   UNL     1       4.833   5.919  16.823  0.00  0.00    +0.000 A 
ATOM      6  C   UNL     1       4.179   6.986  17.462  0.00  0.00    +0.000 A 
ATOM      7  C   UNL     1       3.014   6.773  18.191  0.00  0.00    +0.000 A 
ATOM      8  C   UNL     1       2.489   5.479  18.266  0.00  0.00    +0.000 A 
ATOM      9  C   UNL     1       3.132   4.398  17.648  0.00  0.00    +0.000 A 
ATOM     10  C   UNL     1       4.309   4.618  16.921  0.00  0.00    +0.000 A 
BRANCH   5  11
ATOM     11  C   UNL     1       6.085   6.113  16.047  0.00  0.00    +0.000 C 
ATOM     12  O   UNL     1       6.253   5.681  14.918  0.00  0.00    +0.000 OA
BRANCH  11  14
ATOM     13  C   UNL     1       7.567   6.107  17.864  0.00  0.00    +0.000 C 
ATOM     14  O   UNL     1       6.986   6.818  16.772  0.00  0.00    +0.000 OA
ENDBRANCH  11  14
ENDBRANCH   5  11
BRANCH   9  15
ATOM     15  C   UNL     1       2.538   3.039  17.817  0.00  0.00    +0.000 C 
ATOM     16  O   UNL     1       3.209   2.026  17.863  0.00  0.00    +0.000 OA
BRANCH  15  17
ATOM     17  O   UNL     1       1.187   3.103  17.873  0.00  0.00    +0.000 OA
ATOM     18  C   UNL     1       0.639   2.640  19.110  0.00  0.00    +0.000 C 
ENDBRANCH  15  17
ENDBRANCH   9  15
ENDBRANCH   1   7
BRANCH   2  19
ATOM     19  C   UNL     1       1.180   9.888  19.458  0.00  0.00    +0.000 C 
BRANCH  19  20
ATOM     20  O   UNL     1      -0.246  10.018  19.478  0.00  0.00    +0.000 OA
BRANCH  20  21
ATOM     21  C   UNL     1      -0.742  11.143  18.898  0.00  0.00    +0.000 C 
ATOM     22  O   UNL     1      -0.067  12.155  18.724  0.00  0.00    +0.000 OA
BRANCH  21  23
ATOM     23  C   UNL     1      -2.235  11.065  18.629  0.00  0.00    +0.000 C 
ATOM     24  C   UNL     1      -2.687  11.368  17.212  0.00  0.00    +0.000 C 
ATOM     25  O   UNL     1      -4.019  10.807  17.098  0.00  0.00    +0.000 OA
ATOM     26  C   UNL     1      -4.815  11.337  18.092  0.00  0.00    +0.000 A 
ATOM     27  C   UNL     1      -6.193  11.230  17.950  0.00  0.00    +0.000 A 
ATOM     28  C   UNL     1      -7.020  11.997  18.771  0.00  0.00    +0.000 A 
ATOM     29  C   UNL     1      -6.460  12.867  19.713  0.00  0.00    +0.000 A 
ATOM     30  C   UNL     1      -5.084  12.858  19.946  0.00  0.00    +0.000 A 
ATOM     31  C   UNL     1      -4.270  12.036  19.177  0.00  0.00    +0.000 A 
ATOM     32  O   UNL     1      -2.934  11.979  19.497  0.00  0.00    +0.000 OA
ENDBRANCH  21  23
ENDBRANCH  20  21
ENDBRANCH  19  20
ENDBRANCH   2  19
TORSDOF 9
ENDMDL
MODEL 9
REMARK VINA RESULT:      -7.5      3.113      9.113
REMARK  Name = 
REMARK  11 active torsions:
REMARK  status: ('A' for Active; 'I' for Inactive)
REMARK    1  A    between atoms: C_1  and  O_2
REMARK    2  A    between atoms: O_2  and  C_3
REMARK    3  A    between atoms: C_3  and  C_5
REMARK    4  A    between atoms: C_7  and  N_8
REMARK    5  A    between atoms: C_9  and  C_11
REMARK    6  A    between atoms: C_11  and  O_12
REMARK    7  A    between atoms: O_12  and  C_13
REMARK    8  A    between atoms: C_13  and  C_15
REMARK    9  A    between atoms: C_26  and  C_27
REMARK   10  A    between atoms: C_27  and  O_29
REMARK   11  A    between atoms: O_29  and  C_30
REMARK                            x       y       z     vdW  Elec       q    Type
REMARK                         _______ _______ _______ _____ _____    ______ ____
ROOT
ATOM      1  N   UNL     1       3.176   7.765  17.447  0.00  0.00    +0.000 N 
ATOM      2  C   UNL     1       2.369   8.237  18.471  0.00  0.00    +0.000 C 
ATOM      3  O   UNL     1       2.145   7.661  19.532  0.00  0.00    +0.000 OA
ATOM      4  H   UNL     1       3.237   8.359  16.617  0.00  0.00    +0.000 HD
ENDROOT
BRANCH   1   7
ATOM      5  C   UNL     1       5.761   5.101  16.927  0.00  0.00    +0.000 A 
ATOM      6  C   UNL     1       5.153   6.368  16.946  0.00  0.00    +0.000 A 
ATOM      7  C   UNL     1       3.834   6.518  17.362  0.00  0.00    +0.000 A 
ATOM      8  C   UNL     1       3.111   5.384  17.744  0.00  0.00    +0.000 A 
ATOM      9  C   UNL     1       3.701   4.113  17.746  0.00  0.00    +0.000 A 
ATOM     10  C   UNL     1       5.032   3.969  17.333  0.00  0.00    +0.000 A 
BRANCH   5  11
ATOM     11  C   UNL     1       7.171   4.909  16.500  0.00  0.00    +0.000 C 
ATOM     12  O   UNL     1       8.007   4.327  17.172  0.00  0.00    +0.000 OA
BRANCH  11  14
ATOM     13  C   UNL     1       6.944   4.682  14.177  0.00  0.00    +0.000 C 
ATOM     14  O   UNL     1       7.376   5.471  15.285  0.00  0.00    +0.000 OA
ENDBRANCH  11  14
ENDBRANCH   5  11
BRANCH   9  15
ATOM     15  C   UNL     1       2.880   2.959  18.217  0.00  0.00    +0.000 C 
ATOM     16  O   UNL     1       2.532   2.053  17.485  0.00  0.00    +0.000 OA
BRANCH  15  17
ATOM     17  O   UNL     1       2.564   3.091  19.526  0.00  0.00    +0.000 OA
ATOM     18  C   UNL     1       3.553   2.561  20.414  0.00  0.00    +0.000 C 
ENDBRANCH  15  17
ENDBRANCH   9  15
ENDBRANCH   1   7
BRANCH   2  19
ATOM     19  C   UNL     1       1.758   9.626  18.199  0.00  0.00    +0.000 C 
BRANCH  19  20
ATOM     20  O   UNL     1       1.171  10.328  19.301  0.00  0.00    +0.000 OA
BRANCH  20  21
ATOM     21  C   UNL     1       0.905  11.644  19.085  0.00  0.00    +0.000 C 
ATOM     22  O   UNL     1       1.788  12.480  18.902  0.00  0.00    +0.000 OA
BRANCH  21  23
ATOM     23  C   UNL     1      -0.566  11.986  19.236  0.00  0.00    +0.000 C 
ATOM     24  C   UNL     1      -1.231  11.570  20.535  0.00  0.00    +0.000 C 
ATOM     25  O   UNL     1      -2.437  12.370  20.632  0.00  0.00    +0.000 OA
ATOM     26  C   UNL     1      -3.196  12.175  19.497  0.00  0.00    +0.000 A 
ATOM     27  C   UNL     1      -4.536  12.541  19.538  0.00  0.00    +0.000 A 
ATOM     28  C   UNL     1      -5.390  12.096  18.529  0.00  0.00    +0.000 A 
ATOM     29  C   UNL     1      -4.899  11.284  17.501  0.00  0.00    +0.000 A 
ATOM     30  C   UNL     1      -3.529  11.045  17.391  0.00  0.00    +0.000 A 
ATOM     31  C   UNL     1      -2.670  11.553  18.357  0.00  0.00    +0.000 A 
ATOM     32  O   UNL     1      -1.319  11.381  18.166  0.00  0.00    +0.000 OA
ENDBRANCH  21  23
ENDBRANCH  20  21
ENDBRANCH  19  20
ENDBRANCH   2  19
TORSDOF 9
ENDMDL
