MODEL 1
REMARK VINA RESULT:      -7.6      0.000      0.000
REMARK  Name = 
REMARK  4 active torsions:
REMARK  status: ('A' for Active; 'I' for Inactive)
REMARK    1  A    between atoms: C_1  and  C_2
REMARK    2  A    between atoms: C_14  and  C_16
REMARK    3  A    between atoms: C_16  and  C_17
REMARK    4  A    between atoms: C_23  and  C_24
REMARK                            x       y       z     vdW  Elec       q    Type
REMARK                         _______ _______ _______ _____ _____    ______ ____
ROOT
ATOM      1  C   UNL     1       4.566   6.669  17.268  0.00  0.00    +0.000 C 
ATOM      2  C   UNL     1       3.984   5.378  17.720  0.00  0.00    +0.000 A 
ATOM      3  C   UNL     1       4.348   4.152  17.186  0.00  0.00    +0.000 A 
ATOM      4  N   UNL     1       3.686   3.177  17.868  0.00  0.00    +0.000 N 
ATOM      5  C   UNL     1       2.903   3.727  18.836  0.00  0.00    +0.000 A 
ATOM      6  N   UNL     1       2.165   3.004  19.682  0.00  0.00    +0.000 NA
ATOM      7  C   UNL     1       1.504   3.787  20.543  0.00  0.00    +0.000 A 
ATOM      8  N   UNL     1       1.511   5.130  20.607  0.00  0.00    +0.000 NA
ATOM      9  C   UNL     1       2.233   5.847  19.700  0.00  0.00    +0.000 A 
ATOM     10  N   UNL     1       2.097   7.214  19.740  0.00  0.00    +0.000 N 
ATOM     11  C   UNL     1       2.185   8.042  18.547  0.00  0.00    +0.000 C 
ATOM     12  C   UNL     1       1.075   9.090  18.499  0.00  0.00    +0.000 C 
ATOM     13  N   UNL     1       0.988   9.840  19.749  0.00  0.00    +0.000 N 
ATOM     14  C   UNL     1       0.961  11.227  19.675  0.00  0.00    +0.000 C 
ATOM     15  O   UNL     1       1.027  11.816  18.590  0.00  0.00    +0.000 OA
ATOM     16  C   UNL     1       0.894   9.002  20.974  0.00  0.00    +0.000 C 
ATOM     17  C   UNL     1      -0.493   8.360  21.083  0.00  0.00    +0.000 C 
ATOM     18  C   UNL     1       2.006   7.918  21.019  0.00  0.00    +0.000 C 
ATOM     19  C   UNL     1       3.020   5.117  18.771  0.00  0.00    +0.000 A 
ATOM     20  H   UNL     1       3.763   2.185  17.711  0.00  0.00    +0.000 HD
ENDROOT
BRANCH  14  21
ATOM     21  C   UNL     1       0.876  12.030  20.956  0.00  0.00    +0.000 C 
BRANCH  21  22
ATOM     22  C   UNL     1      -0.542  12.209  21.444  0.00  0.00    +0.000 A 
ATOM     23  C   UNL     1      -0.933  11.716  22.700  0.00  0.00    +0.000 A 
ATOM     24  C   UNL     1      -2.245  11.880  23.151  0.00  0.00    +0.000 A 
ATOM     25  C   UNL     1      -3.178  12.538  22.355  0.00  0.00    +0.000 A 
ATOM     26  C   UNL     1      -2.800  13.040  21.111  0.00  0.00    +0.000 A 
ATOM     27  C   UNL     1      -1.488  12.881  20.660  0.00  0.00    +0.000 A 
ENDBRANCH  21  22
ENDBRANCH  14  21
TORSDOF 2
ENDMDL
MODEL 2
REMARK VINA RESULT:      -7.3      1.895      3.312
REMARK  Name = 
REMARK  4 active torsions:
REMARK  status: ('A' for Active; 'I' for Inactive)
REMARK    1  A    between atoms: C_1  and  C_2
REMARK    2  A    between atoms: C_14  and  C_16
REMARK    3  A    between atoms: C_16  and  C_17
REMARK    4  A    between atoms: C_23  and  C_24
REMARK                            x       y       z     vdW  Elec       q    Type
REMARK                         _______ _______ _______ _____ _____    ______ ____
ROOT
ATOM      1  C   UNL     1       2.122   4.332  20.460  0.00  0.00    +0.000 C 
ATOM      2  C   UNL     1       3.386   4.369  19.680  0.00  0.00    +0.000 A 
ATOM      3  C   UNL     1       4.335   3.360  19.722  0.00  0.00    +0.000 A 
ATOM      4  N   UNL     1       5.327   3.670  18.842  0.00  0.00    +0.000 N 
ATOM      5  C   UNL     1       5.054   4.850  18.221  0.00  0.00    +0.000 A 
ATOM      6  N   UNL     1       5.839   5.383  17.281  0.00  0.00    +0.000 NA
ATOM      7  C   UNL     1       5.335   6.535  16.821  0.00  0.00    +0.000 A 
ATOM      8  N   UNL     1       4.205   7.153  17.211  0.00  0.00    +0.000 NA
ATOM      9  C   UNL     1       3.447   6.612  18.207  0.00  0.00    +0.000 A 
ATOM     10  N   UNL     1       2.377   7.356  18.644  0.00  0.00    +0.000 N 
ATOM     11  C   UNL     1       1.918   7.326  20.024  0.00  0.00    +0.000 C 
ATOM     12  C   UNL     1       1.632   8.727  20.559  0.00  0.00    +0.000 C 
ATOM     13  N   UNL     1       0.771   9.484  19.654  0.00  0.00    +0.000 N 
ATOM     14  C   UNL     1      -0.345  10.112  20.191  0.00  0.00    +0.000 C 
ATOM     15  O   UNL     1      -0.620  10.022  21.392  0.00  0.00    +0.000 OA
ATOM     16  C   UNL     1       1.235   9.524  18.241  0.00  0.00    +0.000 C 
ATOM     17  C   UNL     1       2.454  10.441  18.099  0.00  0.00    +0.000 C 
ATOM     18  C   UNL     1       1.551   8.104  17.697  0.00  0.00    +0.000 C 
ATOM     19  C   UNL     1       3.859   5.359  18.731  0.00  0.00    +0.000 A 
ATOM     20  H   UNL     1       6.144   3.114  18.647  0.00  0.00    +0.000 HD
ENDROOT
BRANCH  14  21
ATOM     21  C   UNL     1      -1.258  10.900  19.273  0.00  0.00    +0.000 C 
BRANCH  21  22
ATOM     22  C   UNL     1      -1.115  12.394  19.445  0.00  0.00    +0.000 A 
ATOM     23  C   UNL     1      -0.220  13.123  18.645  0.00  0.00    +0.000 A 
ATOM     24  C   UNL     1      -0.087  14.504  18.804  0.00  0.00    +0.000 A 
ATOM     25  C   UNL     1      -0.847  15.171  19.761  0.00  0.00    +0.000 A 
ATOM     26  C   UNL     1      -1.745  14.460  20.555  0.00  0.00    +0.000 A 
ATOM     27  C   UNL     1      -1.883  13.080  20.395  0.00  0.00    +0.000 A 
ENDBRANCH  21  22
ENDBRANCH  14  21
TORSDOF 2
ENDMDL
MODEL 3
REMARK VINA RESULT:      -7.2      2.302      3.546
REMARK  Name = 
REMARK  4 active torsions:
REMARK  status: ('A' for Active; 'I' for Inactive)
REMARK    1  A    between atoms: C_1  and  C_2
REMARK    2  A    between atoms: C_14  and  C_16
REMARK    3  A    between atoms: C_16  and  C_17
REMARK    4  A    between atoms: C_23  and  C_24
REMARK                            x       y       z     vdW  Elec       q    Type
REMARK                         _______ _______ _______ _____ _____    ______ ____
ROOT
ATOM      1  C   UNL     1       1.251   5.128  20.555  0.00  0.00    +0.000 C 
ATOM      2  C   UNL     1       2.542   4.981  19.833  0.00  0.00    +0.000 A 
ATOM      3  C   UNL     1       3.335   3.848  19.919  0.00  0.00    +0.000 A 
ATOM      4  N   UNL     1       4.400   4.009  19.084  0.00  0.00    +0.000 N 
ATOM      5  C   UNL     1       4.324   5.211  18.451  0.00  0.00    +0.000 A 
ATOM      6  N   UNL     1       5.217   5.622  17.548  0.00  0.00    +0.000 NA
ATOM      7  C   UNL     1       4.902   6.830  17.065  0.00  0.00    +0.000 A 
ATOM      8  N   UNL     1       3.855   7.604  17.402  0.00  0.00    +0.000 NA
ATOM      9  C   UNL     1       2.984   7.183  18.363  0.00  0.00    +0.000 A 
ATOM     10  N   UNL     1       2.011   8.073  18.751  0.00  0.00    +0.000 N 
ATOM     11  C   UNL     1       1.491   8.117  20.109  0.00  0.00    +0.000 C 
ATOM     12  C   UNL     1       1.382   9.548  20.630  0.00  0.00    +0.000 C 
ATOM     13  N   UNL     1       0.678  10.413  19.686  0.00  0.00    +0.000 N 
ATOM     14  C   UNL     1      -0.362  11.195  20.171  0.00  0.00    +0.000 C 
ATOM     15  O   UNL     1      -0.699  11.154  21.359  0.00  0.00    +0.000 OA
ATOM     16  C   UNL     1       1.206  10.377  18.295  0.00  0.00    +0.000 C 
ATOM     17  C   UNL     1       2.547  11.112  18.209  0.00  0.00    +0.000 C 
ATOM     18  C   UNL     1       1.342   8.923  17.767  0.00  0.00    +0.000 C 
ATOM     19  C   UNL     1       3.191   5.888  18.907  0.00  0.00    +0.000 A 
ATOM     20  H   UNL     1       5.138   3.343  18.927  0.00  0.00    +0.000 HD
ENDROOT
BRANCH  14  21
ATOM     21  C   UNL     1      -1.111  12.098  19.213  0.00  0.00    +0.000 C 
BRANCH  21  22
ATOM     22  C   UNL     1      -2.415  11.499  18.742  0.00  0.00    +0.000 A 
ATOM     23  C   UNL     1      -2.426  10.335  17.957  0.00  0.00    +0.000 A 
ATOM     24  C   UNL     1      -3.632   9.782  17.520  0.00  0.00    +0.000 A 
ATOM     25  C   UNL     1      -4.839  10.384  17.864  0.00  0.00    +0.000 A 
ATOM     26  C   UNL     1      -4.843  11.535  18.650  0.00  0.00    +0.000 A 
ATOM     27  C   UNL     1      -3.639  12.087  19.091  0.00  0.00    +0.000 A 
ENDBRANCH  21  22
ENDBRANCH  14  21
TORSDOF 2
ENDMDL
MODEL 4
REMARK VINA RESULT:      -7.1      1.882      3.128
REMARK  Name = 
REMARK  4 active torsions:
REMARK  status: ('A' for Active; 'I' for Inactive)
REMARK    1  A    between atoms: C_1  and  C_2
REMARK    2  A    between atoms: C_14  and  C_16
REMARK    3  A    between atoms: C_16  and  C_17
REMARK    4  A    between atoms: C_23  and  C_24
REMARK                            x       y       z     vdW  Elec       q    Type
REMARK                         _______ _______ _______ _____ _____    ______ ____
ROOT
ATOM      1  C   UNL     1       2.231   4.221  20.431  0.00  0.00    +0.000 C 
ATOM      2  C   UNL     1       3.488   4.281  19.641  0.00  0.00    +0.000 A 
ATOM      3  C   UNL     1       4.451   3.284  19.669  0.00  0.00    +0.000 A 
ATOM      4  N   UNL     1       5.432   3.614  18.783  0.00  0.00    +0.000 N 
ATOM      5  C   UNL     1       5.137   4.794  18.173  0.00  0.00    +0.000 A 
ATOM      6  N   UNL     1       5.908   5.344  17.231  0.00  0.00    +0.000 NA
ATOM      7  C   UNL     1       5.385   6.492  16.782  0.00  0.00    +0.000 A 
ATOM      8  N   UNL     1       4.250   7.092  17.185  0.00  0.00    +0.000 NA
ATOM      9  C   UNL     1       3.507   6.534  18.183  0.00  0.00    +0.000 A 
ATOM     10  N   UNL     1       2.430   7.260  18.634  0.00  0.00    +0.000 N 
ATOM     11  C   UNL     1       1.983   7.215  20.017  0.00  0.00    +0.000 C 
ATOM     12  C   UNL     1       1.682   8.608  20.564  0.00  0.00    +0.000 C 
ATOM     13  N   UNL     1       0.804   9.360  19.671  0.00  0.00    +0.000 N 
ATOM     14  C   UNL     1      -0.317   9.968  20.220  0.00  0.00    +0.000 C 
ATOM     15  O   UNL     1      -0.580   9.867  21.423  0.00  0.00    +0.000 OA
ATOM     16  C   UNL     1       1.256   9.415  18.254  0.00  0.00    +0.000 C 
ATOM     17  C   UNL     1       2.461  10.350  18.109  0.00  0.00    +0.000 C 
ATOM     18  C   UNL     1       1.587   8.003  17.698  0.00  0.00    +0.000 C 
ATOM     19  C   UNL     1       3.940   5.284  18.696  0.00  0.00    +0.000 A 
ATOM     20  H   UNL     1       6.254   3.071  18.578  0.00  0.00    +0.000 HD
ENDROOT
BRANCH  14  21
ATOM     21  C   UNL     1      -1.247  10.750  19.315  0.00  0.00    +0.000 C 
BRANCH  21  22
ATOM     22  C   UNL     1      -1.438  12.180  19.764  0.00  0.00    +0.000 A 
ATOM     23  C   UNL     1      -2.637  12.583  20.373  0.00  0.00    +0.000 A 
ATOM     24  C   UNL     1      -2.815  13.905  20.787  0.00  0.00    +0.000 A 
ATOM     25  C   UNL     1      -1.798  14.837  20.600  0.00  0.00    +0.000 A 
ATOM     26  C   UNL     1      -0.599  14.446  20.005  0.00  0.00    +0.000 A 
ATOM     27  C   UNL     1      -0.417  13.124  19.594  0.00  0.00    +0.000 A 
ENDBRANCH  21  22
ENDBRANCH  14  21
TORSDOF 2
ENDMDL
MODEL 5
REMARK VINA RESULT:      -7.0      1.969      3.299
REMARK  Name = 
REMARK  4 active torsions:
REMARK  status: ('A' for Active; 'I' for Inactive)
REMARK    1  A    between atoms: C_1  and  C_2
REMARK    2  A    between atoms: C_14  and  C_16
REMARK    3  A    between atoms: C_16  and  C_17
REMARK    4  A    between atoms: C_23  and  C_24
REMARK                            x       y       z     vdW  Elec       q    Type
REMARK                         _______ _______ _______ _____ _____    ______ ____
ROOT
ATOM      1  C   UNL     1       1.376   5.041  20.856  0.00  0.00    +0.000 C 
ATOM      2  C   UNL     1       2.436   5.205  19.827  0.00  0.00    +0.000 A 
ATOM      3  C   UNL     1       3.286   4.181  19.441  0.00  0.00    +0.000 A 
ATOM      4  N   UNL     1       4.080   4.642  18.436  0.00  0.00    +0.000 N 
ATOM      5  C   UNL     1       3.773   5.937  18.148  0.00  0.00    +0.000 A 
ATOM      6  N   UNL     1       4.371   6.635  17.181  0.00  0.00    +0.000 NA
ATOM      7  C   UNL     1       3.873   7.875  17.094  0.00  0.00    +0.000 A 
ATOM      8  N   UNL     1       2.911   8.429  17.853  0.00  0.00    +0.000 NA
ATOM      9  C   UNL     1       2.351   7.711  18.868  0.00  0.00    +0.000 A 
ATOM     10  N   UNL     1       1.467   8.376  19.684  0.00  0.00    +0.000 N 
ATOM     11  C   UNL     1       1.323   8.063  21.097  0.00  0.00    +0.000 C 
ATOM     12  C   UNL     1       1.276   9.324  21.957  0.00  0.00    +0.000 C 
ATOM     13  N   UNL     1       0.301  10.286  21.451  0.00  0.00    +0.000 N 
ATOM     14  C   UNL     1      -0.615  10.818  22.349  0.00  0.00    +0.000 C 
ATOM     15  O   UNL     1      -0.623  10.479  23.537  0.00  0.00    +0.000 OA
ATOM     16  C   UNL     1       0.443  10.615  20.007  0.00  0.00    +0.000 C 
ATOM     17  C   UNL     1       1.670  11.502  19.774  0.00  0.00    +0.000 C 
ATOM     18  C   UNL     1       0.515   9.337  19.128  0.00  0.00    +0.000 C 
ATOM     19  C   UNL     1       2.766   6.361  19.016  0.00  0.00    +0.000 A 
ATOM     20  H   UNL     1       4.787   4.116  17.947  0.00  0.00    +0.000 HD
ENDROOT
BRANCH  14  21
ATOM     21  C   UNL     1      -1.641  11.814  21.849  0.00  0.00    +0.000 C 
BRANCH  21  22
ATOM     22  C   UNL     1      -2.101  12.771  22.922  0.00  0.00    +0.000 A 
ATOM     23  C   UNL     1      -3.357  12.613  23.531  0.00  0.00    +0.000 A 
ATOM     24  C   UNL     1      -3.783  13.499  24.523  0.00  0.00    +0.000 A 
ATOM     25  C   UNL     1      -2.961  14.550  24.919  0.00  0.00    +0.000 A 
ATOM     26  C   UNL     1      -1.708  14.712  24.330  0.00  0.00    +0.000 A 
ATOM     27  C   UNL     1      -1.278  13.825  23.341  0.00  0.00    +0.000 A 
ENDBRANCH  21  22
ENDBRANCH  14  21
TORSDOF 2
ENDMDL
MODEL 6
REMARK VINA RESULT:      -6.9      2.510      3.878
REMARK  Name = 
REMARK  4 active torsions:
REMARK  status: ('A' for Active; 'I' for Inactive)
REMARK    1  A    between atoms: C_1  and  C_2
REMARK    2  A    between atoms: C_14  and  C_16
REMARK    3  A    between atoms: C_16  and  C_17
REMARK    4  A    between atoms: C_23  and  C_24
REMARK                            x       y       z     vdW  Elec       q    Type
REMARK                         _______ _______ _______ _____ _____    ______ ____
ROOT
ATOM      1  C   UNL     1       1.219   5.059  20.496  0.00  0.00    +0.000 C 
ATOM      2  C   UNL     1       2.518   4.937  19.782  0.00  0.00    +0.000 A 
ATOM      3  C   UNL     1       3.323   3.812  19.859  0.00  0.00    +0.000 A 
ATOM      4  N   UNL     1       4.392   3.997  19.035  0.00  0.00    +0.000 N 
ATOM      5  C   UNL     1       4.308   5.208  18.419  0.00  0.00    +0.000 A 
ATOM      6  N   UNL     1       5.205   5.642  17.530  0.00  0.00    +0.000 NA
ATOM      7  C   UNL     1       4.880   6.853  17.062  0.00  0.00    +0.000 A 
ATOM      8  N   UNL     1       3.822   7.610  17.402  0.00  0.00    +0.000 NA
ATOM      9  C   UNL     1       2.948   7.165  18.349  0.00  0.00    +0.000 A 
ATOM     10  N   UNL     1       1.962   8.039  18.742  0.00  0.00    +0.000 N 
ATOM     11  C   UNL     1       1.430   8.057  20.096  0.00  0.00    +0.000 C 
ATOM     12  C   UNL     1       1.300   9.479  20.636  0.00  0.00    +0.000 C 
ATOM     13  N   UNL     1       0.595  10.350  19.700  0.00  0.00    +0.000 N 
ATOM     14  C   UNL     1      -0.458  11.114  20.188  0.00  0.00    +0.000 C 
ATOM     15  O   UNL     1      -0.804  11.051  21.372  0.00  0.00    +0.000 OA
ATOM     16  C   UNL     1       1.134  10.341  18.313  0.00  0.00    +0.000 C 
ATOM     17  C   UNL     1       2.468  11.092  18.248  0.00  0.00    +0.000 C 
ATOM     18  C   UNL     1       1.291   8.896  17.765  0.00  0.00    +0.000 C 
ATOM     19  C   UNL     1       3.165   5.865  18.875  0.00  0.00    +0.000 A 
ATOM     20  H   UNL     1       5.139   3.341  18.875  0.00  0.00    +0.000 HD
ENDROOT
BRANCH  14  21
ATOM     21  C   UNL     1      -1.209  12.022  19.236  0.00  0.00    +0.000 C 
BRANCH  21  22
ATOM     22  C   UNL     1      -1.972  11.261  18.177  0.00  0.00    +0.000 A 
ATOM     23  C   UNL     1      -1.988  11.710  16.847  0.00  0.00    +0.000 A 
ATOM     24  C   UNL     1      -2.694  11.007  15.868  0.00  0.00    +0.000 A 
ATOM     25  C   UNL     1      -3.388   9.849  16.206  0.00  0.00    +0.000 A 
ATOM     26  C   UNL     1      -3.372   9.388  17.521  0.00  0.00    +0.000 A 
ATOM     27  C   UNL     1      -2.663  10.086  18.501  0.00  0.00    +0.000 A 
ENDBRANCH  21  22
ENDBRANCH  14  21
TORSDOF 2
ENDMDL
MODEL 7
REMARK VINA RESULT:      -6.9      2.375      3.562
REMARK  Name = 
REMARK  4 active torsions:
REMARK  status: ('A' for Active; 'I' for Inactive)
REMARK    1  A    between atoms: C_1  and  C_2
REMARK    2  A    between atoms: C_14  and  C_16
REMARK    3  A    between atoms: C_16  and  C_17
REMARK    4  A    between atoms: C_23  and  C_24
REMARK                            x       y       z     vdW  Elec       q    Type
REMARK                         _______ _______ _______ _____ _____    ______ ____
ROOT
ATOM      1  C   UNL     1       1.549   4.328  20.314  0.00  0.00    +0.000 C 
ATOM      2  C   UNL     1       2.935   4.208  19.792  0.00  0.00    +0.000 A 
ATOM      3  C   UNL     1       3.742   3.105  20.025  0.00  0.00    +0.000 A 
ATOM      4  N   UNL     1       4.911   3.283  19.349  0.00  0.00    +0.000 N 
ATOM      5  C   UNL     1       4.893   4.467  18.678  0.00  0.00    +0.000 A 
ATOM      6  N   UNL     1       5.896   4.887  17.903  0.00  0.00    +0.000 NA
ATOM      7  C   UNL     1       5.619   6.071  17.346  0.00  0.00    +0.000 A 
ATOM      8  N   UNL     1       4.511   6.817  17.505  0.00  0.00    +0.000 NA
ATOM      9  C   UNL     1       3.522   6.389  18.341  0.00  0.00    +0.000 A 
ATOM     10  N   UNL     1       2.476   7.254  18.558  0.00  0.00    +0.000 N 
ATOM     11  C   UNL     1       1.762   7.312  19.824  0.00  0.00    +0.000 C 
ATOM     12  C   UNL     1       1.534   8.751  20.282  0.00  0.00    +0.000 C 
ATOM     13  N   UNL     1       0.951   9.569  19.222  0.00  0.00    +0.000 N 
ATOM     14  C   UNL     1      -0.172  10.327  19.529  0.00  0.00    +0.000 C 
ATOM     15  O   UNL     1      -0.679  10.302  20.656  0.00  0.00    +0.000 OA
ATOM     16  C   UNL     1       1.677   9.519  17.925  0.00  0.00    +0.000 C 
ATOM     17  C   UNL     1       2.994  10.297  18.014  0.00  0.00    +0.000 C 
ATOM     18  C   UNL     1       1.933   8.058  17.463  0.00  0.00    +0.000 C 
ATOM     19  C   UNL     1       3.686   5.115  18.945  0.00  0.00    +0.000 A 
ATOM     20  H   UNL     1       5.684   2.638  19.320  0.00  0.00    +0.000 HD
ENDROOT
BRANCH  14  21
ATOM     21  C   UNL     1      -0.801  11.181  18.447  0.00  0.00    +0.000 C 
BRANCH  21  22
ATOM     22  C   UNL     1      -2.300  11.018  18.367  0.00  0.00    +0.000 A 
ATOM     23  C   UNL     1      -3.155  11.985  18.919  0.00  0.00    +0.000 A 
ATOM     24  C   UNL     1      -4.541  11.834  18.846  0.00  0.00    +0.000 A 
ATOM     25  C   UNL     1      -5.089  10.718  18.219  0.00  0.00    +0.000 A 
ATOM     26  C   UNL     1      -4.251   9.755  17.659  0.00  0.00    +0.000 A 
ATOM     27  C   UNL     1      -2.864   9.906  17.727  0.00  0.00    +0.000 A 
ENDBRANCH  21  22
ENDBRANCH  14  21
TORSDOF 2
ENDMDL
MODEL 8
REMARK VINA RESULT:      -6.9      2.370      3.564
REMARK  Name = 
REMARK  4 active torsions:
REMARK  status: ('A' for Active; 'I' for Inactive)
REMARK    1  A    between atoms: C_1  and  C_2
REMARK    2  A    between atoms: C_14  and  C_16
REMARK    3  A    between atoms: C_16  and  C_17
REMARK    4  A    between atoms: C_23  and  C_24
REMARK                            x       y       z     vdW  Elec       q    Type
REMARK                         _______ _______ _______ _____ _____    ______ ____
ROOT
ATOM      1  C   UNL     1       1.372   4.037  20.770  0.00  0.00    +0.000 C 
ATOM      2  C   UNL     1       2.762   3.811  20.294  0.00  0.00    +0.000 A 
ATOM      3  C   UNL     1       3.511   2.697  20.638  0.00  0.00    +0.000 A 
ATOM      4  N   UNL     1       4.701   2.765  19.979  0.00  0.00    +0.000 N 
ATOM      5  C   UNL     1       4.752   3.888  19.211  0.00  0.00    +0.000 A 
ATOM      6  N   UNL     1       5.789   4.196  18.429  0.00  0.00    +0.000 NA
ATOM      7  C   UNL     1       5.579   5.340  17.768  0.00  0.00    +0.000 A 
ATOM      8  N   UNL     1       4.503   6.145  17.838  0.00  0.00    +0.000 NA
ATOM      9  C   UNL     1       3.479   5.834  18.681  0.00  0.00    +0.000 A 
ATOM     10  N   UNL     1       2.470   6.760  18.800  0.00  0.00    +0.000 N 
ATOM     11  C   UNL     1       1.733   6.956  20.038  0.00  0.00    +0.000 C 
ATOM     12  C   UNL     1       1.563   8.437  20.370  0.00  0.00    +0.000 C 
ATOM     13  N   UNL     1       1.040   9.188  19.231  0.00  0.00    +0.000 N 
ATOM     14  C   UNL     1      -0.053  10.018  19.446  0.00  0.00    +0.000 C 
ATOM     15  O   UNL     1      -0.583  10.110  20.558  0.00  0.00    +0.000 OA
ATOM     16  C   UNL     1       1.790   8.996  17.961  0.00  0.00    +0.000 C 
ATOM     17  C   UNL     1       3.139   9.719  18.017  0.00  0.00    +0.000 C 
ATOM     18  C   UNL     1       1.987   7.492  17.629  0.00  0.00    +0.000 C 
ATOM     19  C   UNL     1       3.571   4.609  19.393  0.00  0.00    +0.000 A 
ATOM     20  H   UNL     1       5.444   2.087  20.023  0.00  0.00    +0.000 HD
ENDROOT
BRANCH  14  21
ATOM     21  C   UNL     1      -0.618  10.805  18.281  0.00  0.00    +0.000 C 
BRANCH  21  22
ATOM     22  C   UNL     1      -2.128  10.822  18.262  0.00  0.00    +0.000 A 
ATOM     23  C   UNL     1      -2.848   9.780  17.656  0.00  0.00    +0.000 A 
ATOM     24  C   UNL     1      -4.245   9.797  17.638  0.00  0.00    +0.000 A 
ATOM     25  C   UNL     1      -4.937  10.852  18.226  0.00  0.00    +0.000 A 
ATOM     26  C   UNL     1      -4.234  11.888  18.839  0.00  0.00    +0.000 A 
ATOM     27  C   UNL     1      -2.838  11.871  18.862  0.00  0.00    +0.000 A 
ENDBRANCH  21  22
ENDBRANCH  14  21
TORSDOF 2
ENDMDL
MODEL 9
REMARK VINA RESULT:      -6.7      2.971      7.986
REMARK  Name = 
REMARK  4 active torsions:
REMARK  status: ('A' for Active; 'I' for Inactive)
REMARK    1  A    between atoms: C_1  and  C_2
REMARK    2  A    between atoms: C_14  and  C_16
REMARK    3  A    between atoms: C_16  and  C_17
REMARK    4  A    between atoms: C_23  and  C_24
REMARK                            x       y       z     vdW  Elec       q    Type
REMARK                         _______ _______ _______ _____ _____    ______ ____
ROOT
ATOM      1  C   UNL     1      -3.391   9.971  16.449  0.00  0.00    +0.000 C 
ATOM      2  C   UNL     1      -3.828  11.074  17.345  0.00  0.00    +0.000 A 
ATOM      3  C   UNL     1      -4.921  11.883  17.076  0.00  0.00    +0.000 A 
ATOM      4  N   UNL     1      -5.088  12.735  18.126  0.00  0.00    +0.000 N 
ATOM      5  C   UNL     1      -4.141  12.504  19.076  0.00  0.00    +0.000 A 
ATOM      6  N   UNL     1      -4.083  13.172  20.231  0.00  0.00    +0.000 NA
ATOM      7  C   UNL     1      -3.071  12.740  20.993  0.00  0.00    +0.000 A 
ATOM      8  N   UNL     1      -2.173  11.782  20.703  0.00  0.00    +0.000 NA
ATOM      9  C   UNL     1      -2.223  11.150  19.496  0.00  0.00    +0.000 A 
ATOM     10  N   UNL     1      -1.204  10.274  19.211  0.00  0.00    +0.000 N 
ATOM     11  C   UNL     1      -0.709  10.064  17.860  0.00  0.00    +0.000 C 
ATOM     12  C   UNL     1       0.817  10.052  17.809  0.00  0.00    +0.000 C 
ATOM     13  N   UNL     1       1.383   9.145  18.805  0.00  0.00    +0.000 N 
ATOM     14  C   UNL     1       2.335   8.226  18.382  0.00  0.00    +0.000 C 
ATOM     15  O   UNL     1       2.685   8.159  17.199  0.00  0.00    +0.000 OA
ATOM     16  C   UNL     1       0.885   9.354  20.191  0.00  0.00    +0.000 C 
ATOM     17  C   UNL     1       1.480  10.633  20.790  0.00  0.00    +0.000 C 
ATOM     18  C   UNL     1      -0.667   9.392  20.248  0.00  0.00    +0.000 C 
ATOM     19  C   UNL     1      -3.294  11.490  18.627  0.00  0.00    +0.000 A 
ATOM     20  H   UNL     1      -5.811  13.430  18.217  0.00  0.00    +0.000 HD
ENDROOT
BRANCH  14  21
ATOM     21  C   UNL     1       2.934   7.271  19.394  0.00  0.00    +0.000 C 
BRANCH  21  22
ATOM     22  C   UNL     1       2.282   5.909  19.373  0.00  0.00    +0.000 A 
ATOM     23  C   UNL     1       2.242   5.153  18.190  0.00  0.00    +0.000 A 
ATOM     24  C   UNL     1       1.638   3.894  18.171  0.00  0.00    +0.000 A 
ATOM     25  C   UNL     1       1.070   3.375  19.331  0.00  0.00    +0.000 A 
ATOM     26  C   UNL     1       1.112   4.112  20.514  0.00  0.00    +0.000 A 
ATOM     27  C   UNL     1       1.719   5.369  20.537  0.00  0.00    +0.000 A 
ENDBRANCH  21  22
ENDBRANCH  14  21
TORSDOF 2
ENDMDL
