MODEL 1
REMARK VINA RESULT:      -8.5      0.000      0.000
REMARK  Name = 
REMARK  6 active torsions:
REMARK  status: ('A' for Active; 'I' for Inactive)
REMARK    1  A    between atoms: C_1  and  C_2
REMARK    2  A    between atoms: C_6  and  C_7
REMARK    3  A    between atoms: C_7  and  O_9
REMARK    4  A    between atoms: O_9  and  C_10
REMARK    5  A    between atoms: C_10  and  C_11
REMARK    6  A    between atoms: C_11  and  N_12
REMARK                            x       y       z     vdW  Elec       q    Type
REMARK                         _______ _______ _______ _____ _____    ______ ____
ROOT
ATOM      1  C   UNL     1       4.473   5.234  16.896  0.00  0.00    +0.000 C 
ENDROOT
BRANCH   1   2
ATOM      2  N   UNL     1       4.264   5.551  18.299  0.00  0.00    +0.000 N 
ATOM      3  C   UNL     1       3.020   5.979  18.715  0.00  0.00    +0.000 C 
ATOM      4  O   UNL     1       2.364   6.921  18.318  0.00  0.00    +0.000 OA
ATOM      5  C   UNL     1       2.542   5.010  19.699  0.00  0.00    +0.000 A 
ATOM      6  C   UNL     1       1.256   4.784  20.143  0.00  0.00    +0.000 A 
ATOM      7  C   UNL     1       0.993   3.536  20.714  0.00  0.00    +0.000 A 
ATOM      8  C   UNL     1       2.007   2.559  20.819  0.00  0.00    +0.000 A 
ATOM      9  C   UNL     1       3.315   2.837  20.419  0.00  0.00    +0.000 A 
ATOM     10  C   UNL     1       3.551   4.088  19.884  0.00  0.00    +0.000 A 
ATOM     11  C   UNL     1       4.710   4.548  19.135  0.00  0.00    +0.000 C 
ATOM     12  O   UNL     1       5.807   4.022  19.180  0.00  0.00    +0.000 OA
ENDBRANCH   1   2
BRANCH   1  13
ATOM     13  C   UNL     1       5.163   6.259  16.004  0.00  0.00    +0.000 C 
BRANCH  13  14
ATOM     14  O   UNL     1       6.590   6.223  16.239  0.00  0.00    +0.000 OA
BRANCH  14  15
ATOM     15  C   UNL     1       7.192   5.039  15.906  0.00  0.00    +0.000 C 
ATOM     16  O   UNL     1       7.755   4.289  16.696  0.00  0.00    +0.000 OA
BRANCH  15  22
ATOM     17  C   UNL     1       5.345   2.575  11.899  0.00  0.00    +0.000 C 
ATOM     18  C   UNL     1       6.248   3.618  12.489  0.00  0.00    +0.000 A 
ATOM     19  C   UNL     1       7.064   4.407  11.662  0.00  0.00    +0.000 A 
ATOM     20  C   UNL     1       7.889   5.376  12.214  0.00  0.00    +0.000 A 
ATOM     21  C   UNL     1       7.928   5.567  13.597  0.00  0.00    +0.000 A 
ATOM     22  C   UNL     1       7.124   4.785  14.441  0.00  0.00    +0.000 A 
ATOM     23  C   UNL     1       6.285   3.815  13.879  0.00  0.00    +0.000 A 
ENDBRANCH  15  22
ENDBRANCH  14  15
ENDBRANCH  13  14
ENDBRANCH   1  13
TORSDOF 5
ENDMDL
MODEL 2
REMARK VINA RESULT:      -8.5      1.290      1.991
REMARK  Name = 
REMARK  6 active torsions:
REMARK  status: ('A' for Active; 'I' for Inactive)
REMARK    1  A    between atoms: C_1  and  C_2
REMARK    2  A    between atoms: C_6  and  C_7
REMARK    3  A    between atoms: C_7  and  O_9
REMARK    4  A    between atoms: O_9  and  C_10
REMARK    5  A    between atoms: C_10  and  C_11
REMARK    6  A    between atoms: C_11  and  N_12
REMARK                            x       y       z     vdW  Elec       q    Type
REMARK                         _______ _______ _______ _____ _____    ______ ____
ROOT
ATOM      1  C   UNL     1       4.144   5.263  17.167  0.00  0.00    +0.000 C 
ENDROOT
BRANCH   1   2
ATOM      2  N   UNL     1       4.048   3.899  17.657  0.00  0.00    +0.000 N 
ATOM      3  C   UNL     1       4.531   3.598  18.914  0.00  0.00    +0.000 C 
ATOM      4  O   UNL     1       5.645   3.771  19.366  0.00  0.00    +0.000 OA
ATOM      5  C   UNL     1       3.402   3.099  19.696  0.00  0.00    +0.000 A 
ATOM      6  C   UNL     1       3.271   2.997  21.066  0.00  0.00    +0.000 A 
ATOM      7  C   UNL     1       1.970   2.934  21.573  0.00  0.00    +0.000 A 
ATOM      8  C   UNL     1       0.852   2.977  20.713  0.00  0.00    +0.000 A 
ATOM      9  C   UNL     1       1.017   3.016  19.326  0.00  0.00    +0.000 A 
ATOM     10  C   UNL     1       2.313   3.050  18.852  0.00  0.00    +0.000 A 
ATOM     11  C   UNL     1       2.779   3.379  17.514  0.00  0.00    +0.000 C 
ATOM     12  O   UNL     1       2.088   3.312  16.514  0.00  0.00    +0.000 OA
ENDBRANCH   1   2
BRANCH   1  13
ATOM     13  C   UNL     1       5.408   6.065  17.458  0.00  0.00    +0.000 C 
BRANCH  13  14
ATOM     14  O   UNL     1       6.189   6.193  16.249  0.00  0.00    +0.000 OA
BRANCH  14  15
ATOM     15  C   UNL     1       6.982   5.113  15.966  0.00  0.00    +0.000 C 
ATOM     16  O   UNL     1       7.634   4.481  16.791  0.00  0.00    +0.000 OA
BRANCH  15  22
ATOM     17  C   UNL     1       5.301   2.597  11.917  0.00  0.00    +0.000 C 
ATOM     18  C   UNL     1       6.205   3.622  12.536  0.00  0.00    +0.000 A 
ATOM     19  C   UNL     1       7.104   4.353  11.743  0.00  0.00    +0.000 A 
ATOM     20  C   UNL     1       7.931   5.307  12.320  0.00  0.00    +0.000 A 
ATOM     21  C   UNL     1       7.887   5.539  13.697  0.00  0.00    +0.000 A 
ATOM     22  C   UNL     1       6.999   4.816  14.507  0.00  0.00    +0.000 A 
ATOM     23  C   UNL     1       6.160   3.861  13.919  0.00  0.00    +0.000 A 
ENDBRANCH  15  22
ENDBRANCH  14  15
ENDBRANCH  13  14
ENDBRANCH   1  13
TORSDOF 5
ENDMDL
MODEL 3
REMARK VINA RESULT:      -8.5      1.209      1.861
REMARK  Name = 
REMARK  6 active torsions:
REMARK  status: ('A' for Active; 'I' for Inactive)
REMARK    1  A    between atoms: C_1  and  C_2
REMARK    2  A    between atoms: C_6  and  C_7
REMARK    3  A    between atoms: C_7  and  O_9
REMARK    4  A    between atoms: O_9  and  C_10
REMARK    5  A    between atoms: C_10  and  C_11
REMARK    6  A    between atoms: C_11  and  N_12
REMARK                            x       y       z     vdW  Elec       q    Type
REMARK                         _______ _______ _______ _____ _____    ______ ____
ROOT
ATOM      1  C   UNL     1       5.080   5.686  18.424  0.00  0.00    +0.000 C 
ENDROOT
BRANCH   1   2
ATOM      2  N   UNL     1       3.720   5.504  17.946  0.00  0.00    +0.000 N 
ATOM      3  C   UNL     1       3.338   4.273  17.454  0.00  0.00    +0.000 C 
ATOM      4  O   UNL     1       3.830   3.623  16.554  0.00  0.00    +0.000 OA
ATOM      5  C   UNL     1       2.243   3.797  18.298  0.00  0.00    +0.000 A 
ATOM      6  C   UNL     1       1.757   2.515  18.451  0.00  0.00    +0.000 A 
ATOM      7  C   UNL     1       1.044   2.244  19.623  0.00  0.00    +0.000 A 
ATOM      8  C   UNL     1       0.842   3.246  20.597  0.00  0.00    +0.000 A 
ATOM      9  C   UNL     1       1.291   4.551  20.386  0.00  0.00    +0.000 A 
ATOM     10  C   UNL     1       1.968   4.796  19.208  0.00  0.00    +0.000 A 
ATOM     11  C   UNL     1       2.781   5.949  18.854  0.00  0.00    +0.000 C 
ATOM     12  O   UNL     1       2.692   7.039  19.388  0.00  0.00    +0.000 OA
ENDBRANCH   1   2
BRANCH   1  13
ATOM     13  C   UNL     1       6.085   6.404  17.531  0.00  0.00    +0.000 C 
BRANCH  13  14
ATOM     14  O   UNL     1       5.994   5.883  16.185  0.00  0.00    +0.000 OA
BRANCH  14  15
ATOM     15  C   UNL     1       6.996   5.016  15.840  0.00  0.00    +0.000 C 
ATOM     16  O   UNL     1       7.823   4.550  16.616  0.00  0.00    +0.000 OA
BRANCH  15  22
ATOM     17  C   UNL     1       5.272   2.535  11.788  0.00  0.00    +0.000 C 
ATOM     18  C   UNL     1       6.180   3.558  12.405  0.00  0.00    +0.000 A 
ATOM     19  C   UNL     1       7.064   4.302  11.607  0.00  0.00    +0.000 A 
ATOM     20  C   UNL     1       7.894   5.253  12.183  0.00  0.00    +0.000 A 
ATOM     21  C   UNL     1       7.868   5.471  13.563  0.00  0.00    +0.000 A 
ATOM     22  C   UNL     1       6.994   4.734  14.378  0.00  0.00    +0.000 A 
ATOM     23  C   UNL     1       6.152   3.782  13.791  0.00  0.00    +0.000 A 
ENDBRANCH  15  22
ENDBRANCH  14  15
ENDBRANCH  13  14
ENDBRANCH   1  13
TORSDOF 5
ENDMDL
MODEL 4
REMARK VINA RESULT:      -8.2      1.435      2.344
REMARK  Name = 
REMARK  6 active torsions:
REMARK  status: ('A' for Active; 'I' for Inactive)
REMARK    1  A    between atoms: C_1  and  C_2
REMARK    2  A    between atoms: C_6  and  C_7
REMARK    3  A    between atoms: C_7  and  O_9
REMARK    4  A    between atoms: O_9  and  C_10
REMARK    5  A    between atoms: C_10  and  C_11
REMARK    6  A    between atoms: C_11  and  N_12
REMARK                            x       y       z     vdW  Elec       q    Type
REMARK                         _______ _______ _______ _____ _____    ______ ____
ROOT
ATOM      1  C   UNL     1       5.769   4.368  18.887  0.00  0.00    +0.000 C 
ENDROOT
BRANCH   1   2
ATOM      2  N   UNL     1       4.810   3.288  18.736  0.00  0.00    +0.000 N 
ATOM      3  C   UNL     1       4.497   2.506  19.829  0.00  0.00    +0.000 C 
ATOM      4  O   UNL     1       5.237   1.861  20.545  0.00  0.00    +0.000 OA
ATOM      5  C   UNL     1       3.063   2.659  20.066  0.00  0.00    +0.000 A 
ATOM      6  C   UNL     1       2.337   2.384  21.206  0.00  0.00    +0.000 A 
ATOM      7  C   UNL     1       1.106   3.031  21.344  0.00  0.00    +0.000 A 
ATOM      8  C   UNL     1       0.642   3.926  20.355  0.00  0.00    +0.000 A 
ATOM      9  C   UNL     1       1.369   4.137  19.182  0.00  0.00    +0.000 A 
ATOM     10  C   UNL     1       2.569   3.464  19.061  0.00  0.00    +0.000 A 
ATOM     11  C   UNL     1       3.649   3.700  18.116  0.00  0.00    +0.000 C 
ATOM     12  O   UNL     1       3.513   4.277  17.053  0.00  0.00    +0.000 OA
ENDBRANCH   1   2
BRANCH   1  13
ATOM     13  C   UNL     1       6.997   4.398  17.984  0.00  0.00    +0.000 C 
BRANCH  13  14
ATOM     14  O   UNL     1       6.582   4.311  16.601  0.00  0.00    +0.000 OA
BRANCH  14  15
ATOM     15  C   UNL     1       7.047   5.321  15.802  0.00  0.00    +0.000 C 
ATOM     16  O   UNL     1       7.393   6.429  16.197  0.00  0.00    +0.000 OA
BRANCH  15  22
ATOM     17  C   UNL     1       5.362   2.484  11.974  0.00  0.00    +0.000 C 
ATOM     18  C   UNL     1       6.242   3.579  12.500  0.00  0.00    +0.000 A 
ATOM     19  C   UNL     1       7.096   4.285  11.637  0.00  0.00    +0.000 A 
ATOM     20  C   UNL     1       7.901   5.303  12.128  0.00  0.00    +0.000 A 
ATOM     21  C   UNL     1       7.882   5.625  13.487  0.00  0.00    +0.000 A 
ATOM     22  C   UNL     1       7.039   4.928  14.367  0.00  0.00    +0.000 A 
ATOM     23  C   UNL     1       6.221   3.908  13.864  0.00  0.00    +0.000 A 
ENDBRANCH  15  22
ENDBRANCH  14  15
ENDBRANCH  13  14
ENDBRANCH   1  13
TORSDOF 5
ENDMDL
MODEL 5
REMARK VINA RESULT:      -8.0      1.161      1.255
REMARK  Name = 
REMARK  6 active torsions:
REMARK  status: ('A' for Active; 'I' for Inactive)
REMARK    1  A    between atoms: C_1  and  C_2
REMARK    2  A    between atoms: C_6  and  C_7
REMARK    3  A    between atoms: C_7  and  O_9
REMARK    4  A    between atoms: O_9  and  C_10
REMARK    5  A    between atoms: C_10  and  C_11
REMARK    6  A    between atoms: C_11  and  N_12
REMARK                            x       y       z     vdW  Elec       q    Type
REMARK                         _______ _______ _______ _____ _____    ______ ____
ROOT
ATOM      1  C   UNL     1       4.601   7.014  17.369  0.00  0.00    +0.000 C 
ENDROOT
BRANCH   1   2
ATOM      2  N   UNL     1       3.919   6.388  18.488  0.00  0.00    +0.000 N 
ATOM      3  C   UNL     1       2.591   6.038  18.359  0.00  0.00    +0.000 C 
ATOM      4  O   UNL     1       1.642   6.737  18.064  0.00  0.00    +0.000 OA
ATOM      5  C   UNL     1       2.510   4.591  18.548  0.00  0.00    +0.000 A 
ATOM      6  C   UNL     1       1.503   3.722  18.183  0.00  0.00    +0.000 A 
ATOM      7  C   UNL     1       1.848   2.374  18.050  0.00  0.00    +0.000 A 
ATOM      8  C   UNL     1       3.171   1.938  18.278  0.00  0.00    +0.000 A 
ATOM      9  C   UNL     1       4.155   2.830  18.709  0.00  0.00    +0.000 A 
ATOM     10  C   UNL     1       3.779   4.150  18.857  0.00  0.00    +0.000 A 
ATOM     11  C   UNL     1       4.628   5.323  19.004  0.00  0.00    +0.000 C 
ATOM     12  O   UNL     1       5.782   5.287  19.390  0.00  0.00    +0.000 OA
ENDBRANCH   1   2
BRANCH   1  13
ATOM     13  C   UNL     1       5.119   6.136  16.235  0.00  0.00    +0.000 C 
BRANCH  13  14
ATOM     14  O   UNL     1       6.564   6.191  16.203  0.00  0.00    +0.000 OA
BRANCH  14  15
ATOM     15  C   UNL     1       7.171   5.008  15.876  0.00  0.00    +0.000 C 
ATOM     16  O   UNL     1       7.734   4.262  16.669  0.00  0.00    +0.000 OA
BRANCH  15  22
ATOM     17  C   UNL     1       5.357   2.516  11.870  0.00  0.00    +0.000 C 
ATOM     18  C   UNL     1       6.248   3.569  12.460  0.00  0.00    +0.000 A 
ATOM     19  C   UNL     1       7.059   4.364  11.633  0.00  0.00    +0.000 A 
ATOM     20  C   UNL     1       7.873   5.342  12.184  0.00  0.00    +0.000 A 
ATOM     21  C   UNL     1       7.907   5.537  13.567  0.00  0.00    +0.000 A 
ATOM     22  C   UNL     1       7.109   4.749  14.411  0.00  0.00    +0.000 A 
ATOM     23  C   UNL     1       6.280   3.770  13.849  0.00  0.00    +0.000 A 
ENDBRANCH  15  22
ENDBRANCH  14  15
ENDBRANCH  13  14
ENDBRANCH   1  13
TORSDOF 5
ENDMDL
MODEL 6
REMARK VINA RESULT:      -8.0      1.088      1.098
REMARK  Name = 
REMARK  6 active torsions:
REMARK  status: ('A' for Active; 'I' for Inactive)
REMARK    1  A    between atoms: C_1  and  C_2
REMARK    2  A    between atoms: C_6  and  C_7
REMARK    3  A    between atoms: C_7  and  O_9
REMARK    4  A    between atoms: O_9  and  C_10
REMARK    5  A    between atoms: C_10  and  C_11
REMARK    6  A    between atoms: C_11  and  N_12
REMARK                            x       y       z     vdW  Elec       q    Type
REMARK                         _______ _______ _______ _____ _____    ______ ____
ROOT
ATOM      1  C   UNL     1       5.203   6.192  18.135  0.00  0.00    +0.000 C 
ENDROOT
BRANCH   1   2
ATOM      2  N   UNL     1       4.531   5.617  19.288  0.00  0.00    +0.000 N 
ATOM      3  C   UNL     1       3.175   5.817  19.447  0.00  0.00    +0.000 C 
ATOM      4  O   UNL     1       2.557   6.862  19.503  0.00  0.00    +0.000 OA
ATOM      5  C   UNL     1       2.546   4.498  19.440  0.00  0.00    +0.000 A 
ATOM      6  C   UNL     1       1.225   4.166  19.218  0.00  0.00    +0.000 A 
ATOM      7  C   UNL     1       0.963   2.855  18.810  0.00  0.00    +0.000 A 
ATOM      8  C   UNL     1       2.011   1.926  18.634  0.00  0.00    +0.000 A 
ATOM      9  C   UNL     1       3.331   2.272  18.928  0.00  0.00    +0.000 A 
ATOM     10  C   UNL     1       3.558   3.565  19.354  0.00  0.00    +0.000 A 
ATOM     11  C   UNL     1       4.822   4.279  19.451  0.00  0.00    +0.000 C 
ATOM     12  O   UNL     1       5.909   3.737  19.525  0.00  0.00    +0.000 OA
ENDBRANCH   1   2
BRANCH   1  13
ATOM     13  C   UNL     1       4.710   5.833  16.738  0.00  0.00    +0.000 C 
BRANCH  13  14
ATOM     14  O   UNL     1       5.262   4.555  16.345  0.00  0.00    +0.000 OA
BRANCH  14  15
ATOM     15  C   UNL     1       6.577   4.596  15.965  0.00  0.00    +0.000 C 
ATOM     16  O   UNL     1       7.525   4.761  16.724  0.00  0.00    +0.000 OA
BRANCH  15  22
ATOM     17  C   UNL     1       5.421   2.392  11.566  0.00  0.00    +0.000 C 
ATOM     18  C   UNL     1       6.181   3.418  12.352  0.00  0.00    +0.000 A 
ATOM     19  C   UNL     1       7.062   4.303  11.709  0.00  0.00    +0.000 A 
ATOM     20  C   UNL     1       7.755   5.256  12.442  0.00  0.00    +0.000 A 
ATOM     21  C   UNL     1       7.595   5.336  13.827  0.00  0.00    +0.000 A 
ATOM     22  C   UNL     1       6.722   4.458  14.490  0.00  0.00    +0.000 A 
ATOM     23  C   UNL     1       6.018   3.504  13.744  0.00  0.00    +0.000 A 
ENDBRANCH  15  22
ENDBRANCH  14  15
ENDBRANCH  13  14
ENDBRANCH   1  13
TORSDOF 5
ENDMDL
MODEL 7
REMARK VINA RESULT:      -7.9      2.271      3.997
REMARK  Name = 
REMARK  6 active torsions:
REMARK  status: ('A' for Active; 'I' for Inactive)
REMARK    1  A    between atoms: C_1  and  C_2
REMARK    2  A    between atoms: C_6  and  C_7
REMARK    3  A    between atoms: C_7  and  O_9
REMARK    4  A    between atoms: O_9  and  C_10
REMARK    5  A    between atoms: C_10  and  C_11
REMARK    6  A    between atoms: C_11  and  N_12
REMARK                            x       y       z     vdW  Elec       q    Type
REMARK                         _______ _______ _______ _____ _____    ______ ____
ROOT
ATOM      1  C   UNL     1       3.883   5.640  17.406  0.00  0.00    +0.000 C 
ENDROOT
BRANCH   1   2
ATOM      2  N   UNL     1       2.532   5.440  17.901  0.00  0.00    +0.000 N 
ATOM      3  C   UNL     1       1.955   4.191  17.800  0.00  0.00    +0.000 C 
ATOM      4  O   UNL     1       1.784   3.505  16.811  0.00  0.00    +0.000 OA
ATOM      5  C   UNL     1       1.650   3.750  19.160  0.00  0.00    +0.000 A 
ATOM      6  C   UNL     1       1.402   2.476  19.625  0.00  0.00    +0.000 A 
ATOM      7  C   UNL     1       1.595   2.253  20.992  0.00  0.00    +0.000 A 
ATOM      8  C   UNL     1       2.029   3.292  21.842  0.00  0.00    +0.000 A 
ATOM      9  C   UNL     1       2.212   4.588  21.355  0.00  0.00    +0.000 A 
ATOM     10  C   UNL     1       1.987   4.785  20.007  0.00  0.00    +0.000 A 
ATOM     11  C   UNL     1       2.366   5.922  19.183  0.00  0.00    +0.000 C 
ATOM     12  O   UNL     1       2.608   7.032  19.619  0.00  0.00    +0.000 OA
ENDBRANCH   1   2
BRANCH   1  13
ATOM     13  C   UNL     1       4.555   4.519  16.622  0.00  0.00    +0.000 C 
BRANCH  13  14
ATOM     14  O   UNL     1       5.216   5.070  15.460  0.00  0.00    +0.000 OA
BRANCH  14  15
ATOM     15  C   UNL     1       6.582   4.969  15.480  0.00  0.00    +0.000 C 
ATOM     16  O   UNL     1       7.257   4.375  14.647  0.00  0.00    +0.000 OA
BRANCH  15  22
ATOM     17  C   UNL     1       8.088   9.096  17.980  0.00  0.00    +0.000 C 
ATOM     18  C   UNL     1       7.890   7.610  17.910  0.00  0.00    +0.000 A 
ATOM     19  C   UNL     1       8.242   6.791  18.995  0.00  0.00    +0.000 A 
ATOM     20  C   UNL     1       8.048   5.419  18.927  0.00  0.00    +0.000 A 
ATOM     21  C   UNL     1       7.514   4.837  17.774  0.00  0.00    +0.000 A 
ATOM     22  C   UNL     1       7.160   5.638  16.677  0.00  0.00    +0.000 A 
ATOM     23  C   UNL     1       7.349   7.024  16.755  0.00  0.00    +0.000 A 
ENDBRANCH  15  22
ENDBRANCH  14  15
ENDBRANCH  13  14
ENDBRANCH   1  13
TORSDOF 5
ENDMDL
MODEL 8
REMARK VINA RESULT:      -7.9      5.582      7.198
REMARK  Name = 
REMARK  6 active torsions:
REMARK  status: ('A' for Active; 'I' for Inactive)
REMARK    1  A    between atoms: C_1  and  C_2
REMARK    2  A    between atoms: C_6  and  C_7
REMARK    3  A    between atoms: C_7  and  O_9
REMARK    4  A    between atoms: O_9  and  C_10
REMARK    5  A    between atoms: C_10  and  C_11
REMARK    6  A    between atoms: C_11  and  N_12
REMARK                            x       y       z     vdW  Elec       q    Type
REMARK                         _______ _______ _______ _____ _____    ______ ____
ROOT
ATOM      1  C   UNL     1       7.574   7.548  17.815  0.00  0.00    +0.000 C 
ENDROOT
BRANCH   1   2
ATOM      2  N   UNL     1       7.607   6.096  17.820  0.00  0.00    +0.000 N 
ATOM      3  C   UNL     1       7.097   5.413  18.905  0.00  0.00    +0.000 C 
ATOM      4  O   UNL     1       7.398   5.508  20.079  0.00  0.00    +0.000 OA
ATOM      5  C   UNL     1       6.005   4.579  18.409  0.00  0.00    +0.000 A 
ATOM      6  C   UNL     1       4.972   3.991  19.110  0.00  0.00    +0.000 A 
ATOM      7  C   UNL     1       3.830   3.645  18.382  0.00  0.00    +0.000 A 
ATOM      8  C   UNL     1       3.750   3.895  16.995  0.00  0.00    +0.000 A 
ATOM      9  C   UNL     1       4.836   4.433  16.300  0.00  0.00    +0.000 A 
ATOM     10  C   UNL     1       5.960   4.740  17.040  0.00  0.00    +0.000 A 
ATOM     11  C   UNL     1       7.102   5.555  16.657  0.00  0.00    +0.000 C 
ATOM     12  O   UNL     1       7.420   5.788  15.505  0.00  0.00    +0.000 OA
ENDBRANCH   1   2
BRANCH   1  13
ATOM     13  C   UNL     1       8.620   8.314  18.616  0.00  0.00    +0.000 C 
BRANCH  13  14
ATOM     14  O   UNL     1       8.633   9.698  18.197  0.00  0.00    +0.000 OA
BRANCH  14  15
ATOM     15  C   UNL     1       9.179  10.564  19.107  0.00  0.00    +0.000 C 
ATOM     16  O   UNL     1       9.195  10.392  20.321  0.00  0.00    +0.000 OA
BRANCH  15  22
ATOM     17  C   UNL     1       8.957  15.484  17.976  0.00  0.00    +0.000 C 
ATOM     18  C   UNL     1       9.642  14.153  17.885  0.00  0.00    +0.000 A 
ATOM     19  C   UNL     1      10.841  14.014  17.167  0.00  0.00    +0.000 A 
ATOM     20  C   UNL     1      11.474  12.782  17.096  0.00  0.00    +0.000 A 
ATOM     21  C   UNL     1      10.919  11.664  17.725  0.00  0.00    +0.000 A 
ATOM     22  C   UNL     1       9.719  11.782  18.444  0.00  0.00    +0.000 A 
ATOM     23  C   UNL     1       9.089  13.030  18.521  0.00  0.00    +0.000 A 
ENDBRANCH  15  22
ENDBRANCH  14  15
ENDBRANCH  13  14
ENDBRANCH   1  13
TORSDOF 5
ENDMDL
MODEL 9
REMARK VINA RESULT:      -7.8      3.692      7.341
REMARK  Name = 
REMARK  6 active torsions:
REMARK  status: ('A' for Active; 'I' for Inactive)
REMARK    1  A    between atoms: C_1  and  C_2
REMARK    2  A    between atoms: C_6  and  C_7
REMARK    3  A    between atoms: C_7  and  O_9
REMARK    4  A    between atoms: O_9  and  C_10
REMARK    5  A    between atoms: C_10  and  C_11
REMARK    6  A    between atoms: C_11  and  N_12
REMARK                            x       y       z     vdW  Elec       q    Type
REMARK                         _______ _______ _______ _____ _____    ______ ____
ROOT
ATOM      1  C   UNL     1       3.690   5.654  17.513  0.00  0.00    +0.000 C 
ENDROOT
BRANCH   1   2
ATOM      2  N   UNL     1       3.519   4.227  17.724  0.00  0.00    +0.000 N 
ATOM      3  C   UNL     1       4.244   3.600  18.716  0.00  0.00    +0.000 C 
ATOM      4  O   UNL     1       5.448   3.565  18.878  0.00  0.00    +0.000 OA
ATOM      5  C   UNL     1       3.279   3.033  19.656  0.00  0.00    +0.000 A 
ATOM      6  C   UNL     1       3.471   2.626  20.960  0.00  0.00    +0.000 A 
ATOM      7  C   UNL     1       2.337   2.560  21.775  0.00  0.00    +0.000 A 
ATOM      8  C   UNL     1       1.062   2.900  21.274  0.00  0.00    +0.000 A 
ATOM      9  C   UNL     1       0.889   3.247  19.932  0.00  0.00    +0.000 A 
ATOM     10  C   UNL     1       2.022   3.278  19.144  0.00  0.00    +0.000 A 
ATOM     11  C   UNL     1       2.192   3.867  17.825  0.00  0.00    +0.000 C 
ATOM     12  O   UNL     1       1.277   4.097  17.056  0.00  0.00    +0.000 OA
ENDBRANCH   1   2
BRANCH   1  13
ATOM     13  C   UNL     1       3.740   6.578  18.724  0.00  0.00    +0.000 C 
BRANCH  13  14
ATOM     14  O   UNL     1       2.496   7.307  18.828  0.00  0.00    +0.000 OA
BRANCH  14  15
ATOM     15  C   UNL     1       1.913   7.265  20.067  0.00  0.00    +0.000 C 
ATOM     16  O   UNL     1       1.958   6.311  20.835  0.00  0.00    +0.000 OA
BRANCH  15  22
ATOM     17  C   UNL     1      -0.785  10.219  23.156  0.00  0.00    +0.000 C 
ATOM     18  C   UNL     1      -0.133   9.968  21.828  0.00  0.00    +0.000 A 
ATOM     19  C   UNL     1      -0.201  10.928  20.806  0.00  0.00    +0.000 A 
ATOM     20  C   UNL     1       0.413  10.693  19.584  0.00  0.00    +0.000 A 
ATOM     21  C   UNL     1       1.091   9.493  19.353  0.00  0.00    +0.000 A 
ATOM     22  C   UNL     1       1.166   8.519  20.360  0.00  0.00    +0.000 A 
ATOM     23  C   UNL     1       0.553   8.765  21.595  0.00  0.00    +0.000 A 
ENDBRANCH  15  22
ENDBRANCH  14  15
ENDBRANCH  13  14
ENDBRANCH   1  13
TORSDOF 5
ENDMDL
