MODEL 1
REMARK VINA RESULT:      -8.3      0.000      0.000
REMARK  Name = 
REMARK  8 active torsions:
REMARK  status: ('A' for Active; 'I' for Inactive)
REMARK    1  A    between atoms: C_1  and  C_2
REMARK    2  A    between atoms: C_6  and  C_7
REMARK    3  A    between atoms: C_8  and  O_9
REMARK    4  A    between atoms: O_9  and  C_10
REMARK    5  A    between atoms: C_10  and  C_11
REMARK    6  A    between atoms: C_11  and  O_12
REMARK    7  A    between atoms: O_12  and  C_13
REMARK    8  A    between atoms: C_13  and  C_15
REMARK                            x       y       z     vdW  Elec       q    Type
REMARK                         _______ _______ _______ _____ _____    ______ ____
ROOT
ATOM      1  O   UNL     1       5.471   6.249  18.287  0.00  0.00    +0.000 OA
ENDROOT
BRANCH   1   2
ATOM      2  C   UNL     1       5.828   5.375  19.269  0.00  0.00    +0.000 C 
ATOM      3  O   UNL     1       6.911   5.380  19.838  0.00  0.00    +0.000 OA
BRANCH   2   4
ATOM      4  C   UNL     1       4.839   4.355  19.461  0.00  0.00    +0.000 A 
ATOM      5  N   UNL     1       5.159   3.041  19.225  0.00  0.00    +0.000 N 
ATOM      6  N   UNL     1       4.159   2.162  19.399  0.00  0.00    +0.000 NA
ATOM      7  C   UNL     1       3.107   2.915  19.753  0.00  0.00    +0.000 A 
ATOM      8  C   UNL     1       1.790   2.523  20.044  0.00  0.00    +0.000 A 
ATOM      9  C   UNL     1       0.930   3.595  20.362  0.00  0.00    +0.000 A 
ATOM     10  C   UNL     1       1.352   4.959  20.386  0.00  0.00    +0.000 A 
ATOM     11  C   UNL     1       2.668   5.384  20.104  0.00  0.00    +0.000 A 
ATOM     12  C   UNL     1       3.504   4.309  19.797  0.00  0.00    +0.000 A 
ATOM     13  H   UNL     1       6.061   2.688  18.920  0.00  0.00    +0.000 HD
ENDBRANCH   2   4
ENDBRANCH   1   2
BRANCH   1  14
ATOM     14  C   UNL     1       6.557   6.695  17.445  0.00  0.00    +0.000 C 
BRANCH  14  15
ATOM     15  C   UNL     1       7.110   5.470  16.718  0.00  0.00    +0.000 C 
BRANCH  15  16
ATOM     16  O   UNL     1       7.450   5.712  15.369  0.00  0.00    +0.000 OA
BRANCH  16  24
ATOM     17  C   UNL     1       4.846   3.895  15.715  0.00  0.00    +0.000 C 
ATOM     18  C   UNL     1       5.702   4.115  14.495  0.00  0.00    +0.000 A 
ATOM     19  C   UNL     1       5.277   3.405  13.348  0.00  0.00    +0.000 A 
ATOM     20  C   UNL     1       5.952   3.492  12.139  0.00  0.00    +0.000 A 
ATOM     21  C   UNL     1       7.079   4.291  12.042  0.00  0.00    +0.000 A 
ATOM     22  C   UNL     1       7.540   5.011  13.153  0.00  0.00    +0.000 A 
ATOM     23  C   UNL     1       8.778   5.855  12.995  0.00  0.00    +0.000 C 
ATOM     24  C   UNL     1       6.856   4.933  14.396  0.00  0.00    +0.000 A 
ENDBRANCH  16  24
ENDBRANCH  15  16
ENDBRANCH  14  15
ENDBRANCH   1  14
TORSDOF 6
ENDMDL
MODEL 2
REMARK VINA RESULT:      -8.3      2.942      6.592
REMARK  Name = 
REMARK  8 active torsions:
REMARK  status: ('A' for Active; 'I' for Inactive)
REMARK    1  A    between atoms: C_1  and  C_2
REMARK    2  A    between atoms: C_6  and  C_7
REMARK    3  A    between atoms: C_8  and  O_9
REMARK    4  A    between atoms: O_9  and  C_10
REMARK    5  A    between atoms: C_10  and  C_11
REMARK    6  A    between atoms: C_11  and  O_12
REMARK    7  A    between atoms: O_12  and  C_13
REMARK    8  A    between atoms: C_13  and  C_15
REMARK                            x       y       z     vdW  Elec       q    Type
REMARK                         _______ _______ _______ _____ _____    ______ ____
ROOT
ATOM      1  O   UNL     1       2.538   3.198  19.740  0.00  0.00    +0.000 OA
ENDROOT
BRANCH   1   2
ATOM      2  C   UNL     1       3.379   2.612  18.842  0.00  0.00    +0.000 C 
ATOM      3  O   UNL     1       3.230   1.484  18.391  0.00  0.00    +0.000 OA
BRANCH   2   4
ATOM      4  C   UNL     1       4.540   3.415  18.594  0.00  0.00    +0.000 A 
ATOM      5  N   UNL     1       5.315   3.837  19.646  0.00  0.00    +0.000 N 
ATOM      6  N   UNL     1       6.362   4.612  19.319  0.00  0.00    +0.000 NA
ATOM      7  C   UNL     1       6.284   4.737  17.986  0.00  0.00    +0.000 A 
ATOM      8  C   UNL     1       7.114   5.454  17.109  0.00  0.00    +0.000 A 
ATOM      9  C   UNL     1       6.720   5.381  15.757  0.00  0.00    +0.000 A 
ATOM     10  C   UNL     1       5.579   4.648  15.311  0.00  0.00    +0.000 A 
ATOM     11  C   UNL     1       4.729   3.913  16.165  0.00  0.00    +0.000 A 
ATOM     12  C   UNL     1       5.138   3.994  17.497  0.00  0.00    +0.000 A 
ATOM     13  H   UNL     1       5.158   3.632  20.629  0.00  0.00    +0.000 HD
ENDBRANCH   2   4
ENDBRANCH   1   2
BRANCH   1  14
ATOM     14  C   UNL     1       1.858   4.377  19.256  0.00  0.00    +0.000 C 
BRANCH  14  15
ATOM     15  C   UNL     1       1.882   5.416  20.376  0.00  0.00    +0.000 C 
BRANCH  15  16
ATOM     16  O   UNL     1       2.708   6.530  20.105  0.00  0.00    +0.000 OA
BRANCH  16  24
ATOM     17  C   UNL     1       0.755   8.391  21.815  0.00  0.00    +0.000 C 
ATOM     18  C   UNL     1       1.241   8.562  20.400  0.00  0.00    +0.000 A 
ATOM     19  C   UNL     1       0.750   9.718  19.750  0.00  0.00    +0.000 A 
ATOM     20  C   UNL     1       1.096  10.029  18.443  0.00  0.00    +0.000 A 
ATOM     21  C   UNL     1       1.944   9.187  17.743  0.00  0.00    +0.000 A 
ATOM     22  C   UNL     1       2.453   8.027  18.344  0.00  0.00    +0.000 A 
ATOM     23  C   UNL     1       3.361   7.141  17.532  0.00  0.00    +0.000 C 
ATOM     24  C   UNL     1       2.109   7.700  19.683  0.00  0.00    +0.000 A 
ENDBRANCH  16  24
ENDBRANCH  15  16
ENDBRANCH  14  15
ENDBRANCH   1  14
TORSDOF 6
ENDMDL
MODEL 3
REMARK VINA RESULT:      -8.1      2.929      6.713
REMARK  Name = 
REMARK  8 active torsions:
REMARK  status: ('A' for Active; 'I' for Inactive)
REMARK    1  A    between atoms: C_1  and  C_2
REMARK    2  A    between atoms: C_6  and  C_7
REMARK    3  A    between atoms: C_8  and  O_9
REMARK    4  A    between atoms: O_9  and  C_10
REMARK    5  A    between atoms: C_10  and  C_11
REMARK    6  A    between atoms: C_11  and  O_12
REMARK    7  A    between atoms: O_12  and  C_13
REMARK    8  A    between atoms: C_13  and  C_15
REMARK                            x       y       z     vdW  Elec       q    Type
REMARK                         _______ _______ _______ _____ _____    ______ ____
ROOT
ATOM      1  O   UNL     1       2.861   3.264  19.835  0.00  0.00    +0.000 OA
ENDROOT
BRANCH   1   2
ATOM      2  C   UNL     1       4.165   2.905  19.667  0.00  0.00    +0.000 C 
ATOM      3  O   UNL     1       4.795   2.207  20.450  0.00  0.00    +0.000 OA
BRANCH   2   4
ATOM      4  C   UNL     1       4.757   3.560  18.538  0.00  0.00    +0.000 A 
ATOM      5  N   UNL     1       4.427   3.159  17.267  0.00  0.00    +0.000 N 
ATOM      6  N   UNL     1       5.058   3.807  16.274  0.00  0.00    +0.000 NA
ATOM      7  C   UNL     1       5.866   4.676  16.900  0.00  0.00    +0.000 A 
ATOM      8  C   UNL     1       6.771   5.601  16.355  0.00  0.00    +0.000 A 
ATOM      9  C   UNL     1       7.479   6.347  17.320  0.00  0.00    +0.000 A 
ATOM     10  C   UNL     1       7.301   6.182  18.726  0.00  0.00    +0.000 A 
ATOM     11  C   UNL     1       6.396   5.266  19.305  0.00  0.00    +0.000 A 
ATOM     12  C   UNL     1       5.701   4.541  18.334  0.00  0.00    +0.000 A 
ATOM     13  H   UNL     1       3.776   2.419  17.019  0.00  0.00    +0.000 HD
ENDBRANCH   2   4
ENDBRANCH   1   2
BRANCH   1  14
ATOM     14  C   UNL     1       2.625   4.232  20.880  0.00  0.00    +0.000 C 
BRANCH  14  15
ATOM     15  C   UNL     1       1.854   5.398  20.264  0.00  0.00    +0.000 C 
BRANCH  15  16
ATOM     16  O   UNL     1       2.446   6.660  20.493  0.00  0.00    +0.000 OA
BRANCH  16  24
ATOM     17  C   UNL     1       3.394   7.150  17.482  0.00  0.00    +0.000 C 
ATOM     18  C   UNL     1       2.466   7.973  18.338  0.00  0.00    +0.000 A 
ATOM     19  C   UNL     1       1.952   9.125  17.700  0.00  0.00    +0.000 A 
ATOM     20  C   UNL     1       1.084   9.995  18.343  0.00  0.00    +0.000 A 
ATOM     21  C   UNL     1       0.706   9.740  19.651  0.00  0.00    +0.000 A 
ATOM     22  C   UNL     1       1.193   8.612  20.326  0.00  0.00    +0.000 A 
ATOM     23  C   UNL     1       0.759   8.389  21.752  0.00  0.00    +0.000 C 
ATOM     24  C   UNL     1       2.079   7.711  19.677  0.00  0.00    +0.000 A 
ENDBRANCH  16  24
ENDBRANCH  15  16
ENDBRANCH  14  15
ENDBRANCH   1  14
TORSDOF 6
ENDMDL
MODEL 4
REMARK VINA RESULT:      -8.0      1.076      1.095
REMARK  Name = 
REMARK  8 active torsions:
REMARK  status: ('A' for Active; 'I' for Inactive)
REMARK    1  A    between atoms: C_1  and  C_2
REMARK    2  A    between atoms: C_6  and  C_7
REMARK    3  A    between atoms: C_8  and  O_9
REMARK    4  A    between atoms: O_9  and  C_10
REMARK    5  A    between atoms: C_10  and  C_11
REMARK    6  A    between atoms: C_11  and  O_12
REMARK    7  A    between atoms: O_12  and  C_13
REMARK    8  A    between atoms: C_13  and  C_15
REMARK                            x       y       z     vdW  Elec       q    Type
REMARK                         _______ _______ _______ _____ _____    ______ ____
ROOT
ATOM      1  O   UNL     1       6.789   5.000  17.864  0.00  0.00    +0.000 OA
ENDROOT
BRANCH   1   2
ATOM      2  C   UNL     1       6.272   4.887  19.120  0.00  0.00    +0.000 C 
ATOM      3  O   UNL     1       6.795   5.345  20.126  0.00  0.00    +0.000 OA
BRANCH   2   4
ATOM      4  C   UNL     1       5.113   4.044  19.145  0.00  0.00    +0.000 A 
ATOM      5  N   UNL     1       5.212   2.763  19.630  0.00  0.00    +0.000 N 
ATOM      6  N   UNL     1       4.082   2.038  19.583  0.00  0.00    +0.000 NA
ATOM      7  C   UNL     1       3.180   2.858  19.025  0.00  0.00    +0.000 A 
ATOM      8  C   UNL     1       1.830   2.619  18.718  0.00  0.00    +0.000 A 
ATOM      9  C   UNL     1       1.178   3.712  18.111  0.00  0.00    +0.000 A 
ATOM     10  C   UNL     1       1.824   4.953  17.827  0.00  0.00    +0.000 A 
ATOM     11  C   UNL     1       3.175   5.226  18.128  0.00  0.00    +0.000 A 
ATOM     12  C   UNL     1       3.802   4.134  18.733  0.00  0.00    +0.000 A 
ATOM     13  H   UNL     1       6.051   2.322  19.995  0.00  0.00    +0.000 HD
ENDBRANCH   2   4
ENDBRANCH   1   2
BRANCH   1  14
ATOM     14  C   UNL     1       7.122   6.347  17.462  0.00  0.00    +0.000 C 
BRANCH  14  15
ATOM     15  C   UNL     1       6.900   6.447  15.955  0.00  0.00    +0.000 C 
BRANCH  15  16
ATOM     16  O   UNL     1       7.701   5.562  15.199  0.00  0.00    +0.000 OA
BRANCH  16  24
ATOM     17  C   UNL     1       5.225   3.563  15.484  0.00  0.00    +0.000 C 
ATOM     18  C   UNL     1       6.003   3.951  14.253  0.00  0.00    +0.000 A 
ATOM     19  C   UNL     1       5.560   3.330  13.063  0.00  0.00    +0.000 A 
ATOM     20  C   UNL     1       6.165   3.574  11.838  0.00  0.00    +0.000 A 
ATOM     21  C   UNL     1       7.238   4.446  11.769  0.00  0.00    +0.000 A 
ATOM     22  C   UNL     1       7.715   5.084  12.923  0.00  0.00    +0.000 A 
ATOM     23  C   UNL     1       8.893   6.014  12.792  0.00  0.00    +0.000 C 
ATOM     24  C   UNL     1       7.102   4.845  14.183  0.00  0.00    +0.000 A 
ENDBRANCH  16  24
ENDBRANCH  15  16
ENDBRANCH  14  15
ENDBRANCH   1  14
TORSDOF 6
ENDMDL
MODEL 5
REMARK VINA RESULT:      -7.9      2.871      6.838
REMARK  Name = 
REMARK  8 active torsions:
REMARK  status: ('A' for Active; 'I' for Inactive)
REMARK    1  A    between atoms: C_1  and  C_2
REMARK    2  A    between atoms: C_6  and  C_7
REMARK    3  A    between atoms: C_8  and  O_9
REMARK    4  A    between atoms: O_9  and  C_10
REMARK    5  A    between atoms: C_10  and  C_11
REMARK    6  A    between atoms: C_11  and  O_12
REMARK    7  A    between atoms: O_12  and  C_13
REMARK    8  A    between atoms: C_13  and  C_15
REMARK                            x       y       z     vdW  Elec       q    Type
REMARK                         _______ _______ _______ _____ _____    ______ ____
ROOT
ATOM      1  O   UNL     1       3.339   4.148  20.112  0.00  0.00    +0.000 OA
ENDROOT
BRANCH   1   2
ATOM      2  C   UNL     1       4.042   3.254  19.362  0.00  0.00    +0.000 C 
ATOM      3  O   UNL     1       3.849   2.046  19.366  0.00  0.00    +0.000 OA
BRANCH   2   4
ATOM      4  C   UNL     1       5.134   3.876  18.672  0.00  0.00    +0.000 A 
ATOM      5  N   UNL     1       6.167   4.429  19.389  0.00  0.00    +0.000 N 
ATOM      6  N   UNL     1       7.126   5.019  18.657  0.00  0.00    +0.000 NA
ATOM      7  C   UNL     1       6.718   4.876  17.388  0.00  0.00    +0.000 A 
ATOM      8  C   UNL     1       7.327   5.317  16.202  0.00  0.00    +0.000 A 
ATOM      9  C   UNL     1       6.599   5.007  15.034  0.00  0.00    +0.000 A 
ATOM     10  C   UNL     1       5.354   4.309  15.047  0.00  0.00    +0.000 A 
ATOM     11  C   UNL     1       4.720   3.848  16.220  0.00  0.00    +0.000 A 
ATOM     12  C   UNL     1       5.457   4.160  17.364  0.00  0.00    +0.000 A 
ATOM     13  H   UNL     1       6.256   4.445  20.400  0.00  0.00    +0.000 HD
ENDBRANCH   2   4
ENDBRANCH   1   2
BRANCH   1  14
ATOM     14  C   UNL     1       1.962   4.326  19.714  0.00  0.00    +0.000 C 
BRANCH  14  15
ATOM     15  C   UNL     1       1.387   5.473  20.543  0.00  0.00    +0.000 C 
BRANCH  15  16
ATOM     16  O   UNL     1       2.232   6.602  20.622  0.00  0.00    +0.000 OA
BRANCH  16  24
ATOM     17  C   UNL     1       3.342   6.945  17.646  0.00  0.00    +0.000 C 
ATOM     18  C   UNL     1       2.451   7.860  18.445  0.00  0.00    +0.000 A 
ATOM     19  C   UNL     1       2.061   9.036  17.764  0.00  0.00    +0.000 A 
ATOM     20  C   UNL     1       1.241   9.988  18.352  0.00  0.00    +0.000 A 
ATOM     21  C   UNL     1       0.790   9.795  19.647  0.00  0.00    +0.000 A 
ATOM     22  C   UNL     1       1.153   8.646  20.364  0.00  0.00    +0.000 A 
ATOM     23  C   UNL     1       0.643   8.491  21.773  0.00  0.00    +0.000 C 
ATOM     24  C   UNL     1       1.988   7.661  19.771  0.00  0.00    +0.000 A 
ENDBRANCH  16  24
ENDBRANCH  15  16
ENDBRANCH  14  15
ENDBRANCH   1  14
TORSDOF 6
ENDMDL
MODEL 6
REMARK VINA RESULT:      -7.9      0.967      2.059
REMARK  Name = 
REMARK  8 active torsions:
REMARK  status: ('A' for Active; 'I' for Inactive)
REMARK    1  A    between atoms: C_1  and  C_2
REMARK    2  A    between atoms: C_6  and  C_7
REMARK    3  A    between atoms: C_8  and  O_9
REMARK    4  A    between atoms: O_9  and  C_10
REMARK    5  A    between atoms: C_10  and  C_11
REMARK    6  A    between atoms: C_11  and  O_12
REMARK    7  A    between atoms: O_12  and  C_13
REMARK    8  A    between atoms: C_13  and  C_15
REMARK                            x       y       z     vdW  Elec       q    Type
REMARK                         _______ _______ _______ _____ _____    ______ ____
ROOT
ATOM      1  O   UNL     1       5.845   6.285  18.387  0.00  0.00    +0.000 OA
ENDROOT
BRANCH   1   2
ATOM      2  C   UNL     1       6.013   5.296  19.309  0.00  0.00    +0.000 C 
ATOM      3  O   UNL     1       6.982   5.201  20.051  0.00  0.00    +0.000 OA
BRANCH   2   4
ATOM      4  C   UNL     1       4.991   4.297  19.213  0.00  0.00    +0.000 A 
ATOM      5  N   UNL     1       5.280   2.992  19.527  0.00  0.00    +0.000 N 
ATOM      6  N   UNL     1       4.268   2.122  19.374  0.00  0.00    +0.000 NA
ATOM      7  C   UNL     1       3.251   2.868  18.919  0.00  0.00    +0.000 A 
ATOM      8  C   UNL     1       1.948   2.476  18.570  0.00  0.00    +0.000 A 
ATOM      9  C   UNL     1       1.137   3.532  18.103  0.00  0.00    +0.000 A 
ATOM     10  C   UNL     1       1.593   4.881  17.991  0.00  0.00    +0.000 A 
ATOM     11  C   UNL     1       2.892   5.306  18.339  0.00  0.00    +0.000 A 
ATOM     12  C   UNL     1       3.677   4.248  18.802  0.00  0.00    +0.000 A 
ATOM     13  H   UNL     1       6.178   2.634  19.840  0.00  0.00    +0.000 HD
ENDBRANCH   2   4
ENDBRANCH   1   2
BRANCH   1  14
ATOM     14  C   UNL     1       7.025   6.610  17.620  0.00  0.00    +0.000 C 
BRANCH  14  15
ATOM     15  C   UNL     1       6.704   6.356  16.149  0.00  0.00    +0.000 C 
BRANCH  15  16
ATOM     16  O   UNL     1       7.588   5.454  15.518  0.00  0.00    +0.000 OA
BRANCH  16  24
ATOM     17  C   UNL     1       8.884   6.089  12.668  0.00  0.00    +0.000 C 
ATOM     18  C   UNL     1       7.754   5.155  13.017  0.00  0.00    +0.000 A 
ATOM     19  C   UNL     1       7.200   4.471  11.911  0.00  0.00    +0.000 A 
ATOM     20  C   UNL     1       6.152   3.573  12.053  0.00  0.00    +0.000 A 
ATOM     21  C   UNL     1       5.622   3.335  13.311  0.00  0.00    +0.000 A 
ATOM     22  C   UNL     1       6.138   3.992  14.437  0.00  0.00    +0.000 A 
ATOM     23  C   UNL     1       5.516   3.705  15.779  0.00  0.00    +0.000 C 
ATOM     24  C   UNL     1       7.213   4.911  14.305  0.00  0.00    +0.000 A 
ENDBRANCH  16  24
ENDBRANCH  15  16
ENDBRANCH  14  15
ENDBRANCH   1  14
TORSDOF 6
ENDMDL
MODEL 7
REMARK VINA RESULT:      -7.8      4.896      7.144
REMARK  Name = 
REMARK  8 active torsions:
REMARK  status: ('A' for Active; 'I' for Inactive)
REMARK    1  A    between atoms: C_1  and  C_2
REMARK    2  A    between atoms: C_6  and  C_7
REMARK    3  A    between atoms: C_8  and  O_9
REMARK    4  A    between atoms: O_9  and  C_10
REMARK    5  A    between atoms: C_10  and  C_11
REMARK    6  A    between atoms: C_11  and  O_12
REMARK    7  A    between atoms: O_12  and  C_13
REMARK    8  A    between atoms: C_13  and  C_15
REMARK                            x       y       z     vdW  Elec       q    Type
REMARK                         _______ _______ _______ _____ _____    ______ ____
ROOT
ATOM      1  O   UNL     1       7.924   7.689  18.273  0.00  0.00    +0.000 OA
ENDROOT
BRANCH   1   2
ATOM      2  C   UNL     1       7.429   6.726  17.446  0.00  0.00    +0.000 C 
ATOM      3  O   UNL     1       7.705   6.627  16.258  0.00  0.00    +0.000 OA
BRANCH   2   4
ATOM      4  C   UNL     1       6.432   5.926  18.094  0.00  0.00    +0.000 A 
ATOM      5  N   UNL     1       6.804   4.794  18.777  0.00  0.00    +0.000 N 
ATOM      6  N   UNL     1       5.798   4.091  19.323  0.00  0.00    +0.000 NA
ATOM      7  C   UNL     1       4.692   4.767  18.981  0.00  0.00    +0.000 A 
ATOM      8  C   UNL     1       3.348   4.478  19.269  0.00  0.00    +0.000 A 
ATOM      9  C   UNL     1       2.433   5.405  18.727  0.00  0.00    +0.000 A 
ATOM     10  C   UNL     1       2.828   6.537  17.952  0.00  0.00    +0.000 A 
ATOM     11  C   UNL     1       4.169   6.857  17.651  0.00  0.00    +0.000 A 
ATOM     12  C   UNL     1       5.059   5.932  18.199  0.00  0.00    +0.000 A 
ATOM     13  H   UNL     1       7.751   4.441  18.886  0.00  0.00    +0.000 HD
ENDBRANCH   2   4
ENDBRANCH   1   2
BRANCH   1  14
ATOM     14  C   UNL     1       7.977   9.014  17.702  0.00  0.00    +0.000 C 
BRANCH  14  15
ATOM     15  C   UNL     1       8.925   9.849  18.561  0.00  0.00    +0.000 C 
BRANCH  15  16
ATOM     16  O   UNL     1       9.567  10.891  17.856  0.00  0.00    +0.000 OA
BRANCH  16  24
ATOM     17  C   UNL     1      11.857  11.673  19.942  0.00  0.00    +0.000 C 
ATOM     18  C   UNL     1      10.719  12.508  19.415  0.00  0.00    +0.000 A 
ATOM     19  C   UNL     1      10.673  13.823  19.931  0.00  0.00    +0.000 A 
ATOM     20  C   UNL     1       9.690  14.726  19.554  0.00  0.00    +0.000 A 
ATOM     21  C   UNL     1       8.716  14.337  18.649  0.00  0.00    +0.000 A 
ATOM     22  C   UNL     1       8.719  13.041  18.113  0.00  0.00    +0.000 A 
ATOM     23  C   UNL     1       7.629  12.667  17.142  0.00  0.00    +0.000 C 
ATOM     24  C   UNL     1       9.723  12.109  18.489  0.00  0.00    +0.000 A 
ENDBRANCH  16  24
ENDBRANCH  15  16
ENDBRANCH  14  15
ENDBRANCH   1  14
TORSDOF 6
ENDMDL
MODEL 8
REMARK VINA RESULT:      -7.8      2.901      6.634
REMARK  Name = 
REMARK  8 active torsions:
REMARK  status: ('A' for Active; 'I' for Inactive)
REMARK    1  A    between atoms: C_1  and  C_2
REMARK    2  A    between atoms: C_6  and  C_7
REMARK    3  A    between atoms: C_8  and  O_9
REMARK    4  A    between atoms: O_9  and  C_10
REMARK    5  A    between atoms: C_10  and  C_11
REMARK    6  A    between atoms: C_11  and  O_12
REMARK    7  A    between atoms: O_12  and  C_13
REMARK    8  A    between atoms: C_13  and  C_15
REMARK                            x       y       z     vdW  Elec       q    Type
REMARK                         _______ _______ _______ _____ _____    ______ ____
ROOT
ATOM      1  O   UNL     1       3.519   4.211  20.350  0.00  0.00    +0.000 OA
ENDROOT
BRANCH   1   2
ATOM      2  C   UNL     1       4.163   3.238  19.646  0.00  0.00    +0.000 C 
ATOM      3  O   UNL     1       4.285   2.080  20.022  0.00  0.00    +0.000 OA
BRANCH   2   4
ATOM      4  C   UNL     1       4.806   3.762  18.477  0.00  0.00    +0.000 A 
ATOM      5  N   UNL     1       4.515   3.233  17.244  0.00  0.00    +0.000 N 
ATOM      6  N   UNL     1       5.192   3.765  16.213  0.00  0.00    +0.000 NA
ATOM      7  C   UNL     1       5.990   4.685  16.774  0.00  0.00    +0.000 A 
ATOM      8  C   UNL     1       6.929   5.537  16.168  0.00  0.00    +0.000 A 
ATOM      9  C   UNL     1       7.615   6.372  17.075  0.00  0.00    +0.000 A 
ATOM     10  C   UNL     1       7.383   6.358  18.484  0.00  0.00    +0.000 A 
ATOM     11  C   UNL     1       6.444   5.519  19.121  0.00  0.00    +0.000 A 
ATOM     12  C   UNL     1       5.773   4.705  18.207  0.00  0.00    +0.000 A 
ATOM     13  H   UNL     1       3.862   2.480  17.052  0.00  0.00    +0.000 HD
ENDBRANCH   2   4
ENDBRANCH   1   2
BRANCH   1  14
ATOM     14  C   UNL     1       2.082   4.074  20.403  0.00  0.00    +0.000 C 
BRANCH  14  15
ATOM     15  C   UNL     1       1.486   5.479  20.453  0.00  0.00    +0.000 C 
BRANCH  15  16
ATOM     16  O   UNL     1       2.427   6.508  20.224  0.00  0.00    +0.000 OA
BRANCH  16  24
ATOM     17  C   UNL     1       0.659   8.600  21.866  0.00  0.00    +0.000 C 
ATOM     18  C   UNL     1       1.184   8.691  20.457  0.00  0.00    +0.000 A 
ATOM     19  C   UNL     1       0.831   9.881  19.779  0.00  0.00    +0.000 A 
ATOM     20  C   UNL     1       1.231  10.128  18.474  0.00  0.00    +0.000 A 
ATOM     21  C   UNL     1       1.993   9.186  17.803  0.00  0.00    +0.000 A 
ATOM     22  C   UNL     1       2.364   7.990  18.433  0.00  0.00    +0.000 A 
ATOM     23  C   UNL     1       3.185   6.996  17.653  0.00  0.00    +0.000 C 
ATOM     24  C   UNL     1       1.965   7.727  19.771  0.00  0.00    +0.000 A 
ENDBRANCH  16  24
ENDBRANCH  15  16
ENDBRANCH  14  15
ENDBRANCH   1  14
TORSDOF 6
ENDMDL
MODEL 9
REMARK VINA RESULT:      -7.8      2.708      6.170
REMARK  Name = 
REMARK  8 active torsions:
REMARK  status: ('A' for Active; 'I' for Inactive)
REMARK    1  A    between atoms: C_1  and  C_2
REMARK    2  A    between atoms: C_6  and  C_7
REMARK    3  A    between atoms: C_8  and  O_9
REMARK    4  A    between atoms: O_9  and  C_10
REMARK    5  A    between atoms: C_10  and  C_11
REMARK    6  A    between atoms: C_11  and  O_12
REMARK    7  A    between atoms: O_12  and  C_13
REMARK    8  A    between atoms: C_13  and  C_15
REMARK                            x       y       z     vdW  Elec       q    Type
REMARK                         _______ _______ _______ _____ _____    ______ ____
ROOT
ATOM      1  O   UNL     1       5.527   5.892  16.847  0.00  0.00    +0.000 OA
ENDROOT
BRANCH   1   2
ATOM      2  C   UNL     1       5.250   4.580  16.607  0.00  0.00    +0.000 C 
ATOM      3  O   UNL     1       5.327   4.048  15.508  0.00  0.00    +0.000 OA
BRANCH   2   4
ATOM      4  C   UNL     1       4.718   3.926  17.766  0.00  0.00    +0.000 A 
ATOM      5  N   UNL     1       5.567   3.496  18.756  0.00  0.00    +0.000 N 
ATOM      6  N   UNL     1       4.980   2.865  19.786  0.00  0.00    +0.000 NA
ATOM      7  C   UNL     1       3.676   2.852  19.474  0.00  0.00    +0.000 A 
ATOM      8  C   UNL     1       2.596   2.305  20.186  0.00  0.00    +0.000 A 
ATOM      9  C   UNL     1       1.350   2.456  19.543  0.00  0.00    +0.000 A 
ATOM     10  C   UNL     1       1.191   3.104  18.280  0.00  0.00    +0.000 A 
ATOM     11  C   UNL     1       2.255   3.668  17.544  0.00  0.00    +0.000 A 
ATOM     12  C   UNL     1       3.478   3.512  18.199  0.00  0.00    +0.000 A 
ATOM     13  H   UNL     1       6.577   3.595  18.767  0.00  0.00    +0.000 HD
ENDBRANCH   2   4
ENDBRANCH   1   2
BRANCH   1  14
ATOM     14  C   UNL     1       4.416   6.795  16.654  0.00  0.00    +0.000 C 
BRANCH  14  15
ATOM     15  C   UNL     1       3.954   7.260  18.033  0.00  0.00    +0.000 C 
BRANCH  15  16
ATOM     16  O   UNL     1       2.569   7.100  18.256  0.00  0.00    +0.000 OA
BRANCH  16  24
ATOM     17  C   UNL     1       1.862  10.169  17.718  0.00  0.00    +0.000 C 
ATOM     18  C   UNL     1       1.605   9.329  18.942  0.00  0.00    +0.000 A 
ATOM     19  C   UNL     1       0.957  10.016  19.995  0.00  0.00    +0.000 A 
ATOM     20  C   UNL     1       0.645   9.395  21.195  0.00  0.00    +0.000 A 
ATOM     21  C   UNL     1       0.976   8.063  21.381  0.00  0.00    +0.000 A 
ATOM     22  C   UNL     1       1.622   7.341  20.366  0.00  0.00    +0.000 A 
ATOM     23  C   UNL     1       1.970   5.898  20.626  0.00  0.00    +0.000 C 
ATOM     24  C   UNL     1       1.944   7.966  19.132  0.00  0.00    +0.000 A 
ENDBRANCH  16  24
ENDBRANCH  15  16
ENDBRANCH  14  15
ENDBRANCH   1  14
TORSDOF 6
ENDMDL
