MODEL 1
REMARK VINA RESULT:      -8.0      0.000      0.000
REMARK  Name = 
REMARK  7 active torsions:
REMARK  status: ('A' for Active; 'I' for Inactive)
REMARK    1  A    between atoms: N_1  and  C_2
REMARK    2  A    between atoms: C_5  and  C_6
REMARK    3  A    between atoms: C_15  and  C_16
REMARK    4  A    between atoms: N_18  and  C_19
REMARK    5  A    between atoms: C_24  and  C_25
REMARK    6  A    between atoms: C_28  and  O_29
REMARK    7  A    between atoms: C_30  and  N_31
REMARK                            x       y       z     vdW  Elec       q    Type
REMARK                         _______ _______ _______ _____ _____    ______ ____
ROOT
ATOM      1  C   UNL     1       1.577   6.378  20.605  0.00  0.00    +0.000 C 
ATOM      2  O   UNL     1       0.413   6.006  20.831  0.00  0.00    +0.000 OA
ATOM      3  N   UNL     1       1.997   7.717  20.793  0.00  0.00    +0.000 N 
ATOM      4  H   UNL     1       2.908   7.963  20.434  0.00  0.00    +0.000 HD
ENDROOT
BRANCH   1  10
ATOM      5  C   UNL     1       2.595   4.055  20.722  0.00  0.00    +0.000 A 
ATOM      6  C   UNL     1       3.441   3.095  20.201  0.00  0.00    +0.000 A 
ATOM      7  C   UNL     1       4.276   3.402  19.135  0.00  0.00    +0.000 A 
ATOM      8  C   UNL     1       4.270   4.680  18.566  0.00  0.00    +0.000 A 
ATOM      9  N   UNL     1       3.379   5.639  19.011  0.00  0.00    +0.000 NA
ATOM     10  C   UNL     1       2.541   5.320  20.059  0.00  0.00    +0.000 A 
BRANCH   8  11
ATOM     11  C   UNL     1       5.177   4.995  17.406  0.00  0.00    +0.000 A 
ATOM     12  C   UNL     1       4.948   4.510  16.110  0.00  0.00    +0.000 A 
ATOM     13  F   UNL     1       3.836   3.813  15.826  0.00  0.00    +0.000 F 
ATOM     14  C   UNL     1       5.855   4.701  15.053  0.00  0.00    +0.000 A 
ATOM     15  C   UNL     1       7.046   5.391  15.242  0.00  0.00    +0.000 A 
ATOM     16  C   UNL     1       7.289   5.940  16.492  0.00  0.00    +0.000 A 
ATOM     17  C   UNL     1       6.367   5.760  17.530  0.00  0.00    +0.000 A 
ATOM     18  F   UNL     1       6.690   6.380  18.677  0.00  0.00    +0.000 F 
ENDBRANCH   8  11
BRANCH   5  19
ATOM     19  N   UNL     1       1.702   3.622  21.730  0.00  0.00    +0.000 N 
ATOM     20  H   UNL     1       2.019   2.775  22.199  0.00  0.00    +0.000 HD
ATOM     21  H   UNL     1       1.503   4.366  22.411  0.00  0.00    +0.000 HD
ENDBRANCH   5  19
ENDBRANCH   1  10
BRANCH   3  22
ATOM     22  C   UNL     1       1.162   8.758  21.381  0.00  0.00    +0.000 A 
ATOM     23  C   UNL     1       0.958   8.774  22.780  0.00  0.00    +0.000 A 
ATOM     24  N   UNL     1       0.222   9.671  23.490  0.00  0.00    +0.000 NA
ATOM     25  C   UNL     1      -0.374  10.627  22.781  0.00  0.00    +0.000 A 
ATOM     26  C   UNL     1      -0.251  10.736  21.406  0.00  0.00    +0.000 A 
ATOM     27  C   UNL     1       0.517   9.816  20.651  0.00  0.00    +0.000 A 
BRANCH  27  28
ATOM     28  C   UNL     1       0.527  10.000  19.119  0.00  0.00    +0.000 C 
ATOM     29  C   UNL     1       1.551  11.043  18.631  0.00  0.00    +0.000 C 
ATOM     30  C   UNL     1       1.063  12.494  18.568  0.00  0.00    +0.000 C 
ATOM     31  C   UNL     1      -0.271  12.699  17.857  0.00  0.00    +0.000 C 
ATOM     32  C   UNL     1      -1.355  11.705  18.307  0.00  0.00    +0.000 C 
ATOM     33  C   UNL     1      -0.845  10.246  18.383  0.00  0.00    +0.000 C 
BRANCH  32  34
ATOM     34  N   UNL     1      -2.552  11.815  17.438  0.00  0.00    +0.000 NA
ATOM     35  H   UNL     1      -2.947  12.756  17.523  0.00  0.00    +0.000 HD
ATOM     36  H   UNL     1      -3.292  11.234  17.844  0.00  0.00    +0.000 HD
ENDBRANCH  32  34
BRANCH  31  37
ATOM     37  O   UNL     1      -0.729  14.040  18.098  0.00  0.00    +0.000 OA
ATOM     38  H   UNL     1      -1.676  14.000  18.315  0.00  0.00    +0.000 HD
ENDBRANCH  31  37
ENDBRANCH  27  28
ENDBRANCH   3  22
TORSDOF 7
ENDMDL
MODEL 2
REMARK VINA RESULT:      -7.9      0.433      1.509
REMARK  Name = 
REMARK  7 active torsions:
REMARK  status: ('A' for Active; 'I' for Inactive)
REMARK    1  A    between atoms: N_1  and  C_2
REMARK    2  A    between atoms: C_5  and  C_6
REMARK    3  A    between atoms: C_15  and  C_16
REMARK    4  A    between atoms: N_18  and  C_19
REMARK    5  A    between atoms: C_24  and  C_25
REMARK    6  A    between atoms: C_28  and  O_29
REMARK    7  A    between atoms: C_30  and  N_31
REMARK                            x       y       z     vdW  Elec       q    Type
REMARK                         _______ _______ _______ _____ _____    ______ ____
ROOT
ATOM      1  C   UNL     1       1.401   6.377  20.629  0.00  0.00    +0.000 C 
ATOM      2  O   UNL     1       0.223   6.041  20.836  0.00  0.00    +0.000 OA
ATOM      3  N   UNL     1       1.865   7.697  20.841  0.00  0.00    +0.000 N 
ATOM      4  H   UNL     1       2.787   7.917  20.497  0.00  0.00    +0.000 HD
ENDROOT
BRANCH   1  10
ATOM      5  C   UNL     1       2.147   3.951  20.535  0.00  0.00    +0.000 A 
ATOM      6  C   UNL     1       2.971   2.975  20.008  0.00  0.00    +0.000 A 
ATOM      7  C   UNL     1       4.006   3.322  19.151  0.00  0.00    +0.000 A 
ATOM      8  C   UNL     1       4.227   4.657  18.797  0.00  0.00    +0.000 A 
ATOM      9  N   UNL     1       3.372   5.648  19.243  0.00  0.00    +0.000 NA
ATOM     10  C   UNL     1       2.335   5.293  20.081  0.00  0.00    +0.000 A 
BRANCH   8  11
ATOM     11  C   UNL     1       5.349   5.016  17.861  0.00  0.00    +0.000 A 
ATOM     12  C   UNL     1       6.519   5.661  18.290  0.00  0.00    +0.000 A 
ATOM     13  F   UNL     1       6.730   5.899  19.594  0.00  0.00    +0.000 F 
ATOM     14  C   UNL     1       7.514   6.107  17.402  0.00  0.00    +0.000 A 
ATOM     15  C   UNL     1       7.386   5.929  16.030  0.00  0.00    +0.000 A 
ATOM     16  C   UNL     1       6.275   5.245  15.563  0.00  0.00    +0.000 A 
ATOM     17  C   UNL     1       5.302   4.788  16.460  0.00  0.00    +0.000 A 
ATOM     18  F   UNL     1       4.300   4.097  15.891  0.00  0.00    +0.000 F 
ENDBRANCH   8  11
BRANCH   5  19
ATOM     19  N   UNL     1       1.052   3.496  21.307  0.00  0.00    +0.000 N 
ATOM     20  H   UNL     1       0.945   4.010  22.180  0.00  0.00    +0.000 HD
ATOM     21  H   UNL     1       0.176   3.501  20.770  0.00  0.00    +0.000 HD
ENDBRANCH   5  19
ENDBRANCH   1  10
BRANCH   3  22
ATOM     22  C   UNL     1       1.058   8.759  21.432  0.00  0.00    +0.000 A 
ATOM     23  C   UNL     1       0.872   8.788  22.833  0.00  0.00    +0.000 A 
ATOM     24  N   UNL     1       0.164   9.704  23.546  0.00  0.00    +0.000 NA
ATOM     25  C   UNL     1      -0.422  10.668  22.839  0.00  0.00    +0.000 A 
ATOM     26  C   UNL     1      -0.315  10.765  21.462  0.00  0.00    +0.000 A 
ATOM     27  C   UNL     1       0.424   9.825  20.703  0.00  0.00    +0.000 A 
BRANCH  27  28
ATOM     28  C   UNL     1       0.419   9.999  19.170  0.00  0.00    +0.000 C 
ATOM     29  C   UNL     1       1.454  11.021  18.662  0.00  0.00    +0.000 C 
ATOM     30  C   UNL     1       0.991  12.479  18.595  0.00  0.00    +0.000 C 
ATOM     31  C   UNL     1      -0.349  12.702  17.899  0.00  0.00    +0.000 C 
ATOM     32  C   UNL     1      -1.444  11.731  18.370  0.00  0.00    +0.000 C 
ATOM     33  C   UNL     1      -0.958  10.263  18.449  0.00  0.00    +0.000 C 
BRANCH  32  34
ATOM     34  N   UNL     1      -2.650  11.855  17.515  0.00  0.00    +0.000 NA
ATOM     35  H   UNL     1      -3.458  12.077  18.102  0.00  0.00    +0.000 HD
ATOM     36  H   UNL     1      -2.887  10.922  17.166  0.00  0.00    +0.000 HD
ENDBRANCH  32  34
BRANCH  31  37
ATOM     37  O   UNL     1      -0.781  14.053  18.137  0.00  0.00    +0.000 OA
ATOM     38  H   UNL     1      -1.692  14.023  18.472  0.00  0.00    +0.000 HD
ENDBRANCH  31  37
ENDBRANCH  27  28
ENDBRANCH   3  22
TORSDOF 7
ENDMDL
MODEL 3
REMARK VINA RESULT:      -7.8      3.122      8.371
REMARK  Name = 
REMARK  7 active torsions:
REMARK  status: ('A' for Active; 'I' for Inactive)
REMARK    1  A    between atoms: N_1  and  C_2
REMARK    2  A    between atoms: C_5  and  C_6
REMARK    3  A    between atoms: C_15  and  C_16
REMARK    4  A    between atoms: N_18  and  C_19
REMARK    5  A    between atoms: C_24  and  C_25
REMARK    6  A    between atoms: C_28  and  O_29
REMARK    7  A    between atoms: C_30  and  N_31
REMARK                            x       y       z     vdW  Elec       q    Type
REMARK                         _______ _______ _______ _____ _____    ______ ____
ROOT
ATOM      1  C   UNL     1       2.418   7.426  18.451  0.00  0.00    +0.000 C 
ATOM      2  O   UNL     1       1.643   6.983  17.586  0.00  0.00    +0.000 OA
ATOM      3  N   UNL     1       3.774   7.027  18.534  0.00  0.00    +0.000 N 
ATOM      4  H   UNL     1       4.283   7.309  19.358  0.00  0.00    +0.000 HD
ENDROOT
BRANCH   1  10
ATOM      5  C   UNL     1       1.477   7.894  20.762  0.00  0.00    +0.000 A 
ATOM      6  C   UNL     1       0.973   8.788  21.687  0.00  0.00    +0.000 A 
ATOM      7  C   UNL     1       0.718  10.103  21.322  0.00  0.00    +0.000 A 
ATOM      8  C   UNL     1       0.976  10.548  20.021  0.00  0.00    +0.000 A 
ATOM      9  N   UNL     1       1.555   9.701  19.095  0.00  0.00    +0.000 NA
ATOM     10  C   UNL     1       1.821   8.400  19.471  0.00  0.00    +0.000 A 
BRANCH   8  11
ATOM     11  C   UNL     1       0.701  11.979  19.643  0.00  0.00    +0.000 A 
ATOM     12  C   UNL     1      -0.353  12.349  18.794  0.00  0.00    +0.000 A 
ATOM     13  F   UNL     1      -1.235  11.436  18.357  0.00  0.00    +0.000 F 
ATOM     14  C   UNL     1      -0.539  13.668  18.341  0.00  0.00    +0.000 A 
ATOM     15  C   UNL     1       0.327  14.687  18.716  0.00  0.00    +0.000 A 
ATOM     16  C   UNL     1       1.349  14.381  19.601  0.00  0.00    +0.000 A 
ATOM     17  C   UNL     1       1.510  13.068  20.061  0.00  0.00    +0.000 A 
ATOM     18  F   UNL     1       2.504  12.907  20.950  0.00  0.00    +0.000 F 
ENDBRANCH   8  11
BRANCH   5  19
ATOM     19  N   UNL     1       1.811   6.609  21.252  0.00  0.00    +0.000 N 
ATOM     20  H   UNL     1       1.359   6.396  22.139  0.00  0.00    +0.000 HD
ATOM     21  H   UNL     1       1.623   5.874  20.558  0.00  0.00    +0.000 HD
ENDBRANCH   5  19
ENDBRANCH   1  10
BRANCH   3  22
ATOM     22  C   UNL     1       4.432   6.167  17.555  0.00  0.00    +0.000 A 
ATOM     23  C   UNL     1       4.819   6.708  16.308  0.00  0.00    +0.000 A 
ATOM     24  N   UNL     1       5.446   6.057  15.292  0.00  0.00    +0.000 NA
ATOM     25  C   UNL     1       5.710   4.769  15.500  0.00  0.00    +0.000 A 
ATOM     26  C   UNL     1       5.394   4.114  16.679  0.00  0.00    +0.000 A 
ATOM     27  C   UNL     1       4.748   4.778  17.751  0.00  0.00    +0.000 A 
BRANCH  27  28
ATOM     28  C   UNL     1       4.389   3.929  18.988  0.00  0.00    +0.000 C 
ATOM     29  C   UNL     1       4.415   2.412  18.723  0.00  0.00    +0.000 C 
ATOM     30  C   UNL     1       3.113   1.790  18.210  0.00  0.00    +0.000 C 
ATOM     31  C   UNL     1       1.862   2.161  19.001  0.00  0.00    +0.000 C 
ATOM     32  C   UNL     1       1.752   3.667  19.287  0.00  0.00    +0.000 C 
ATOM     33  C   UNL     1       3.079   4.287  19.789  0.00  0.00    +0.000 C 
BRANCH  32  34
ATOM     34  N   UNL     1       0.639   3.936  20.231  0.00  0.00    +0.000 NA
ATOM     35  H   UNL     1       0.196   3.051  20.491  0.00  0.00    +0.000 HD
ATOM     36  H   UNL     1      -0.108   4.407  19.712  0.00  0.00    +0.000 HD
ENDBRANCH  32  34
BRANCH  31  37
ATOM     37  O   UNL     1       0.701   1.733  18.268  0.00  0.00    +0.000 OA
ATOM     38  H   UNL     1      -0.071   2.199  18.629  0.00  0.00    +0.000 HD
ENDBRANCH  31  37
ENDBRANCH  27  28
ENDBRANCH   3  22
TORSDOF 7
ENDMDL
MODEL 4
REMARK VINA RESULT:      -7.8      3.016      8.470
REMARK  Name = 
REMARK  7 active torsions:
REMARK  status: ('A' for Active; 'I' for Inactive)
REMARK    1  A    between atoms: N_1  and  C_2
REMARK    2  A    between atoms: C_5  and  C_6
REMARK    3  A    between atoms: C_15  and  C_16
REMARK    4  A    between atoms: N_18  and  C_19
REMARK    5  A    between atoms: C_24  and  C_25
REMARK    6  A    between atoms: C_28  and  O_29
REMARK    7  A    between atoms: C_30  and  N_31
REMARK                            x       y       z     vdW  Elec       q    Type
REMARK                         _______ _______ _______ _____ _____    ______ ____
ROOT
ATOM      1  C   UNL     1       2.420   7.334  18.374  0.00  0.00    +0.000 C 
ATOM      2  O   UNL     1       1.644   6.815  17.554  0.00  0.00    +0.000 OA
ATOM      3  N   UNL     1       3.794   6.999  18.439  0.00  0.00    +0.000 N 
ATOM      4  H   UNL     1       4.310   7.345  19.233  0.00  0.00    +0.000 HD
ENDROOT
BRANCH   1  10
ATOM      5  C   UNL     1       1.481   7.872  20.670  0.00  0.00    +0.000 A 
ATOM      6  C   UNL     1       0.961   8.790  21.562  0.00  0.00    +0.000 A 
ATOM      7  C   UNL     1       0.675  10.083  21.148  0.00  0.00    +0.000 A 
ATOM      8  C   UNL     1       0.916  10.483  19.830  0.00  0.00    +0.000 A 
ATOM      9  N   UNL     1       1.510   9.613  18.933  0.00  0.00    +0.000 NA
ATOM     10  C   UNL     1       1.806   8.334  19.358  0.00  0.00    +0.000 A 
BRANCH   8  11
ATOM     11  C   UNL     1       0.607  11.891  19.397  0.00  0.00    +0.000 A 
ATOM     12  C   UNL     1       1.569  12.738  18.826  0.00  0.00    +0.000 A 
ATOM     13  F   UNL     1       2.801  12.285  18.547  0.00  0.00    +0.000 F 
ATOM     14  C   UNL     1       1.317  14.090  18.534  0.00  0.00    +0.000 A 
ATOM     15  C   UNL     1       0.081  14.667  18.802  0.00  0.00    +0.000 A 
ATOM     16  C   UNL     1      -0.919  13.854  19.311  0.00  0.00    +0.000 A 
ATOM     17  C   UNL     1      -0.661  12.505  19.578  0.00  0.00    +0.000 A 
ATOM     18  F   UNL     1      -1.723  11.811  20.023  0.00  0.00    +0.000 F 
ENDBRANCH   8  11
BRANCH   5  19
ATOM     19  N   UNL     1       1.846   6.615  21.207  0.00  0.00    +0.000 N 
ATOM     20  H   UNL     1       1.963   5.899  20.492  0.00  0.00    +0.000 HD
ATOM     21  H   UNL     1       2.683   6.680  21.801  0.00  0.00    +0.000 HD
ENDBRANCH   5  19
ENDBRANCH   1  10
BRANCH   3  22
ATOM     22  C   UNL     1       4.464   6.118  17.488  0.00  0.00    +0.000 A 
ATOM     23  C   UNL     1       4.863   6.631  16.233  0.00  0.00    +0.000 A 
ATOM     24  N   UNL     1       5.502   5.957  15.239  0.00  0.00    +0.000 NA
ATOM     25  C   UNL     1       5.767   4.675  15.480  0.00  0.00    +0.000 A 
ATOM     26  C   UNL     1       5.440   4.047  16.671  0.00  0.00    +0.000 A 
ATOM     27  C   UNL     1       4.781   4.734  17.720  0.00  0.00    +0.000 A 
BRANCH  27  28
ATOM     28  C   UNL     1       4.411   3.914  18.973  0.00  0.00    +0.000 C 
ATOM     29  C   UNL     1       4.433   2.391  18.741  0.00  0.00    +0.000 C 
ATOM     30  C   UNL     1       3.132   1.763  18.233  0.00  0.00    +0.000 C 
ATOM     31  C   UNL     1       1.877   2.156  19.007  0.00  0.00    +0.000 C 
ATOM     32  C   UNL     1       1.771   3.669  19.260  0.00  0.00    +0.000 C 
ATOM     33  C   UNL     1       3.097   4.294  19.757  0.00  0.00    +0.000 C 
BRANCH  32  34
ATOM     34  N   UNL     1       0.653   3.962  20.190  0.00  0.00    +0.000 NA
ATOM     35  H   UNL     1       0.017   3.161  20.217  0.00  0.00    +0.000 HD
ATOM     36  H   UNL     1       0.069   4.687  19.763  0.00  0.00    +0.000 HD
ENDBRANCH  32  34
BRANCH  31  37
ATOM     37  O   UNL     1       0.720   1.716  18.276  0.00  0.00    +0.000 OA
ATOM     38  H   UNL     1       0.015   2.373  18.405  0.00  0.00    +0.000 HD
ENDBRANCH  31  37
ENDBRANCH  27  28
ENDBRANCH   3  22
TORSDOF 7
ENDMDL
MODEL 5
REMARK VINA RESULT:      -7.8      2.322      3.667
REMARK  Name = 
REMARK  7 active torsions:
REMARK  status: ('A' for Active; 'I' for Inactive)
REMARK    1  A    between atoms: N_1  and  C_2
REMARK    2  A    between atoms: C_5  and  C_6
REMARK    3  A    between atoms: C_15  and  C_16
REMARK    4  A    between atoms: N_18  and  C_19
REMARK    5  A    between atoms: C_24  and  C_25
REMARK    6  A    between atoms: C_28  and  O_29
REMARK    7  A    between atoms: C_30  and  N_31
REMARK                            x       y       z     vdW  Elec       q    Type
REMARK                         _______ _______ _______ _____ _____    ______ ____
ROOT
ATOM      1  C   UNL     1       1.849   9.336  18.437  0.00  0.00    +0.000 C 
ATOM      2  O   UNL     1       2.095   9.744  17.289  0.00  0.00    +0.000 OA
ATOM      3  N   UNL     1       1.174  10.127  19.397  0.00  0.00    +0.000 N 
ATOM      4  H   UNL     1       1.160   9.781  20.345  0.00  0.00    +0.000 HD
ENDROOT
BRANCH   1  10
ATOM      5  C   UNL     1       1.907   7.342  20.008  0.00  0.00    +0.000 A 
ATOM      6  C   UNL     1       2.345   6.065  20.300  0.00  0.00    +0.000 A 
ATOM      7  C   UNL     1       3.274   5.440  19.480  0.00  0.00    +0.000 A 
ATOM      8  C   UNL     1       3.774   6.083  18.343  0.00  0.00    +0.000 A 
ATOM      9  N   UNL     1       3.296   7.328  17.978  0.00  0.00    +0.000 NA
ATOM     10  C   UNL     1       2.360   7.936  18.790  0.00  0.00    +0.000 A 
BRANCH   8  11
ATOM     11  C   UNL     1       4.776   5.389  17.460  0.00  0.00    +0.000 A 
ATOM     12  C   UNL     1       6.107   5.816  17.342  0.00  0.00    +0.000 A 
ATOM     13  F   UNL     1       6.575   6.820  18.101  0.00  0.00    +0.000 F 
ATOM     14  C   UNL     1       7.012   5.248  16.428  0.00  0.00    +0.000 A 
ATOM     15  C   UNL     1       6.626   4.217  15.579  0.00  0.00    +0.000 A 
ATOM     16  C   UNL     1       5.337   3.721  15.701  0.00  0.00    +0.000 A 
ATOM     17  C   UNL     1       4.453   4.283  16.629  0.00  0.00    +0.000 A 
ATOM     18  F   UNL     1       3.251   3.685  16.687  0.00  0.00    +0.000 F 
ENDBRANCH   8  11
BRANCH   5  19
ATOM     19  N   UNL     1       0.878   7.855  20.833  0.00  0.00    +0.000 N 
ATOM     20  H   UNL     1       1.059   7.710  21.825  0.00  0.00    +0.000 HD
ATOM     21  H   UNL     1       0.687   8.846  20.637  0.00  0.00    +0.000 HD
ENDBRANCH   5  19
ENDBRANCH   1  10
BRANCH   3  22
ATOM     22  C   UNL     1       0.591  11.434  19.112  0.00  0.00    +0.000 A 
ATOM     23  C   UNL     1       1.395  12.591  19.230  0.00  0.00    +0.000 A 
ATOM     24  N   UNL     1       1.018  13.876  18.995  0.00  0.00    +0.000 NA
ATOM     25  C   UNL     1      -0.248  14.056  18.624  0.00  0.00    +0.000 A 
ATOM     26  C   UNL     1      -1.141  13.010  18.461  0.00  0.00    +0.000 A 
ATOM     27  C   UNL     1      -0.766  11.664  18.694  0.00  0.00    +0.000 A 
BRANCH  27  28
ATOM     28  C   UNL     1      -1.865  10.592  18.541  0.00  0.00    +0.000 C 
ATOM     29  C   UNL     1      -1.566   9.556  17.441  0.00  0.00    +0.000 C 
ATOM     30  C   UNL     1      -2.043   9.910  16.029  0.00  0.00    +0.000 C 
ATOM     31  C   UNL     1      -3.495  10.373  15.932  0.00  0.00    +0.000 C 
ATOM     32  C   UNL     1      -3.865  11.427  16.989  0.00  0.00    +0.000 C 
ATOM     33  C   UNL     1      -3.362  11.066  18.407  0.00  0.00    +0.000 C 
BRANCH  32  34
ATOM     34  N   UNL     1      -5.327  11.678  16.981  0.00  0.00    +0.000 NA
ATOM     35  H   UNL     1      -5.502  12.662  17.199  0.00  0.00    +0.000 HD
ATOM     36  H   UNL     1      -5.733  11.202  17.792  0.00  0.00    +0.000 HD
ENDBRANCH  32  34
BRANCH  31  37
ATOM     37  O   UNL     1      -3.727  10.915  14.621  0.00  0.00    +0.000 OA
ATOM     38  H   UNL     1      -4.425  11.587  14.693  0.00  0.00    +0.000 HD
ENDBRANCH  31  37
ENDBRANCH  27  28
ENDBRANCH   3  22
TORSDOF 7
ENDMDL
MODEL 6
REMARK VINA RESULT:      -7.7      2.373      3.445
REMARK  Name = 
REMARK  7 active torsions:
REMARK  status: ('A' for Active; 'I' for Inactive)
REMARK    1  A    between atoms: N_1  and  C_2
REMARK    2  A    between atoms: C_5  and  C_6
REMARK    3  A    between atoms: C_15  and  C_16
REMARK    4  A    between atoms: N_18  and  C_19
REMARK    5  A    between atoms: C_24  and  C_25
REMARK    6  A    between atoms: C_28  and  O_29
REMARK    7  A    between atoms: C_30  and  N_31
REMARK                            x       y       z     vdW  Elec       q    Type
REMARK                         _______ _______ _______ _____ _____    ______ ____
ROOT
ATOM      1  C   UNL     1       1.797   9.514  18.449  0.00  0.00    +0.000 C 
ATOM      2  O   UNL     1       2.085   9.992  17.338  0.00  0.00    +0.000 OA
ATOM      3  N   UNL     1       1.064  10.236  19.421  0.00  0.00    +0.000 N 
ATOM      4  H   UNL     1       1.016   9.835  20.346  0.00  0.00    +0.000 HD
ENDROOT
BRANCH   1  10
ATOM      5  C   UNL     1       1.909   7.476  19.959  0.00  0.00    +0.000 A 
ATOM      6  C   UNL     1       2.357   6.191  20.199  0.00  0.00    +0.000 A 
ATOM      7  C   UNL     1       3.256   5.590  19.329  0.00  0.00    +0.000 A 
ATOM      8  C   UNL     1       3.715   6.266  18.194  0.00  0.00    +0.000 A 
ATOM      9  N   UNL     1       3.226   7.521  17.882  0.00  0.00    +0.000 NA
ATOM     10  C   UNL     1       2.320   8.104  18.744  0.00  0.00    +0.000 A 
BRANCH   8  11
ATOM     11  C   UNL     1       4.686   5.598  17.256  0.00  0.00    +0.000 A 
ATOM     12  C   UNL     1       4.426   4.358  16.653  0.00  0.00    +0.000 A 
ATOM     13  F   UNL     1       3.238   3.754  16.813  0.00  0.00    +0.000 F 
ATOM     14  C   UNL     1       5.377   3.675  15.875  0.00  0.00    +0.000 A 
ATOM     15  C   UNL     1       6.646   4.201  15.663  0.00  0.00    +0.000 A 
ATOM     16  C   UNL     1       6.929   5.451  16.190  0.00  0.00    +0.000 A 
ATOM     17  C   UNL     1       5.965   6.130  16.945  0.00  0.00    +0.000 A 
ATOM     18  F   UNL     1       6.340   7.351  17.360  0.00  0.00    +0.000 F 
ENDBRANCH   8  11
BRANCH   5  19
ATOM     19  N   UNL     1       0.911   7.964  20.834  0.00  0.00    +0.000 N 
ATOM     20  H   UNL     1       0.643   8.926  20.630  0.00  0.00    +0.000 HD
ATOM     21  H   UNL     1       0.085   7.351  20.854  0.00  0.00    +0.000 HD
ENDBRANCH   5  19
ENDBRANCH   1  10
BRANCH   3  22
ATOM     22  C   UNL     1       0.469  11.547  19.185  0.00  0.00    +0.000 A 
ATOM     23  C   UNL     1       1.268  12.705  19.325  0.00  0.00    +0.000 A 
ATOM     24  N   UNL     1       0.880  13.995  19.136  0.00  0.00    +0.000 NA
ATOM     25  C   UNL     1      -0.393  14.177  18.791  0.00  0.00    +0.000 A 
ATOM     26  C   UNL     1      -1.283  13.131  18.611  0.00  0.00    +0.000 A 
ATOM     27  C   UNL     1      -0.896  11.781  18.797  0.00  0.00    +0.000 A 
BRANCH  27  28
ATOM     28  C   UNL     1      -1.990  10.707  18.630  0.00  0.00    +0.000 C 
ATOM     29  C   UNL     1      -1.657   9.649  17.560  0.00  0.00    +0.000 C 
ATOM     30  C   UNL     1      -2.088   9.975  16.127  0.00  0.00    +0.000 C 
ATOM     31  C   UNL     1      -3.535  10.437  15.974  0.00  0.00    +0.000 C 
ATOM     32  C   UNL     1      -3.937  11.512  16.996  0.00  0.00    +0.000 C 
ATOM     33  C   UNL     1      -3.482  11.179  18.437  0.00  0.00    +0.000 C 
BRANCH  32  34
ATOM     34  N   UNL     1      -5.398  11.764  16.936  0.00  0.00    +0.000 NA
ATOM     35  H   UNL     1      -5.891  11.009  17.420  0.00  0.00    +0.000 HD
ATOM     36  H   UNL     1      -5.701  11.633  15.966  0.00  0.00    +0.000 HD
ENDBRANCH  32  34
BRANCH  31  37
ATOM     37  O   UNL     1      -3.723  10.953  14.645  0.00  0.00    +0.000 OA
ATOM     38  H   UNL     1      -4.652  11.222  14.556  0.00  0.00    +0.000 HD
ENDBRANCH  31  37
ENDBRANCH  27  28
ENDBRANCH   3  22
TORSDOF 7
ENDMDL
MODEL 7
REMARK VINA RESULT:      -7.6      2.066      3.023
REMARK  Name = 
REMARK  7 active torsions:
REMARK  status: ('A' for Active; 'I' for Inactive)
REMARK    1  A    between atoms: N_1  and  C_2
REMARK    2  A    between atoms: C_5  and  C_6
REMARK    3  A    between atoms: C_15  and  C_16
REMARK    4  A    between atoms: N_18  and  C_19
REMARK    5  A    between atoms: C_24  and  C_25
REMARK    6  A    between atoms: C_28  and  O_29
REMARK    7  A    between atoms: C_30  and  N_31
REMARK                            x       y       z     vdW  Elec       q    Type
REMARK                         _______ _______ _______ _____ _____    ______ ____
ROOT
ATOM      1  C   UNL     1       1.886   8.676  19.379  0.00  0.00    +0.000 C 
ATOM      2  O   UNL     1       1.448   8.990  20.499  0.00  0.00    +0.000 OA
ATOM      3  N   UNL     1       1.842   9.555  18.271  0.00  0.00    +0.000 N 
ATOM      4  H   UNL     1       2.069   9.163  17.369  0.00  0.00    +0.000 HD
ENDROOT
BRANCH   1  10
ATOM      5  C   UNL     1       2.026   6.273  20.186  0.00  0.00    +0.000 A 
ATOM      6  C   UNL     1       2.503   4.986  20.027  0.00  0.00    +0.000 A 
ATOM      7  C   UNL     1       3.433   4.702  19.036  0.00  0.00    +0.000 A 
ATOM      8  C   UNL     1       3.893   5.706  18.177  0.00  0.00    +0.000 A 
ATOM      9  N   UNL     1       3.376   6.986  18.258  0.00  0.00    +0.000 NA
ATOM     10  C   UNL     1       2.440   7.255  19.235  0.00  0.00    +0.000 A 
BRANCH   8  11
ATOM     11  C   UNL     1       4.896   5.381  17.103  0.00  0.00    +0.000 A 
ATOM     12  C   UNL     1       4.745   4.296  16.226  0.00  0.00    +0.000 A 
ATOM     13  F   UNL     1       3.629   3.549  16.247  0.00  0.00    +0.000 F 
ATOM     14  C   UNL     1       5.736   3.917  15.304  0.00  0.00    +0.000 A 
ATOM     15  C   UNL     1       6.937   4.609  15.212  0.00  0.00    +0.000 A 
ATOM     16  C   UNL     1       7.108   5.725  16.017  0.00  0.00    +0.000 A 
ATOM     17  C   UNL     1       6.105   6.103  16.917  0.00  0.00    +0.000 A 
ATOM     18  F   UNL     1       6.367   7.227  17.605  0.00  0.00    +0.000 F 
ENDBRANCH   8  11
BRANCH   5  19
ATOM     19  N   UNL     1       1.000   6.445  21.145  0.00  0.00    +0.000 N 
ATOM     20  H   UNL     1       0.404   7.247  20.945  0.00  0.00    +0.000 HD
ATOM     21  H   UNL     1       0.439   5.592  21.263  0.00  0.00    +0.000 HD
ENDBRANCH   5  19
ENDBRANCH   1  10
BRANCH   3  22
ATOM     22  C   UNL     1       1.402  10.944  18.350  0.00  0.00    +0.000 A 
ATOM     23  C   UNL     1       2.365  11.978  18.298  0.00  0.00    +0.000 A 
ATOM     24  N   UNL     1       2.132  13.317  18.348  0.00  0.00    +0.000 NA
ATOM     25  C   UNL     1       0.858  13.683  18.469  0.00  0.00    +0.000 A 
ATOM     26  C   UNL     1      -0.187  12.775  18.522  0.00  0.00    +0.000 A 
ATOM     27  C   UNL     1       0.036  11.378  18.463  0.00  0.00    +0.000 A 
BRANCH  27  28
ATOM     28  C   UNL     1      -1.200  10.463  18.596  0.00  0.00    +0.000 C 
ATOM     29  C   UNL     1      -1.677   9.874  17.255  0.00  0.00    +0.000 C 
ATOM     30  C   UNL     1      -2.678  10.719  16.461  0.00  0.00    +0.000 C 
ATOM     31  C   UNL     1      -3.873  11.231  17.262  0.00  0.00    +0.000 C 
ATOM     32  C   UNL     1      -3.474  11.855  18.610  0.00  0.00    +0.000 C 
ATOM     33  C   UNL     1      -2.449  11.000  19.394  0.00  0.00    +0.000 C 
BRANCH  32  34
ATOM     34  N   UNL     1      -4.679  12.138  19.427  0.00  0.00    +0.000 NA
ATOM     35  H   UNL     1      -5.511  11.814  18.926  0.00  0.00    +0.000 HD
ATOM     36  H   UNL     1      -4.818  13.152  19.444  0.00  0.00    +0.000 HD
ENDBRANCH  32  34
BRANCH  31  37
ATOM     37  O   UNL     1      -4.578  12.208  16.479  0.00  0.00    +0.000 OA
ATOM     38  H   UNL     1      -4.162  12.247  15.601  0.00  0.00    +0.000 HD
ENDBRANCH  31  37
ENDBRANCH  27  28
ENDBRANCH   3  22
TORSDOF 7
ENDMDL
MODEL 8
REMARK VINA RESULT:      -7.5      3.695      9.179
REMARK  Name = 
REMARK  7 active torsions:
REMARK  status: ('A' for Active; 'I' for Inactive)
REMARK    1  A    between atoms: N_1  and  C_2
REMARK    2  A    between atoms: C_5  and  C_6
REMARK    3  A    between atoms: C_15  and  C_16
REMARK    4  A    between atoms: N_18  and  C_19
REMARK    5  A    between atoms: C_24  and  C_25
REMARK    6  A    between atoms: C_28  and  O_29
REMARK    7  A    between atoms: C_30  and  N_31
REMARK                            x       y       z     vdW  Elec       q    Type
REMARK                         _______ _______ _______ _____ _____    ______ ____
ROOT
ATOM      1  C   UNL     1       1.428   7.947  20.310  0.00  0.00    +0.000 C 
ATOM      2  O   UNL     1       1.431   7.652  21.517  0.00  0.00    +0.000 OA
ATOM      3  N   UNL     1       1.944   7.083  19.315  0.00  0.00    +0.000 N 
ATOM      4  H   UNL     1       2.048   7.467  18.388  0.00  0.00    +0.000 HD
ENDROOT
BRANCH   1  10
ATOM      5  C   UNL     1       1.464  10.015  18.838  0.00  0.00    +0.000 A 
ATOM      6  C   UNL     1       0.936  11.245  18.494  0.00  0.00    +0.000 A 
ATOM      7  C   UNL     1      -0.059  11.822  19.271  0.00  0.00    +0.000 A 
ATOM      8  C   UNL     1      -0.551  11.167  20.406  0.00  0.00    +0.000 A 
ATOM      9  N   UNL     1      -0.102   9.901  20.732  0.00  0.00    +0.000 NA
ATOM     10  C   UNL     1       0.876   9.329  19.944  0.00  0.00    +0.000 A 
BRANCH   8  11
ATOM     11  C   UNL     1      -1.636  11.802  21.235  0.00  0.00    +0.000 A 
ATOM     12  C   UNL     1      -1.660  11.730  22.635  0.00  0.00    +0.000 A 
ATOM     13  F   UNL     1      -0.646  11.166  23.310  0.00  0.00    +0.000 F 
ATOM     14  C   UNL     1      -2.732  12.215  23.405  0.00  0.00    +0.000 A 
ATOM     15  C   UNL     1      -3.842  12.800  22.807  0.00  0.00    +0.000 A 
ATOM     16  C   UNL     1      -3.836  12.946  21.428  0.00  0.00    +0.000 A 
ATOM     17  C   UNL     1      -2.753  12.478  20.676  0.00  0.00    +0.000 A 
ATOM     18  F   UNL     1      -2.842  12.722  19.358  0.00  0.00    +0.000 F 
ENDBRANCH   8  11
BRANCH   5  19
ATOM     19  N   UNL     1       2.391   9.456  17.928  0.00  0.00    +0.000 N 
ATOM     20  H   UNL     1       2.203   9.719  16.962  0.00  0.00    +0.000 HD
ATOM     21  H   UNL     1       3.362   9.675  18.186  0.00  0.00    +0.000 HD
ENDBRANCH   5  19
ENDBRANCH   1  10
BRANCH   3  22
ATOM     22  C   UNL     1       2.412   5.726  19.576  0.00  0.00    +0.000 A 
ATOM     23  C   UNL     1       1.530   4.792  20.166  0.00  0.00    +0.000 A 
ATOM     24  N   UNL     1       1.796   3.493  20.468  0.00  0.00    +0.000 NA
ATOM     25  C   UNL     1       3.025   3.067  20.183  0.00  0.00    +0.000 A 
ATOM     26  C   UNL     1       3.985   3.874  19.595  0.00  0.00    +0.000 A 
ATOM     27  C   UNL     1       3.725   5.227  19.267  0.00  0.00    +0.000 A 
BRANCH  27  28
ATOM     28  C   UNL     1       4.892   6.044  18.675  0.00  0.00    +0.000 C 
ATOM     29  C   UNL     1       4.627   6.549  17.244  0.00  0.00    +0.000 C 
ATOM     30  C   UNL     1       5.021   5.603  16.107  0.00  0.00    +0.000 C 
ATOM     31  C   UNL     1       6.430   5.023  16.204  0.00  0.00    +0.000 C 
ATOM     32  C   UNL     1       6.763   4.477  17.602  0.00  0.00    +0.000 C 
ATOM     33  C   UNL     1       6.345   5.435  18.743  0.00  0.00    +0.000 C 
BRANCH  32  34
ATOM     34  N   UNL     1       8.202   4.125  17.692  0.00  0.00    +0.000 NA
ATOM     35  H   UNL     1       8.680   4.809  18.286  0.00  0.00    +0.000 HD
ATOM     36  H   UNL     1       8.627   4.300  16.777  0.00  0.00    +0.000 HD
ENDBRANCH  32  34
BRANCH  31  37
ATOM     37  O   UNL     1       6.571   3.968  15.238  0.00  0.00    +0.000 OA
ATOM     38  H   UNL     1       5.693   3.783  14.865  0.00  0.00    +0.000 HD
ENDBRANCH  31  37
ENDBRANCH  27  28
ENDBRANCH   3  22
TORSDOF 7
ENDMDL
MODEL 9
REMARK VINA RESULT:      -7.5      3.690      9.084
REMARK  Name = 
REMARK  7 active torsions:
REMARK  status: ('A' for Active; 'I' for Inactive)
REMARK    1  A    between atoms: N_1  and  C_2
REMARK    2  A    between atoms: C_5  and  C_6
REMARK    3  A    between atoms: C_15  and  C_16
REMARK    4  A    between atoms: N_18  and  C_19
REMARK    5  A    between atoms: C_24  and  C_25
REMARK    6  A    between atoms: C_28  and  O_29
REMARK    7  A    between atoms: C_30  and  N_31
REMARK                            x       y       z     vdW  Elec       q    Type
REMARK                         _______ _______ _______ _____ _____    ______ ____
ROOT
ATOM      1  C   UNL     1       1.534   7.992  20.271  0.00  0.00    +0.000 C 
ATOM      2  O   UNL     1       1.674   7.767  21.486  0.00  0.00    +0.000 OA
ATOM      3  N   UNL     1       1.929   7.066  19.276  0.00  0.00    +0.000 N 
ATOM      4  H   UNL     1       1.928   7.394  18.322  0.00  0.00    +0.000 HD
ENDROOT
BRANCH   1  10
ATOM      5  C   UNL     1       1.525  10.045  18.778  0.00  0.00    +0.000 A 
ATOM      6  C   UNL     1       0.969  11.258  18.419  0.00  0.00    +0.000 A 
ATOM      7  C   UNL     1      -0.040  11.820  19.189  0.00  0.00    +0.000 A 
ATOM      8  C   UNL     1      -0.519  11.167  20.329  0.00  0.00    +0.000 A 
ATOM      9  N   UNL     1      -0.041   9.915  20.670  0.00  0.00    +0.000 NA
ATOM     10  C   UNL     1       0.951   9.356  19.890  0.00  0.00    +0.000 A 
BRANCH   8  11
ATOM     11  C   UNL     1      -1.619  11.785  21.150  0.00  0.00    +0.000 A 
ATOM     12  C   UNL     1      -2.736  12.408  20.574  0.00  0.00    +0.000 A 
ATOM     13  F   UNL     1      -2.922  12.390  19.245  0.00  0.00    +0.000 F 
ATOM     14  C   UNL     1      -3.703  13.092  21.332  0.00  0.00    +0.000 A 
ATOM     15  C   UNL     1      -3.597  13.190  22.715  0.00  0.00    +0.000 A 
ATOM     16  C   UNL     1      -2.541  12.540  23.334  0.00  0.00    +0.000 A 
ATOM     17  C   UNL     1      -1.598  11.844  22.569  0.00  0.00    +0.000 A 
ATOM     18  F   UNL     1      -0.651  11.216  23.286  0.00  0.00    +0.000 F 
ENDBRANCH   8  11
BRANCH   5  19
ATOM     19  N   UNL     1       2.466   9.497  17.875  0.00  0.00    +0.000 N 
ATOM     20  H   UNL     1       2.505   8.480  17.914  0.00  0.00    +0.000 HD
ATOM     21  H   UNL     1       2.306   9.820  16.912  0.00  0.00    +0.000 HD
ENDBRANCH   5  19
ENDBRANCH   1  10
BRANCH   3  22
ATOM     22  C   UNL     1       2.417   5.721  19.562  0.00  0.00    +0.000 A 
ATOM     23  C   UNL     1       1.544   4.780  20.157  0.00  0.00    +0.000 A 
ATOM     24  N   UNL     1       1.829   3.491  20.480  0.00  0.00    +0.000 NA
ATOM     25  C   UNL     1       3.068   3.082  20.213  0.00  0.00    +0.000 A 
ATOM     26  C   UNL     1       4.020   3.895  19.624  0.00  0.00    +0.000 A 
ATOM     27  C   UNL     1       3.741   5.239  19.273  0.00  0.00    +0.000 A 
BRANCH  27  28
ATOM     28  C   UNL     1       4.900   6.067  18.681  0.00  0.00    +0.000 C 
ATOM     29  C   UNL     1       4.622   6.586  17.257  0.00  0.00    +0.000 C 
ATOM     30  C   UNL     1       5.013   5.652  16.108  0.00  0.00    +0.000 C 
ATOM     31  C   UNL     1       6.425   5.078  16.189  0.00  0.00    +0.000 C 
ATOM     32  C   UNL     1       6.770   4.519  17.579  0.00  0.00    +0.000 C 
ATOM     33  C   UNL     1       6.356   5.464  18.733  0.00  0.00    +0.000 C 
BRANCH  32  34
ATOM     34  N   UNL     1       8.211   4.173  17.655  0.00  0.00    +0.000 NA
ATOM     35  H   UNL     1       8.314   3.154  17.652  0.00  0.00    +0.000 HD
ATOM     36  H   UNL     1       8.546   4.420  18.591  0.00  0.00    +0.000 HD
ENDBRANCH  32  34
BRANCH  31  37
ATOM     37  O   UNL     1       6.562   4.033  15.211  0.00  0.00    +0.000 OA
ATOM     38  H   UNL     1       7.214   4.322  14.552  0.00  0.00    +0.000 HD
ENDBRANCH  31  37
ENDBRANCH  27  28
ENDBRANCH   3  22
TORSDOF 7
ENDMDL
