MODEL 1
REMARK VINA RESULT:      -7.4      0.000      0.000
REMARK  Name = 
REMARK  8 active torsions:
REMARK  status: ('A' for Active; 'I' for Inactive)
REMARK    1  A    between atoms: C_1  and  C_2
REMARK    2  A    between atoms: C_2  and  N_3
REMARK    3  A    between atoms: C_2  and  C_15
REMARK    4  A    between atoms: N_6  and  C_7
REMARK    5  A    between atoms: C_7  and  C_8
REMARK    6  A    between atoms: C_8  and  C_9
REMARK    7  A    between atoms: C_9  and  N_10
REMARK    8  A    between atoms: N_19  and  C_20
REMARK                            x       y       z     vdW  Elec       q    Type
REMARK                         _______ _______ _______ _____ _____    ______ ____
ROOT
ATOM      1  N   UNL     1       4.757   2.818  18.422  0.00  0.00    +0.000 N 
ATOM      2  C   UNL     1       5.087   4.097  18.786  0.00  0.00    +0.000 C 
ATOM      3  O   UNL     1       4.256   4.979  18.972  0.00  0.00    +0.000 OA
ATOM      4  N   UNL     1       6.436   4.284  18.884  0.00  0.00    +0.000 N 
ATOM      5  H   UNL     1       5.441   2.088  18.565  0.00  0.00    +0.000 HD
ATOM      6  H   UNL     1       7.022   3.613  18.406  0.00  0.00    +0.000 HD
ENDROOT
BRANCH   1   8
ATOM      7  C   UNL     1       2.558   3.271  17.408  0.00  0.00    +0.000 C 
ATOM      8  C   UNL     1       3.365   2.402  18.371  0.00  0.00    +0.000 C 
BRANCH   8   9
ATOM      9  C   UNL     1       2.802   2.482  19.756  0.00  0.00    +0.000 A 
ATOM     10  N   UNL     1       3.482   2.430  20.889  0.00  0.00    +0.000 NA
ATOM     11  N   UNL     1       2.593   2.600  21.927  0.00  0.00    +0.000 NA
ATOM     12  C   UNL     1       1.395   2.744  21.407  0.00  0.00    +0.000 A 
ATOM     13  N   UNL     1       1.478   2.654  20.051  0.00  0.00    +0.000 N 
ATOM     14  C   UNL     1       0.373   2.729  19.132  0.00  0.00    +0.000 C 
ENDBRANCH   8   9
ENDBRANCH   1   8
BRANCH   4  15
ATOM     15  C   UNL     1       6.959   5.620  19.108  0.00  0.00    +0.000 C 
BRANCH  15  16
ATOM     16  C   UNL     1       7.379   6.309  17.812  0.00  0.00    +0.000 C 
BRANCH  16  17
ATOM     17  C   UNL     1       7.543   5.280  16.680  0.00  0.00    +0.000 C 
BRANCH  17  18
ATOM     18  N   UNL     1       6.979   5.724  15.394  0.00  0.00    +0.000 NA
ATOM     19  C   UNL     1       5.502   5.739  15.441  0.00  0.00    +0.000 C 
ATOM     20  C   UNL     1       5.083   4.339  15.036  0.00  0.00    +0.000 C 
ATOM     21  C   UNL     1       6.091   3.978  13.965  0.00  0.00    +0.000 C 
ATOM     22  C   UNL     1       7.313   4.841  14.264  0.00  0.00    +0.000 C 
ENDBRANCH  17  18
ENDBRANCH  16  17
ENDBRANCH  15  16
ENDBRANCH   4  15
TORSDOF 6
ENDMDL
MODEL 2
REMARK VINA RESULT:      -7.3      4.349      6.043
REMARK  Name = 
REMARK  8 active torsions:
REMARK  status: ('A' for Active; 'I' for Inactive)
REMARK    1  A    between atoms: C_1  and  C_2
REMARK    2  A    between atoms: C_2  and  N_3
REMARK    3  A    between atoms: C_2  and  C_15
REMARK    4  A    between atoms: N_6  and  C_7
REMARK    5  A    between atoms: C_7  and  C_8
REMARK    6  A    between atoms: C_8  and  C_9
REMARK    7  A    between atoms: C_9  and  N_10
REMARK    8  A    between atoms: N_19  and  C_20
REMARK                            x       y       z     vdW  Elec       q    Type
REMARK                         _______ _______ _______ _____ _____    ______ ____
ROOT
ATOM      1  N   UNL     1       6.046   6.286  16.790  0.00  0.00    +0.000 N 
ATOM      2  C   UNL     1       7.077   6.617  17.629  0.00  0.00    +0.000 C 
ATOM      3  O   UNL     1       7.456   5.897  18.546  0.00  0.00    +0.000 OA
ATOM      4  N   UNL     1       7.607   7.845  17.351  0.00  0.00    +0.000 N 
ATOM      5  H   UNL     1       5.976   6.768  15.905  0.00  0.00    +0.000 HD
ATOM      6  H   UNL     1       7.030   8.475  16.812  0.00  0.00    +0.000 HD
ENDROOT
BRANCH   1   8
ATOM      7  C   UNL     1       5.241   4.364  15.476  0.00  0.00    +0.000 C 
ATOM      8  C   UNL     1       5.428   4.973  16.865  0.00  0.00    +0.000 C 
BRANCH   8   9
ATOM      9  C   UNL     1       4.112   5.114  17.564  0.00  0.00    +0.000 A 
ATOM     10  N   UNL     1       3.368   6.205  17.634  0.00  0.00    +0.000 NA
ATOM     11  N   UNL     1       2.213   5.890  18.314  0.00  0.00    +0.000 NA
ATOM     12  C   UNL     1       2.280   4.621  18.649  0.00  0.00    +0.000 A 
ATOM     13  N   UNL     1       3.463   4.103  18.218  0.00  0.00    +0.000 N 
ATOM     14  C   UNL     1       3.917   2.753  18.424  0.00  0.00    +0.000 C 
ENDBRANCH   8   9
ENDBRANCH   1   8
BRANCH   4  15
ATOM     15  C   UNL     1       8.603   8.413  18.242  0.00  0.00    +0.000 C 
BRANCH  15  16
ATOM     16  C   UNL     1       8.559   9.939  18.272  0.00  0.00    +0.000 C 
BRANCH  16  17
ATOM     17  C   UNL     1       9.301  10.477  19.507  0.00  0.00    +0.000 C 
BRANCH  17  18
ATOM     18  N   UNL     1       9.802  11.852  19.340  0.00  0.00    +0.000 NA
ATOM     19  C   UNL     1      10.573  11.985  18.086  0.00  0.00    +0.000 C 
ATOM     20  C   UNL     1      11.995  11.610  18.459  0.00  0.00    +0.000 C 
ATOM     21  C   UNL     1      12.148  12.196  19.847  0.00  0.00    +0.000 C 
ATOM     22  C   UNL     1      10.729  12.278  20.402  0.00  0.00    +0.000 C 
ENDBRANCH  17  18
ENDBRANCH  16  17
ENDBRANCH  15  16
ENDBRANCH   4  15
TORSDOF 6
ENDMDL
MODEL 3
REMARK VINA RESULT:      -7.3      2.076      3.088
REMARK  Name = 
REMARK  8 active torsions:
REMARK  status: ('A' for Active; 'I' for Inactive)
REMARK    1  A    between atoms: C_1  and  C_2
REMARK    2  A    between atoms: C_2  and  N_3
REMARK    3  A    between atoms: C_2  and  C_15
REMARK    4  A    between atoms: N_6  and  C_7
REMARK    5  A    between atoms: C_7  and  C_8
REMARK    6  A    between atoms: C_8  and  C_9
REMARK    7  A    between atoms: C_9  and  N_10
REMARK    8  A    between atoms: N_19  and  C_20
REMARK                            x       y       z     vdW  Elec       q    Type
REMARK                         _______ _______ _______ _____ _____    ______ ____
ROOT
ATOM      1  N   UNL     1       4.595   3.155  17.872  0.00  0.00    +0.000 N 
ATOM      2  C   UNL     1       5.633   3.993  17.564  0.00  0.00    +0.000 C 
ATOM      3  O   UNL     1       6.080   4.828  18.343  0.00  0.00    +0.000 OA
ATOM      4  N   UNL     1       6.089   3.817  16.288  0.00  0.00    +0.000 N 
ATOM      5  H   UNL     1       4.470   2.322  17.315  0.00  0.00    +0.000 HD
ATOM      6  H   UNL     1       5.462   3.355  15.643  0.00  0.00    +0.000 HD
ENDROOT
BRANCH   1   8
ATOM      7  C   UNL     1       4.665   1.995  20.044  0.00  0.00    +0.000 C 
ATOM      8  C   UNL     1       4.049   3.123  19.219  0.00  0.00    +0.000 C 
BRANCH   8   9
ATOM      9  C   UNL     1       2.565   2.958  19.119  0.00  0.00    +0.000 A 
ATOM     10  N   UNL     1       1.910   2.227  18.233  0.00  0.00    +0.000 NA
ATOM     11  N   UNL     1       0.567   2.301  18.530  0.00  0.00    +0.000 NA
ATOM     12  C   UNL     1       0.432   3.077  19.581  0.00  0.00    +0.000 A 
ATOM     13  N   UNL     1       1.657   3.528  19.969  0.00  0.00    +0.000 N 
ATOM     14  C   UNL     1       1.918   4.427  21.062  0.00  0.00    +0.000 C 
ENDBRANCH   8   9
ENDBRANCH   1   8
BRANCH   4  15
ATOM     15  C   UNL     1       7.082   4.730  15.750  0.00  0.00    +0.000 C 
BRANCH  15  16
ATOM     16  C   UNL     1       7.005   4.849  14.230  0.00  0.00    +0.000 C 
BRANCH  16  17
ATOM     17  C   UNL     1       6.058   3.785  13.651  0.00  0.00    +0.000 C 
BRANCH  17  18
ATOM     18  N   UNL     1       5.995   3.790  12.179  0.00  0.00    +0.000 NA
ATOM     19  C   UNL     1       5.060   2.758  11.686  0.00  0.00    +0.000 C 
ATOM     20  C   UNL     1       5.900   1.501  11.554  0.00  0.00    +0.000 C 
ATOM     21  C   UNL     1       7.229   2.031  11.058  0.00  0.00    +0.000 C 
ATOM     22  C   UNL     1       7.280   3.481  11.530  0.00  0.00    +0.000 C 
ENDBRANCH  17  18
ENDBRANCH  16  17
ENDBRANCH  15  16
ENDBRANCH   4  15
TORSDOF 6
ENDMDL
MODEL 4
REMARK VINA RESULT:      -7.2      4.821      6.524
REMARK  Name = 
REMARK  8 active torsions:
REMARK  status: ('A' for Active; 'I' for Inactive)
REMARK    1  A    between atoms: C_1  and  C_2
REMARK    2  A    between atoms: C_2  and  N_3
REMARK    3  A    between atoms: C_2  and  C_15
REMARK    4  A    between atoms: N_6  and  C_7
REMARK    5  A    between atoms: C_7  and  C_8
REMARK    6  A    between atoms: C_8  and  C_9
REMARK    7  A    between atoms: C_9  and  N_10
REMARK    8  A    between atoms: N_19  and  C_20
REMARK                            x       y       z     vdW  Elec       q    Type
REMARK                         _______ _______ _______ _____ _____    ______ ____
ROOT
ATOM      1  N   UNL     1       6.387   7.043  16.766  0.00  0.00    +0.000 N 
ATOM      2  C   UNL     1       7.342   7.340  17.702  0.00  0.00    +0.000 C 
ATOM      3  O   UNL     1       7.663   6.573  18.602  0.00  0.00    +0.000 OA
ATOM      4  N   UNL     1       7.867   8.591  17.538  0.00  0.00    +0.000 N 
ATOM      5  H   UNL     1       6.376   7.575  15.907  0.00  0.00    +0.000 HD
ATOM      6  H   UNL     1       7.321   9.242  16.991  0.00  0.00    +0.000 HD
ENDROOT
BRANCH   1   8
ATOM      7  C   UNL     1       5.529   5.278  15.276  0.00  0.00    +0.000 C 
ATOM      8  C   UNL     1       5.792   5.718  16.716  0.00  0.00    +0.000 C 
BRANCH   8   9
ATOM      9  C   UNL     1       4.519   5.746  17.503  0.00  0.00    +0.000 A 
ATOM     10  N   UNL     1       3.553   6.644  17.409  0.00  0.00    +0.000 NA
ATOM     11  N   UNL     1       2.539   6.268  18.261  0.00  0.00    +0.000 NA
ATOM     12  C   UNL     1       2.909   5.158  18.859  0.00  0.00    +0.000 A 
ATOM     13  N   UNL     1       4.153   4.809  18.429  0.00  0.00    +0.000 N 
ATOM     14  C   UNL     1       4.911   3.670  18.877  0.00  0.00    +0.000 C 
ENDBRANCH   8   9
ENDBRANCH   1   8
BRANCH   4  15
ATOM     15  C   UNL     1       8.778   9.121  18.536  0.00  0.00    +0.000 C 
BRANCH  15  16
ATOM     16  C   UNL     1       9.073  10.604  18.330  0.00  0.00    +0.000 C 
BRANCH  16  17
ATOM     17  C   UNL     1       9.731  11.204  19.584  0.00  0.00    +0.000 C 
BRANCH  17  18
ATOM     18  N   UNL     1      11.135  11.604  19.378  0.00  0.00    +0.000 NA
ATOM     19  C   UNL     1      11.404  12.922  19.990  0.00  0.00    +0.000 C 
ATOM     20  C   UNL     1      11.054  13.932  18.913  0.00  0.00    +0.000 C 
ATOM     21  C   UNL     1      11.525  13.253  17.644  0.00  0.00    +0.000 C 
ATOM     22  C   UNL     1      11.505  11.760  17.961  0.00  0.00    +0.000 C 
ENDBRANCH  17  18
ENDBRANCH  16  17
ENDBRANCH  15  16
ENDBRANCH   4  15
TORSDOF 6
ENDMDL
MODEL 5
REMARK VINA RESULT:      -7.2      5.467      7.467
REMARK  Name = 
REMARK  8 active torsions:
REMARK  status: ('A' for Active; 'I' for Inactive)
REMARK    1  A    between atoms: C_1  and  C_2
REMARK    2  A    between atoms: C_2  and  N_3
REMARK    3  A    between atoms: C_2  and  C_15
REMARK    4  A    between atoms: N_6  and  C_7
REMARK    5  A    between atoms: C_7  and  C_8
REMARK    6  A    between atoms: C_8  and  C_9
REMARK    7  A    between atoms: C_9  and  N_10
REMARK    8  A    between atoms: N_19  and  C_20
REMARK                            x       y       z     vdW  Elec       q    Type
REMARK                         _______ _______ _______ _____ _____    ______ ____
ROOT
ATOM      1  N   UNL     1       3.446   5.073  20.035  0.00  0.00    +0.000 N 
ATOM      2  C   UNL     1       2.721   6.184  19.694  0.00  0.00    +0.000 C 
ATOM      3  O   UNL     1       2.631   6.601  18.545  0.00  0.00    +0.000 OA
ATOM      4  N   UNL     1       2.144   6.788  20.775  0.00  0.00    +0.000 N 
ATOM      5  H   UNL     1       3.250   4.627  20.921  0.00  0.00    +0.000 HD
ATOM      6  H   UNL     1       2.537   6.567  21.679  0.00  0.00    +0.000 HD
ENDROOT
BRANCH   1   8
ATOM      7  C   UNL     1       3.951   2.757  19.366  0.00  0.00    +0.000 C 
ATOM      8  C   UNL     1       4.044   4.239  19.007  0.00  0.00    +0.000 C 
BRANCH   8   9
ATOM      9  C   UNL     1       5.473   4.655  18.839  0.00  0.00    +0.000 A 
ATOM     10  N   UNL     1       6.268   5.144  19.776  0.00  0.00    +0.000 NA
ATOM     11  N   UNL     1       7.513   5.337  19.219  0.00  0.00    +0.000 NA
ATOM     12  C   UNL     1       7.448   4.970  17.959  0.00  0.00    +0.000 A 
ATOM     13  N   UNL     1       6.183   4.558  17.674  0.00  0.00    +0.000 N 
ATOM     14  C   UNL     1       5.710   4.111  16.390  0.00  0.00    +0.000 C 
ENDBRANCH   8   9
ENDBRANCH   1   8
BRANCH   4  15
ATOM     15  C   UNL     1       1.471   8.063  20.607  0.00  0.00    +0.000 C 
BRANCH  15  16
ATOM     16  C   UNL     1       1.384   8.855  21.910  0.00  0.00    +0.000 C 
BRANCH  16  17
ATOM     17  C   UNL     1       0.049   9.615  21.993  0.00  0.00    +0.000 C 
BRANCH  17  18
ATOM     18  N   UNL     1       0.209  11.076  22.091  0.00  0.00    +0.000 NA
ATOM     19  C   UNL     1      -1.104  11.746  22.192  0.00  0.00    +0.000 C 
ATOM     20  C   UNL     1      -1.535  11.982  20.757  0.00  0.00    +0.000 C 
ATOM     21  C   UNL     1      -0.234  12.331  20.064  0.00  0.00    +0.000 C 
ATOM     22  C   UNL     1       0.855  11.682  20.915  0.00  0.00    +0.000 C 
ENDBRANCH  17  18
ENDBRANCH  16  17
ENDBRANCH  15  16
ENDBRANCH   4  15
TORSDOF 6
ENDMDL
MODEL 6
REMARK VINA RESULT:      -7.2      5.458      7.280
REMARK  Name = 
REMARK  8 active torsions:
REMARK  status: ('A' for Active; 'I' for Inactive)
REMARK    1  A    between atoms: C_1  and  C_2
REMARK    2  A    between atoms: C_2  and  N_3
REMARK    3  A    between atoms: C_2  and  C_15
REMARK    4  A    between atoms: N_6  and  C_7
REMARK    5  A    between atoms: C_7  and  C_8
REMARK    6  A    between atoms: C_8  and  C_9
REMARK    7  A    between atoms: C_9  and  N_10
REMARK    8  A    between atoms: N_19  and  C_20
REMARK                            x       y       z     vdW  Elec       q    Type
REMARK                         _______ _______ _______ _____ _____    ______ ____
ROOT
ATOM      1  N   UNL     1       3.503   5.356  20.050  0.00  0.00    +0.000 N 
ATOM      2  C   UNL     1       2.754   6.384  19.543  0.00  0.00    +0.000 C 
ATOM      3  O   UNL     1       2.613   6.586  18.342  0.00  0.00    +0.000 OA
ATOM      4  N   UNL     1       2.213   7.172  20.519  0.00  0.00    +0.000 N 
ATOM      5  H   UNL     1       3.346   5.077  21.008  0.00  0.00    +0.000 HD
ATOM      6  H   UNL     1       2.644   7.119  21.432  0.00  0.00    +0.000 HD
ENDROOT
BRANCH   1   8
ATOM      7  C   UNL     1       3.963   2.952  19.769  0.00  0.00    +0.000 C 
ATOM      8  C   UNL     1       4.069   4.351  19.166  0.00  0.00    +0.000 C 
BRANCH   8   9
ATOM      9  C   UNL     1       5.499   4.709  18.906  0.00  0.00    +0.000 A 
ATOM     10  N   UNL     1       6.367   5.182  19.785  0.00  0.00    +0.000 NA
ATOM     11  N   UNL     1       7.583   5.318  19.152  0.00  0.00    +0.000 NA
ATOM     12  C   UNL     1       7.430   4.932  17.905  0.00  0.00    +0.000 A 
ATOM     13  N   UNL     1       6.135   4.564  17.704  0.00  0.00    +0.000 N 
ATOM     14  C   UNL     1       5.570   4.114  16.458  0.00  0.00    +0.000 C 
ENDBRANCH   8   9
ENDBRANCH   1   8
BRANCH   4  15
ATOM     15  C   UNL     1       1.520   8.394  20.152  0.00  0.00    +0.000 C 
BRANCH  15  16
ATOM     16  C   UNL     1       0.316   8.676  21.047  0.00  0.00    +0.000 C 
BRANCH  16  17
ATOM     17  C   UNL     1      -0.043  10.171  21.014  0.00  0.00    +0.000 C 
BRANCH  17  18
ATOM     18  N   UNL     1      -0.056  10.744  19.657  0.00  0.00    +0.000 NA
ATOM     19  C   UNL     1      -0.020  12.220  19.706  0.00  0.00    +0.000 C 
ATOM     20  C   UNL     1      -1.473  12.645  19.800  0.00  0.00    +0.000 C 
ATOM     21  C   UNL     1      -2.178  11.646  18.906  0.00  0.00    +0.000 C 
ATOM     22  C   UNL     1      -1.270  10.419  18.889  0.00  0.00    +0.000 C 
ENDBRANCH  17  18
ENDBRANCH  16  17
ENDBRANCH  15  16
ENDBRANCH   4  15
TORSDOF 6
ENDMDL
MODEL 7
REMARK VINA RESULT:      -7.2      1.519      3.111
REMARK  Name = 
REMARK  8 active torsions:
REMARK  status: ('A' for Active; 'I' for Inactive)
REMARK    1  A    between atoms: C_1  and  C_2
REMARK    2  A    between atoms: C_2  and  N_3
REMARK    3  A    between atoms: C_2  and  C_15
REMARK    4  A    between atoms: N_6  and  C_7
REMARK    5  A    between atoms: C_7  and  C_8
REMARK    6  A    between atoms: C_8  and  C_9
REMARK    7  A    between atoms: C_9  and  N_10
REMARK    8  A    between atoms: N_19  and  C_20
REMARK                            x       y       z     vdW  Elec       q    Type
REMARK                         _______ _______ _______ _____ _____    ______ ____
ROOT
ATOM      1  N   UNL     1       4.662   2.745  18.462  0.00  0.00    +0.000 N 
ATOM      2  C   UNL     1       4.589   3.696  17.478  0.00  0.00    +0.000 C 
ATOM      3  O   UNL     1       3.864   4.682  17.548  0.00  0.00    +0.000 OA
ATOM      4  N   UNL     1       5.384   3.405  16.406  0.00  0.00    +0.000 N 
ATOM      5  H   UNL     1       5.465   2.133  18.477  0.00  0.00    +0.000 HD
ATOM      6  H   UNL     1       5.675   2.442  16.307  0.00  0.00    +0.000 HD
ENDROOT
BRANCH   1   8
ATOM      7  C   UNL     1       4.414   1.913  20.767  0.00  0.00    +0.000 C 
ATOM      8  C   UNL     1       3.968   2.936  19.724  0.00  0.00    +0.000 C 
BRANCH   8   9
ATOM      9  C   UNL     1       2.496   2.827  19.471  0.00  0.00    +0.000 A 
ATOM     10  N   UNL     1       1.881   1.872  18.794  0.00  0.00    +0.000 NA
ATOM     11  N   UNL     1       0.526   2.116  18.851  0.00  0.00    +0.000 NA
ATOM     12  C   UNL     1       0.347   3.213  19.552  0.00  0.00    +0.000 A 
ATOM     13  N   UNL     1       1.556   3.702  19.940  0.00  0.00    +0.000 N 
ATOM     14  C   UNL     1       1.775   4.908  20.696  0.00  0.00    +0.000 C 
ENDBRANCH   8   9
ENDBRANCH   1   8
BRANCH   4  15
ATOM     15  C   UNL     1       5.306   4.230  15.213  0.00  0.00    +0.000 C 
BRANCH  15  16
ATOM     16  C   UNL     1       6.458   5.227  15.116  0.00  0.00    +0.000 C 
BRANCH  16  17
ATOM     17  C   UNL     1       7.359   5.136  16.358  0.00  0.00    +0.000 C 
BRANCH  17  18
ATOM     18  N   UNL     1       6.804   5.819  17.540  0.00  0.00    +0.000 NA
ATOM     19  C   UNL     1       6.432   7.212  17.220  0.00  0.00    +0.000 C 
ATOM     20  C   UNL     1       7.693   8.019  17.460  0.00  0.00    +0.000 C 
ATOM     21  C   UNL     1       8.297   7.353  18.679  0.00  0.00    +0.000 C 
ATOM     22  C   UNL     1       7.752   5.927  18.662  0.00  0.00    +0.000 C 
ENDBRANCH  17  18
ENDBRANCH  16  17
ENDBRANCH  15  16
ENDBRANCH   4  15
TORSDOF 6
ENDMDL
MODEL 8
REMARK VINA RESULT:      -7.2      1.833      6.252
REMARK  Name = 
REMARK  8 active torsions:
REMARK  status: ('A' for Active; 'I' for Inactive)
REMARK    1  A    between atoms: C_1  and  C_2
REMARK    2  A    between atoms: C_2  and  N_3
REMARK    3  A    between atoms: C_2  and  C_15
REMARK    4  A    between atoms: N_6  and  C_7
REMARK    5  A    between atoms: C_7  and  C_8
REMARK    6  A    between atoms: C_8  and  C_9
REMARK    7  A    between atoms: C_9  and  N_10
REMARK    8  A    between atoms: N_19  and  C_20
REMARK                            x       y       z     vdW  Elec       q    Type
REMARK                         _______ _______ _______ _____ _____    ______ ____
ROOT
ATOM      1  N   UNL     1       5.366   3.561  16.581  0.00  0.00    +0.000 N 
ATOM      2  C   UNL     1       4.157   3.134  17.064  0.00  0.00    +0.000 C 
ATOM      3  O   UNL     1       3.096   3.695  16.815  0.00  0.00    +0.000 OA
ATOM      4  N   UNL     1       4.273   2.040  17.874  0.00  0.00    +0.000 N 
ATOM      5  H   UNL     1       6.139   2.911  16.581  0.00  0.00    +0.000 HD
ATOM      6  H   UNL     1       5.187   1.863  18.267  0.00  0.00    +0.000 HD
ENDROOT
BRANCH   1   8
ATOM      7  C   UNL     1       6.085   4.197  14.312  0.00  0.00    +0.000 C 
ATOM      8  C   UNL     1       5.431   4.647  15.617  0.00  0.00    +0.000 C 
BRANCH   8   9
ATOM      9  C   UNL     1       6.199   5.775  16.234  0.00  0.00    +0.000 A 
ATOM     10  N   UNL     1       7.501   5.985  16.143  0.00  0.00    +0.000 NA
ATOM     11  N   UNL     1       7.789   7.161  16.801  0.00  0.00    +0.000 NA
ATOM     12  C   UNL     1       6.663   7.635  17.282  0.00  0.00    +0.000 A 
ATOM     13  N   UNL     1       5.645   6.786  16.969  0.00  0.00    +0.000 N 
ATOM     14  C   UNL     1       4.266   6.946  17.349  0.00  0.00    +0.000 C 
ENDBRANCH   8   9
ENDBRANCH   1   8
BRANCH   4  15
ATOM     15  C   UNL     1       3.107   1.554  18.591  0.00  0.00    +0.000 C 
BRANCH  15  16
ATOM     16  C   UNL     1       3.073   2.029  20.042  0.00  0.00    +0.000 C 
BRANCH  16  17
ATOM     17  C   UNL     1       1.625   2.277  20.496  0.00  0.00    +0.000 C 
BRANCH  17  18
ATOM     18  N   UNL     1       1.424   3.591  21.131  0.00  0.00    +0.000 NA
ATOM     19  C   UNL     1       0.640   4.487  20.256  0.00  0.00    +0.000 C 
ATOM     20  C   UNL     1       1.667   5.172  19.375  0.00  0.00    +0.000 C 
ATOM     21  C   UNL     1       2.833   5.389  20.317  0.00  0.00    +0.000 C 
ATOM     22  C   UNL     1       2.677   4.320  21.394  0.00  0.00    +0.000 C 
ENDBRANCH  17  18
ENDBRANCH  16  17
ENDBRANCH  15  16
ENDBRANCH   4  15
TORSDOF 6
ENDMDL
MODEL 9
REMARK VINA RESULT:      -7.2      4.897      7.232
REMARK  Name = 
REMARK  8 active torsions:
REMARK  status: ('A' for Active; 'I' for Inactive)
REMARK    1  A    between atoms: C_1  and  C_2
REMARK    2  A    between atoms: C_2  and  N_3
REMARK    3  A    between atoms: C_2  and  C_15
REMARK    4  A    between atoms: N_6  and  C_7
REMARK    5  A    between atoms: C_7  and  C_8
REMARK    6  A    between atoms: C_8  and  C_9
REMARK    7  A    between atoms: C_9  and  N_10
REMARK    8  A    between atoms: N_19  and  C_20
REMARK                            x       y       z     vdW  Elec       q    Type
REMARK                         _______ _______ _______ _____ _____    ______ ____
ROOT
ATOM      1  N   UNL     1       3.626   5.335  19.408  0.00  0.00    +0.000 N 
ATOM      2  C   UNL     1       3.157   6.291  18.546  0.00  0.00    +0.000 C 
ATOM      3  O   UNL     1       3.412   6.300  17.348  0.00  0.00    +0.000 OA
ATOM      4  N   UNL     1       2.407   7.244  19.177  0.00  0.00    +0.000 N 
ATOM      5  H   UNL     1       3.159   5.220  20.296  0.00  0.00    +0.000 HD
ATOM      6  H   UNL     1       2.529   7.326  20.177  0.00  0.00    +0.000 HD
ENDROOT
BRANCH   1   8
ATOM      7  C   UNL     1       4.232   2.988  19.848  0.00  0.00    +0.000 C 
ATOM      8  C   UNL     1       4.355   4.183  18.904  0.00  0.00    +0.000 C 
BRANCH   8   9
ATOM      9  C   UNL     1       5.789   4.576  18.729  0.00  0.00    +0.000 A 
ATOM     10  N   UNL     1       6.606   5.019  19.670  0.00  0.00    +0.000 NA
ATOM     11  N   UNL     1       7.847   5.204  19.102  0.00  0.00    +0.000 NA
ATOM     12  C   UNL     1       7.759   4.877  17.833  0.00  0.00    +0.000 A 
ATOM     13  N   UNL     1       6.482   4.499  17.553  0.00  0.00    +0.000 N 
ATOM     14  C   UNL     1       5.984   4.100  16.262  0.00  0.00    +0.000 C 
ENDBRANCH   8   9
ENDBRANCH   1   8
BRANCH   4  15
ATOM     15  C   UNL     1       1.964   8.411  18.436  0.00  0.00    +0.000 C 
BRANCH  15  16
ATOM     16  C   UNL     1       1.300   9.455  19.331  0.00  0.00    +0.000 C 
BRANCH  16  17
ATOM     17  C   UNL     1       1.092   8.897  20.749  0.00  0.00    +0.000 C 
BRANCH  17  18
ATOM     18  N   UNL     1       1.225   9.914  21.807  0.00  0.00    +0.000 NA
ATOM     19  C   UNL     1       0.595   9.456  23.062  0.00  0.00    +0.000 C 
ATOM     20  C   UNL     1      -0.855   9.891  22.954  0.00  0.00    +0.000 C 
ATOM     21  C   UNL     1      -0.756  11.235  22.264  0.00  0.00    +0.000 C 
ATOM     22  C   UNL     1       0.559  11.188  21.491  0.00  0.00    +0.000 C 
ENDBRANCH  17  18
ENDBRANCH  16  17
ENDBRANCH  15  16
ENDBRANCH   4  15
TORSDOF 6
ENDMDL
