MODEL 1
REMARK VINA RESULT:     -10.4      0.000      0.000
REMARK  Name = 
REMARK  8 active torsions:
REMARK  status: ('A' for Active; 'I' for Inactive)
REMARK    1  A    between atoms: C_1  and  C_2
REMARK    2  A    between atoms: C_5  and  C_6
REMARK    3  A    between atoms: N_10  and  C_11
REMARK    4  A    between atoms: C_13  and  C_14
REMARK    5  A    between atoms: C_15  and  O_16
REMARK    6  A    between atoms: O_16  and  C_17
REMARK    7  A    between atoms: C_17  and  C_18
REMARK    8  A    between atoms: C_20  and  C_21
REMARK                            x       y       z     vdW  Elec       q    Type
REMARK                         _______ _______ _______ _____ _____    ______ ____
ROOT
ATOM      1  C   UNL     1       7.623   4.805  13.315  0.00  0.00    +0.000 C 
ATOM      2  C   UNL     1       6.846   4.685  14.584  0.00  0.00    +0.000 A 
ATOM      3  N   UNL     1       5.516   4.518  14.455  0.00  0.00    +0.000 NA
ATOM      4  C   UNL     1       4.822   4.483  15.599  0.00  0.00    +0.000 A 
ATOM      5  C   UNL     1       5.402   4.590  16.849  0.00  0.00    +0.000 A 
ATOM      6  C   UNL     1       6.787   4.687  16.871  0.00  0.00    +0.000 A 
ATOM      7  N   UNL     1       7.532   4.759  15.752  0.00  0.00    +0.000 NA
ENDROOT
BRANCH   5   8
ATOM      8  C   UNL     1       4.614   4.505  18.087  0.00  0.00    +0.000 A 
ATOM      9  C   UNL     1       4.659   3.366  18.806  0.00  0.00    +0.000 A 
ATOM     10  C   UNL     1       3.676   3.119  19.885  0.00  0.00    +0.000 A 
ATOM     11  O   UNL     1       3.544   1.983  20.330  0.00  0.00    +0.000 OA
ATOM     12  N   UNL     1       2.964   4.221  20.313  0.00  0.00    +0.000 N 
ATOM     13  C   UNL     1       1.953   4.002  21.333  0.00  0.00    +0.000 C 
ATOM     14  C   UNL     1       3.124   5.464  19.721  0.00  0.00    +0.000 A 
ATOM     15  C   UNL     1       3.811   5.614  18.580  0.00  0.00    +0.000 A 
ATOM     16  C   UNL     1       3.812   6.893  17.787  0.00  0.00    +0.000 C 
ENDBRANCH   5   8
BRANCH   6  17
ATOM     17  O   UNL     1       7.372   4.681  18.145  0.00  0.00    +0.000 OA
BRANCH  17  18
ATOM     18  C   UNL     1       7.284   5.884  18.905  0.00  0.00    +0.000 C 
BRANCH  18  19
ATOM     19  C   UNL     1       7.953   7.133  18.244  0.00  0.00    +0.000 C 
ATOM     20  C   UNL     1       7.383   7.808  16.990  0.00  0.00    +0.000 C 
ATOM     21  C   UNL     1       7.784   8.885  18.053  0.00  0.00    +0.000 C 
BRANCH  21  22
ATOM     22  C   UNL     1       9.178  10.126  18.213  0.00  0.00    +0.000 A 
ATOM     23  C   UNL     1       9.305  10.412  19.471  0.00  0.00    +0.000 A 
ATOM     24  C   UNL     1      10.509  11.104  19.709  0.00  0.00    +0.000 A 
ATOM     25  C   UNL     1      10.141  12.329  19.993  0.00  0.00    +0.000 A 
ATOM     26  C   UNL     1       9.871  12.438  21.405  0.00  0.00    +0.000 A 
ATOM     27  C   UNL     1       9.507  13.558  22.074  0.00  0.00    +0.000 A 
ATOM     28  C   UNL     1       9.869  14.656  21.367  0.00  0.00    +0.000 A 
ATOM     29  C   UNL     1      10.241  14.401  19.938  0.00  0.00    +0.000 A 
ATOM     30  C   UNL     1       9.932  13.051  18.896  0.00  0.00    +0.000 A 
ATOM     31  N   UNL     1       9.591  11.618  17.840  0.00  0.00    +0.000 NA
ENDBRANCH  21  22
ENDBRANCH  18  19
ENDBRANCH  17  18
ENDBRANCH   6  17
TORSDOF 5
ENDMDL
MODEL 2
REMARK VINA RESULT:     -10.1      1.348      1.868
REMARK  Name = 
REMARK  8 active torsions:
REMARK  status: ('A' for Active; 'I' for Inactive)
REMARK    1  A    between atoms: C_1  and  C_2
REMARK    2  A    between atoms: C_5  and  C_6
REMARK    3  A    between atoms: N_10  and  C_11
REMARK    4  A    between atoms: C_13  and  C_14
REMARK    5  A    between atoms: C_15  and  O_16
REMARK    6  A    between atoms: O_16  and  C_17
REMARK    7  A    between atoms: C_17  and  C_18
REMARK    8  A    between atoms: C_20  and  C_21
REMARK                            x       y       z     vdW  Elec       q    Type
REMARK                         _______ _______ _______ _____ _____    ______ ____
ROOT
ATOM      1  C   UNL     1       7.665   5.202  13.648  0.00  0.00    +0.000 C 
ATOM      2  C   UNL     1       6.876   5.004  14.899  0.00  0.00    +0.000 A 
ATOM      3  N   UNL     1       5.947   4.030  14.870  0.00  0.00    +0.000 NA
ATOM      4  C   UNL     1       5.198   3.910  15.973  0.00  0.00    +0.000 A 
ATOM      5  C   UNL     1       5.353   4.704  17.094  0.00  0.00    +0.000 A 
ATOM      6  C   UNL     1       6.388   5.629  17.046  0.00  0.00    +0.000 A 
ATOM      7  N   UNL     1       7.150   5.816  15.952  0.00  0.00    +0.000 NA
ENDROOT
BRANCH   5   8
ATOM      8  C   UNL     1       4.542   4.515  18.305  0.00  0.00    +0.000 A 
ATOM      9  C   UNL     1       4.846   3.500  19.137  0.00  0.00    +0.000 A 
ATOM     10  C   UNL     1       3.901   3.089  20.200  0.00  0.00    +0.000 A 
ATOM     11  O   UNL     1       4.052   2.004  20.753  0.00  0.00    +0.000 OA
ATOM     12  N   UNL     1       2.893   3.988  20.487  0.00  0.00    +0.000 N 
ATOM     13  C   UNL     1       1.918   3.591  21.487  0.00  0.00    +0.000 C 
ATOM     14  C   UNL     1       2.751   5.170  19.779  0.00  0.00    +0.000 A 
ATOM     15  C   UNL     1       3.442   5.401  18.653  0.00  0.00    +0.000 A 
ATOM     16  C   UNL     1       3.148   6.557  17.735  0.00  0.00    +0.000 C 
ENDBRANCH   5   8
BRANCH   6  17
ATOM     17  O   UNL     1       6.608   6.349  18.227  0.00  0.00    +0.000 OA
BRANCH  17  18
ATOM     18  C   UNL     1       7.963   6.589  18.598  0.00  0.00    +0.000 C 
BRANCH  18  19
ATOM     19  C   UNL     1       8.515   8.000  18.210  0.00  0.00    +0.000 C 
ATOM     20  C   UNL     1       7.642   9.073  17.547  0.00  0.00    +0.000 C 
ATOM     21  C   UNL     1       8.496   9.702  18.698  0.00  0.00    +0.000 C 
BRANCH  21  22
ATOM     22  C   UNL     1       9.998  10.820  18.768  0.00  0.00    +0.000 A 
ATOM     23  C   UNL     1       9.580  12.022  19.016  0.00  0.00    +0.000 A 
ATOM     24  C   UNL     1      10.653  12.862  19.374  0.00  0.00    +0.000 A 
ATOM     25  C   UNL     1      10.798  13.673  18.354  0.00  0.00    +0.000 A 
ATOM     26  C   UNL     1       9.931  14.813  18.516  0.00  0.00    +0.000 A 
ATOM     27  C   UNL     1       9.835  15.879  17.686  0.00  0.00    +0.000 A 
ATOM     28  C   UNL     1      10.961  15.984  16.938  0.00  0.00    +0.000 A 
ATOM     29  C   UNL     1      11.844  14.774  16.940  0.00  0.00    +0.000 A 
ATOM     30  C   UNL     1      11.533  13.128  17.389  0.00  0.00    +0.000 A 
ATOM     31  N   UNL     1      11.170  11.421  17.872  0.00  0.00    +0.000 NA
ENDBRANCH  21  22
ENDBRANCH  18  19
ENDBRANCH  17  18
ENDBRANCH   6  17
TORSDOF 5
ENDMDL
MODEL 3
REMARK VINA RESULT:     -10.0      0.987      1.170
REMARK  Name = 
REMARK  8 active torsions:
REMARK  status: ('A' for Active; 'I' for Inactive)
REMARK    1  A    between atoms: C_1  and  C_2
REMARK    2  A    between atoms: C_5  and  C_6
REMARK    3  A    between atoms: N_10  and  C_11
REMARK    4  A    between atoms: C_13  and  C_14
REMARK    5  A    between atoms: C_15  and  O_16
REMARK    6  A    between atoms: O_16  and  C_17
REMARK    7  A    between atoms: C_17  and  C_18
REMARK    8  A    between atoms: C_20  and  C_21
REMARK                            x       y       z     vdW  Elec       q    Type
REMARK                         _______ _______ _______ _____ _____    ______ ____
ROOT
ATOM      1  C   UNL     1       7.833   5.208  13.540  0.00  0.00    +0.000 C 
ATOM      2  C   UNL     1       6.917   5.080  14.711  0.00  0.00    +0.000 A 
ATOM      3  N   UNL     1       5.882   4.232  14.568  0.00  0.00    +0.000 NA
ATOM      4  C   UNL     1       5.028   4.179  15.598  0.00  0.00    +0.000 A 
ATOM      5  C   UNL     1       5.180   4.919  16.756  0.00  0.00    +0.000 A 
ATOM      6  C   UNL     1       6.321   5.706  16.830  0.00  0.00    +0.000 A 
ATOM      7  N   UNL     1       7.195   5.823  15.812  0.00  0.00    +0.000 NA
ENDROOT
BRANCH   5   8
ATOM      8  C   UNL     1       4.247   4.803  17.886  0.00  0.00    +0.000 A 
ATOM      9  C   UNL     1       4.284   3.692  18.646  0.00  0.00    +0.000 A 
ATOM     10  C   UNL     1       3.191   3.395  19.599  0.00  0.00    +0.000 A 
ATOM     11  O   UNL     1       3.089   2.265  20.065  0.00  0.00    +0.000 OA
ATOM     12  N   UNL     1       2.348   4.448  19.892  0.00  0.00    +0.000 N 
ATOM     13  C   UNL     1       1.233   4.176  20.783  0.00  0.00    +0.000 C 
ATOM     14  C   UNL     1       2.490   5.684  19.281  0.00  0.00    +0.000 A 
ATOM     15  C   UNL     1       3.306   5.858  18.231  0.00  0.00    +0.000 A 
ATOM     16  C   UNL     1       3.312   7.111  17.398  0.00  0.00    +0.000 C 
ENDBRANCH   5   8
BRANCH   6  17
ATOM     17  O   UNL     1       6.523   6.362  18.051  0.00  0.00    +0.000 OA
BRANCH  17  18
ATOM     18  C   UNL     1       7.870   6.516  18.491  0.00  0.00    +0.000 C 
BRANCH  18  19
ATOM     19  C   UNL     1       8.504   7.916  18.202  0.00  0.00    +0.000 C 
ATOM     20  C   UNL     1       7.705   9.072  17.585  0.00  0.00    +0.000 C 
ATOM     21  C   UNL     1       8.560   9.585  18.792  0.00  0.00    +0.000 C 
BRANCH  21  22
ATOM     22  C   UNL     1      10.115  10.615  18.964  0.00  0.00    +0.000 A 
ATOM     23  C   UNL     1       9.952  11.404  19.980  0.00  0.00    +0.000 A 
ATOM     24  C   UNL     1      11.173  11.997  20.356  0.00  0.00    +0.000 A 
ATOM     25  C   UNL     1      11.055  13.256  20.010  0.00  0.00    +0.000 A 
ATOM     26  C   UNL     1      10.436  13.995  21.082  0.00  0.00    +0.000 A 
ATOM     27  C   UNL     1      10.188  15.327  21.106  0.00  0.00    +0.000 A 
ATOM     28  C   UNL     1      10.993  15.963  20.220  0.00  0.00    +0.000 A 
ATOM     29  C   UNL     1      11.675  15.074  19.226  0.00  0.00    +0.000 A 
ATOM     30  C   UNL     1      11.346  13.447  18.727  0.00  0.00    +0.000 A 
ATOM     31  N   UNL     1      10.972  11.743  18.236  0.00  0.00    +0.000 NA
ENDBRANCH  21  22
ENDBRANCH  18  19
ENDBRANCH  17  18
ENDBRANCH   6  17
TORSDOF 5
ENDMDL
MODEL 4
REMARK VINA RESULT:      -9.4      5.235      9.009
REMARK  Name = 
REMARK  8 active torsions:
REMARK  status: ('A' for Active; 'I' for Inactive)
REMARK    1  A    between atoms: C_1  and  C_2
REMARK    2  A    between atoms: C_5  and  C_6
REMARK    3  A    between atoms: N_10  and  C_11
REMARK    4  A    between atoms: C_13  and  C_14
REMARK    5  A    between atoms: C_15  and  O_16
REMARK    6  A    between atoms: O_16  and  C_17
REMARK    7  A    between atoms: C_17  and  C_18
REMARK    8  A    between atoms: C_20  and  C_21
REMARK                            x       y       z     vdW  Elec       q    Type
REMARK                         _______ _______ _______ _____ _____    ______ ____
ROOT
ATOM      1  C   UNL     1       1.541   2.739  21.598  0.00  0.00    +0.000 C 
ATOM      2  C   UNL     1       2.400   3.188  20.463  0.00  0.00    +0.000 A 
ATOM      3  N   UNL     1       3.340   2.319  20.047  0.00  0.00    +0.000 NA
ATOM      4  C   UNL     1       4.150   2.761  19.077  0.00  0.00    +0.000 A 
ATOM      5  C   UNL     1       4.045   4.014  18.504  0.00  0.00    +0.000 A 
ATOM      6  C   UNL     1       2.996   4.804  18.956  0.00  0.00    +0.000 A 
ATOM      7  N   UNL     1       2.173   4.424  19.951  0.00  0.00    +0.000 NA
ENDROOT
BRANCH   5   8
ATOM      8  C   UNL     1       4.924   4.451  17.410  0.00  0.00    +0.000 A 
ATOM      9  C   UNL     1       4.537   4.227  16.139  0.00  0.00    +0.000 A 
ATOM     10  C   UNL     1       5.498   4.376  15.022  0.00  0.00    +0.000 A 
ATOM     11  O   UNL     1       5.223   3.900  13.925  0.00  0.00    +0.000 OA
ATOM     12  N   UNL     1       6.661   5.057  15.319  0.00  0.00    +0.000 N 
ATOM     13  C   UNL     1       7.648   5.174  14.259  0.00  0.00    +0.000 C 
ATOM     14  C   UNL     1       6.929   5.515  16.599  0.00  0.00    +0.000 A 
ATOM     15  C   UNL     1       6.183   5.141  17.648  0.00  0.00    +0.000 A 
ATOM     16  C   UNL     1       6.575   5.424  19.074  0.00  0.00    +0.000 C 
ENDBRANCH   5   8
BRANCH   6  17
ATOM     17  O   UNL     1       2.830   6.025  18.289  0.00  0.00    +0.000 OA
BRANCH  17  18
ATOM     18  C   UNL     1       2.877   7.209  19.083  0.00  0.00    +0.000 C 
BRANCH  18  19
ATOM     19  C   UNL     1       1.557   8.046  19.098  0.00  0.00    +0.000 C 
ATOM     20  C   UNL     1       1.099   8.843  20.327  0.00  0.00    +0.000 C 
ATOM     21  C   UNL     1       0.941   9.705  19.030  0.00  0.00    +0.000 C 
BRANCH  21  22
ATOM     22  C   UNL     1      -0.511  10.274  17.992  0.00  0.00    +0.000 A 
ATOM     23  C   UNL     1      -1.132  11.197  18.659  0.00  0.00    +0.000 A 
ATOM     24  C   UNL     1      -2.050  11.879  17.836  0.00  0.00    +0.000 A 
ATOM     25  C   UNL     1      -3.229  11.495  18.262  0.00  0.00    +0.000 A 
ATOM     26  C   UNL     1      -3.655  12.350  19.341  0.00  0.00    +0.000 A 
ATOM     27  C   UNL     1      -4.835  12.288  20.004  0.00  0.00    +0.000 A 
ATOM     28  C   UNL     1      -5.755  11.641  19.248  0.00  0.00    +0.000 A 
ATOM     29  C   UNL     1      -5.202  10.880  18.082  0.00  0.00    +0.000 A 
ATOM     30  C   UNL     1      -3.596  10.335  17.726  0.00  0.00    +0.000 A 
ATOM     31  N   UNL     1      -1.902   9.787  17.389  0.00  0.00    +0.000 NA
ENDBRANCH  21  22
ENDBRANCH  18  19
ENDBRANCH  17  18
ENDBRANCH   6  17
TORSDOF 5
ENDMDL
MODEL 5
REMARK VINA RESULT:      -9.1      5.023      8.124
REMARK  Name = 
REMARK  8 active torsions:
REMARK  status: ('A' for Active; 'I' for Inactive)
REMARK    1  A    between atoms: C_1  and  C_2
REMARK    2  A    between atoms: C_5  and  C_6
REMARK    3  A    between atoms: N_10  and  C_11
REMARK    4  A    between atoms: C_13  and  C_14
REMARK    5  A    between atoms: C_15  and  O_16
REMARK    6  A    between atoms: O_16  and  C_17
REMARK    7  A    between atoms: C_17  and  C_18
REMARK    8  A    between atoms: C_20  and  C_21
REMARK                            x       y       z     vdW  Elec       q    Type
REMARK                         _______ _______ _______ _____ _____    ______ ____
ROOT
ATOM      1  C   UNL     1       1.359   2.494  21.579  0.00  0.00    +0.000 C 
ATOM      2  C   UNL     1       2.231   3.032  20.494  0.00  0.00    +0.000 A 
ATOM      3  N   UNL     1       3.044   2.146  19.889  0.00  0.00    +0.000 NA
ATOM      4  C   UNL     1       3.872   2.654  18.967  0.00  0.00    +0.000 A 
ATOM      5  C   UNL     1       3.904   3.992  18.622  0.00  0.00    +0.000 A 
ATOM      6  C   UNL     1       2.974   4.806  19.255  0.00  0.00    +0.000 A 
ATOM      7  N   UNL     1       2.142   4.356  20.212  0.00  0.00    +0.000 NA
ENDROOT
BRANCH   5   8
ATOM      8  C   UNL     1       4.796   4.508  17.574  0.00  0.00    +0.000 A 
ATOM      9  C   UNL     1       4.416   4.396  16.286  0.00  0.00    +0.000 A 
ATOM     10  C   UNL     1       5.387   4.627  15.193  0.00  0.00    +0.000 A 
ATOM     11  O   UNL     1       5.116   4.248  14.058  0.00  0.00    +0.000 OA
ATOM     12  N   UNL     1       6.555   5.267  15.553  0.00  0.00    +0.000 N 
ATOM     13  C   UNL     1       7.552   5.462  14.514  0.00  0.00    +0.000 C 
ATOM     14  C   UNL     1       6.818   5.614  16.868  0.00  0.00    +0.000 A 
ATOM     15  C   UNL     1       6.060   5.162  17.877  0.00  0.00    +0.000 A 
ATOM     16  C   UNL     1       6.444   5.319  19.325  0.00  0.00    +0.000 C 
ENDBRANCH   5   8
BRANCH   6  17
ATOM     17  O   UNL     1       2.940   6.136  18.815  0.00  0.00    +0.000 OA
BRANCH  17  18
ATOM     18  C   UNL     1       2.498   7.117  19.751  0.00  0.00    +0.000 C 
BRANCH  18  19
ATOM     19  C   UNL     1       2.045   8.474  19.120  0.00  0.00    +0.000 C 
ATOM     20  C   UNL     1       2.181   8.774  17.622  0.00  0.00    +0.000 C 
ATOM     21  C   UNL     1       0.772   9.216  18.140  0.00  0.00    +0.000 C 
BRANCH  21  22
ATOM     22  C   UNL     1      -0.045  10.864  18.501  0.00  0.00    +0.000 A 
ATOM     23  C   UNL     1       0.022  11.062  19.780  0.00  0.00    +0.000 A 
ATOM     24  C   UNL     1      -0.299  12.396  20.099  0.00  0.00    +0.000 A 
ATOM     25  C   UNL     1      -1.469  12.327  20.687  0.00  0.00    +0.000 A 
ATOM     26  C   UNL     1      -1.287  12.099  22.099  0.00  0.00    +0.000 A 
ATOM     27  C   UNL     1      -2.262  12.011  23.035  0.00  0.00    +0.000 A 
ATOM     28  C   UNL     1      -3.389  12.617  22.586  0.00  0.00    +0.000 A 
ATOM     29  C   UNL     1      -3.413  12.910  21.117  0.00  0.00    +0.000 A 
ATOM     30  C   UNL     1      -2.465  12.287  19.807  0.00  0.00    +0.000 A 
ATOM     31  N   UNL     1      -1.449  11.614  18.466  0.00  0.00    +0.000 NA
ENDBRANCH  21  22
ENDBRANCH  18  19
ENDBRANCH  17  18
ENDBRANCH   6  17
TORSDOF 5
ENDMDL
MODEL 6
REMARK VINA RESULT:      -9.0      2.191      2.999
REMARK  Name = 
REMARK  8 active torsions:
REMARK  status: ('A' for Active; 'I' for Inactive)
REMARK    1  A    between atoms: C_1  and  C_2
REMARK    2  A    between atoms: C_5  and  C_6
REMARK    3  A    between atoms: N_10  and  C_11
REMARK    4  A    between atoms: C_13  and  C_14
REMARK    5  A    between atoms: C_15  and  O_16
REMARK    6  A    between atoms: O_16  and  C_17
REMARK    7  A    between atoms: C_17  and  C_18
REMARK    8  A    between atoms: C_20  and  C_21
REMARK                            x       y       z     vdW  Elec       q    Type
REMARK                         _______ _______ _______ _____ _____    ______ ____
ROOT
ATOM      1  C   UNL     1       7.686   4.482  13.690  0.00  0.00    +0.000 C 
ATOM      2  C   UNL     1       6.745   4.926  14.761  0.00  0.00    +0.000 A 
ATOM      3  N   UNL     1       5.631   4.187  14.919  0.00  0.00    +0.000 NA
ATOM      4  C   UNL     1       4.763   4.636  15.834  0.00  0.00    +0.000 A 
ATOM      5  C   UNL     1       4.972   5.769  16.597  0.00  0.00    +0.000 A 
ATOM      6  C   UNL     1       6.186   6.416  16.405  0.00  0.00    +0.000 A 
ATOM      7  N   UNL     1       7.081   6.029  15.477  0.00  0.00    +0.000 NA
ENDROOT
BRANCH   5   8
ATOM      8  C   UNL     1       4.017   6.209  17.623  0.00  0.00    +0.000 A 
ATOM      9  C   UNL     1       3.184   7.229  17.339  0.00  0.00    +0.000 A 
ATOM     10  C   UNL     1       2.416   7.896  18.415  0.00  0.00    +0.000 A 
ATOM     11  O   UNL     1       1.895   8.985  18.194  0.00  0.00    +0.000 OA
ATOM     12  N   UNL     1       2.351   7.218  19.615  0.00  0.00    +0.000 N 
ATOM     13  C   UNL     1       1.651   7.871  20.707  0.00  0.00    +0.000 C 
ATOM     14  C   UNL     1       3.016   6.018  19.808  0.00  0.00    +0.000 A 
ATOM     15  C   UNL     1       3.917   5.565  18.924  0.00  0.00    +0.000 A 
ATOM     16  C   UNL     1       4.825   4.398  19.206  0.00  0.00    +0.000 C 
ENDBRANCH   5   8
BRANCH   6  17
ATOM     17  O   UNL     1       6.436   7.496  17.262  0.00  0.00    +0.000 OA
BRANCH  17  18
ATOM     18  C   UNL     1       7.790   7.721  17.645  0.00  0.00    +0.000 C 
BRANCH  18  19
ATOM     19  C   UNL     1       8.116   9.182  18.094  0.00  0.00    +0.000 C 
ATOM     20  C   UNL     1       8.914   9.496  19.367  0.00  0.00    +0.000 C 
ATOM     21  C   UNL     1       9.425  10.371  18.175  0.00  0.00    +0.000 C 
BRANCH  21  22
ATOM     22  C   UNL     1       9.271  12.178  17.703  0.00  0.00    +0.000 A 
ATOM     23  C   UNL     1      10.418  12.740  17.923  0.00  0.00    +0.000 A 
ATOM     24  C   UNL     1      10.476  14.014  17.325  0.00  0.00    +0.000 A 
ATOM     25  C   UNL     1      10.447  14.857  18.329  0.00  0.00    +0.000 A 
ATOM     26  C   UNL     1      11.788  15.088  18.805  0.00  0.00    +0.000 A 
ATOM     27  C   UNL     1      12.158  15.928  19.802  0.00  0.00    +0.000 A 
ATOM     28  C   UNL     1      11.199  16.867  19.993  0.00  0.00    +0.000 A 
ATOM     29  C   UNL     1       9.878  16.571  19.350  0.00  0.00    +0.000 A 
ATOM     30  C   UNL     1       9.205  15.095  18.740  0.00  0.00    +0.000 A 
ATOM     31  N   UNL     1       8.539  13.533  18.109  0.00  0.00    +0.000 NA
ENDBRANCH  21  22
ENDBRANCH  18  19
ENDBRANCH  17  18
ENDBRANCH   6  17
TORSDOF 5
ENDMDL
MODEL 7
REMARK VINA RESULT:      -8.9      4.828      8.371
REMARK  Name = 
REMARK  8 active torsions:
REMARK  status: ('A' for Active; 'I' for Inactive)
REMARK    1  A    between atoms: C_1  and  C_2
REMARK    2  A    between atoms: C_5  and  C_6
REMARK    3  A    between atoms: N_10  and  C_11
REMARK    4  A    between atoms: C_13  and  C_14
REMARK    5  A    between atoms: C_15  and  O_16
REMARK    6  A    between atoms: O_16  and  C_17
REMARK    7  A    between atoms: C_17  and  C_18
REMARK    8  A    between atoms: C_20  and  C_21
REMARK                            x       y       z     vdW  Elec       q    Type
REMARK                         _______ _______ _______ _____ _____    ______ ____
ROOT
ATOM      1  C   UNL     1       0.663   1.844  18.806  0.00  0.00    +0.000 C 
ATOM      2  C   UNL     1       1.828   2.763  18.639  0.00  0.00    +0.000 A 
ATOM      3  N   UNL     1       2.753   2.393  17.734  0.00  0.00    +0.000 NA
ATOM      4  C   UNL     1       3.827   3.188  17.646  0.00  0.00    +0.000 A 
ATOM      5  C   UNL     1       3.999   4.330  18.405  0.00  0.00    +0.000 A 
ATOM      6  C   UNL     1       2.951   4.659  19.255  0.00  0.00    +0.000 A 
ATOM      7  N   UNL     1       1.864   3.880  19.409  0.00  0.00    +0.000 NA
ENDROOT
BRANCH   5   8
ATOM      8  C   UNL     1       5.170   5.204  18.250  0.00  0.00    +0.000 A 
ATOM      9  C   UNL     1       6.333   4.835  18.822  0.00  0.00    +0.000 A 
ATOM     10  C   UNL     1       7.449   5.800  18.948  0.00  0.00    +0.000 A 
ATOM     11  O   UNL     1       8.377   5.551  19.711  0.00  0.00    +0.000 OA
ATOM     12  N   UNL     1       7.349   6.938  18.173  0.00  0.00    +0.000 N 
ATOM     13  C   UNL     1       8.401   7.929  18.312  0.00  0.00    +0.000 C 
ATOM     14  C   UNL     1       6.241   7.179  17.377  0.00  0.00    +0.000 A 
ATOM     15  C   UNL     1       5.129   6.437  17.478  0.00  0.00    +0.000 A 
ATOM     16  C   UNL     1       3.833   6.807  16.808  0.00  0.00    +0.000 C 
ENDBRANCH   5   8
BRANCH   6  17
ATOM     17  O   UNL     1       3.086   5.877  19.934  0.00  0.00    +0.000 OA
BRANCH  17  18
ATOM     18  C   UNL     1       2.073   6.206  20.882  0.00  0.00    +0.000 C 
BRANCH  18  19
ATOM     19  C   UNL     1       1.235   7.480  20.539  0.00  0.00    +0.000 C 
ATOM     20  C   UNL     1       0.945   8.580  21.569  0.00  0.00    +0.000 C 
ATOM     21  C   UNL     1       1.380   9.213  20.206  0.00  0.00    +0.000 C 
BRANCH  21  22
ATOM     22  C   UNL     1       0.491  10.124  18.831  0.00  0.00    +0.000 A 
ATOM     23  C   UNL     1      -0.377  10.915  19.382  0.00  0.00    +0.000 A 
ATOM     24  C   UNL     1      -0.876  11.841  18.446  0.00  0.00    +0.000 A 
ATOM     25  C   UNL     1      -2.115  11.467  18.232  0.00  0.00    +0.000 A 
ATOM     26  C   UNL     1      -2.980  12.080  19.209  0.00  0.00    +0.000 A 
ATOM     27  C   UNL     1      -4.327  11.961  19.281  0.00  0.00    +0.000 A 
ATOM     28  C   UNL     1      -4.823  11.586  18.077  0.00  0.00    +0.000 A 
ATOM     29  C   UNL     1      -3.809  11.074  17.101  0.00  0.00    +0.000 A 
ATOM     30  C   UNL     1      -2.189  10.497  17.326  0.00  0.00    +0.000 A 
ATOM     31  N   UNL     1      -0.499   9.906  17.603  0.00  0.00    +0.000 NA
ENDBRANCH  21  22
ENDBRANCH  18  19
ENDBRANCH  17  18
ENDBRANCH   6  17
TORSDOF 5
ENDMDL
MODEL 8
REMARK VINA RESULT:      -8.9      4.994      7.397
REMARK  Name = 
REMARK  8 active torsions:
REMARK  status: ('A' for Active; 'I' for Inactive)
REMARK    1  A    between atoms: C_1  and  C_2
REMARK    2  A    between atoms: C_5  and  C_6
REMARK    3  A    between atoms: N_10  and  C_11
REMARK    4  A    between atoms: C_13  and  C_14
REMARK    5  A    between atoms: C_15  and  O_16
REMARK    6  A    between atoms: O_16  and  C_17
REMARK    7  A    between atoms: C_17  and  C_18
REMARK    8  A    between atoms: C_20  and  C_21
REMARK                            x       y       z     vdW  Elec       q    Type
REMARK                         _______ _______ _______ _____ _____    ______ ____
ROOT
ATOM      1  C   UNL     1       1.586   2.775  21.758  0.00  0.00    +0.000 C 
ATOM      2  C   UNL     1       2.445   3.239  20.628  0.00  0.00    +0.000 A 
ATOM      3  N   UNL     1       3.122   2.284  19.964  0.00  0.00    +0.000 NA
ATOM      4  C   UNL     1       3.943   2.720  19.000  0.00  0.00    +0.000 A 
ATOM      5  C   UNL     1       4.095   4.054  18.669  0.00  0.00    +0.000 A 
ATOM      6  C   UNL     1       3.295   4.949  19.367  0.00  0.00    +0.000 A 
ATOM      7  N   UNL     1       2.478   4.571  20.368  0.00  0.00    +0.000 NA
ENDROOT
BRANCH   5   8
ATOM      8  C   UNL     1       4.972   4.494  17.575  0.00  0.00    +0.000 A 
ATOM      9  C   UNL     1       4.549   4.344  16.305  0.00  0.00    +0.000 A 
ATOM     10  C   UNL     1       5.494   4.494  15.175  0.00  0.00    +0.000 A 
ATOM     11  O   UNL     1       5.174   4.080  14.065  0.00  0.00    +0.000 OA
ATOM     12  N   UNL     1       6.695   5.104  15.473  0.00  0.00    +0.000 N 
ATOM     13  C   UNL     1       7.665   5.219  14.399  0.00  0.00    +0.000 C 
ATOM     14  C   UNL     1       7.011   5.493  16.765  0.00  0.00    +0.000 A 
ATOM     15  C   UNL     1       6.268   5.111  17.814  0.00  0.00    +0.000 A 
ATOM     16  C   UNL     1       6.702   5.312  19.242  0.00  0.00    +0.000 C 
ENDBRANCH   5   8
BRANCH   6  17
ATOM     17  O   UNL     1       3.375   6.283  18.947  0.00  0.00    +0.000 OA
BRANCH  17  18
ATOM     18  C   UNL     1       2.214   6.840  18.333  0.00  0.00    +0.000 C 
BRANCH  18  19
ATOM     19  C   UNL     1       1.968   8.354  18.637  0.00  0.00    +0.000 C 
ATOM     20  C   UNL     1       2.301   9.462  17.630  0.00  0.00    +0.000 C 
ATOM     21  C   UNL     1       0.891   9.708  18.263  0.00  0.00    +0.000 C 
BRANCH  21  22
ATOM     22  C   UNL     1       0.200  10.914  19.519  0.00  0.00    +0.000 A 
ATOM     23  C   UNL     1      -0.131  11.995  18.883  0.00  0.00    +0.000 A 
ATOM     24  C   UNL     1      -0.923  12.832  19.694  0.00  0.00    +0.000 A 
ATOM     25  C   UNL     1      -0.148  13.850  19.982  0.00  0.00    +0.000 A 
ATOM     26  C   UNL     1      -0.260  14.848  18.948  0.00  0.00    +0.000 A 
ATOM     27  C   UNL     1       0.358  16.054  18.919  0.00  0.00    +0.000 A 
ATOM     28  C   UNL     1       0.727  16.414  20.173  0.00  0.00    +0.000 A 
ATOM     29  C   UNL     1       0.691  15.313  21.190  0.00  0.00    +0.000 A 
ATOM     30  C   UNL     1       0.651  13.589  21.012  0.00  0.00    +0.000 A 
ATOM     31  N   UNL     1       0.604  11.792  20.784  0.00  0.00    +0.000 NA
ENDBRANCH  21  22
ENDBRANCH  18  19
ENDBRANCH  17  18
ENDBRANCH   6  17
TORSDOF 5
ENDMDL
MODEL 9
REMARK VINA RESULT:      -8.9      4.949      7.801
REMARK  Name = 
REMARK  8 active torsions:
REMARK  status: ('A' for Active; 'I' for Inactive)
REMARK    1  A    between atoms: C_1  and  C_2
REMARK    2  A    between atoms: C_5  and  C_6
REMARK    3  A    between atoms: N_10  and  C_11
REMARK    4  A    between atoms: C_13  and  C_14
REMARK    5  A    between atoms: C_15  and  O_16
REMARK    6  A    between atoms: O_16  and  C_17
REMARK    7  A    between atoms: C_17  and  C_18
REMARK    8  A    between atoms: C_20  and  C_21
REMARK                            x       y       z     vdW  Elec       q    Type
REMARK                         _______ _______ _______ _____ _____    ______ ____
ROOT
ATOM      1  C   UNL     1       1.841   2.690  21.758  0.00  0.00    +0.000 C 
ATOM      2  C   UNL     1       2.642   3.147  20.584  0.00  0.00    +0.000 A 
ATOM      3  N   UNL     1       3.680   2.367  20.231  0.00  0.00    +0.000 NA
ATOM      4  C   UNL     1       4.432   2.824  19.222  0.00  0.00    +0.000 A 
ATOM      5  C   UNL     1       4.178   4.006  18.552  0.00  0.00    +0.000 A 
ATOM      6  C   UNL     1       3.041   4.697  18.948  0.00  0.00    +0.000 A 
ATOM      7  N   UNL     1       2.267   4.302  19.977  0.00  0.00    +0.000 NA
ENDROOT
BRANCH   5   8
ATOM      8  C   UNL     1       5.000   4.456  17.420  0.00  0.00    +0.000 A 
ATOM      9  C   UNL     1       4.589   4.174  16.168  0.00  0.00    +0.000 A 
ATOM     10  C   UNL     1       5.507   4.342  15.019  0.00  0.00    +0.000 A 
ATOM     11  O   UNL     1       5.227   3.820  13.945  0.00  0.00    +0.000 OA
ATOM     12  N   UNL     1       6.640   5.093  15.261  0.00  0.00    +0.000 N 
ATOM     13  C   UNL     1       7.588   5.231  14.169  0.00  0.00    +0.000 C 
ATOM     14  C   UNL     1       6.919   5.602  16.519  0.00  0.00    +0.000 A 
ATOM     15  C   UNL     1       6.225   5.220  17.600  0.00  0.00    +0.000 A 
ATOM     16  C   UNL     1       6.643   5.565  19.005  0.00  0.00    +0.000 C 
ENDBRANCH   5   8
BRANCH   6  17
ATOM     17  O   UNL     1       2.730   5.832  18.189  0.00  0.00    +0.000 OA
BRANCH  17  18
ATOM     18  C   UNL     1       2.969   7.102  18.792  0.00  0.00    +0.000 C 
BRANCH  18  19
ATOM     19  C   UNL     1       1.728   7.744  19.493  0.00  0.00    +0.000 C 
ATOM     20  C   UNL     1       1.438   7.560  20.988  0.00  0.00    +0.000 C 
ATOM     21  C   UNL     1       1.247   9.058  20.579  0.00  0.00    +0.000 C 
BRANCH  21  22
ATOM     22  C   UNL     1      -0.232  10.179  20.325  0.00  0.00    +0.000 A 
ATOM     23  C   UNL     1       0.105  11.081  19.456  0.00  0.00    +0.000 A 
ATOM     24  C   UNL     1      -1.028  11.778  18.992  0.00  0.00    +0.000 A 
ATOM     25  C   UNL     1      -0.923  12.975  19.515  0.00  0.00    +0.000 A 
ATOM     26  C   UNL     1      -0.129  13.812  18.650  0.00  0.00    +0.000 A 
ATOM     27  C   UNL     1       0.162  15.122  18.838  0.00  0.00    +0.000 A 
ATOM     28  C   UNL     1      -0.745  15.681  19.677  0.00  0.00    +0.000 A 
ATOM     29  C   UNL     1      -1.595  14.708  20.437  0.00  0.00    +0.000 A 
ATOM     30  C   UNL     1      -1.395  13.016  20.758  0.00  0.00    +0.000 A 
ATOM     31  N   UNL     1      -1.151  11.248  21.066  0.00  0.00    +0.000 NA
ENDBRANCH  21  22
ENDBRANCH  18  19
ENDBRANCH  17  18
ENDBRANCH   6  17
TORSDOF 5
ENDMDL
