MODEL 1
REMARK VINA RESULT:      -7.2      0.000      0.000
REMARK  Name = 
REMARK  3 active torsions:
REMARK  status: ('A' for Active; 'I' for Inactive)
REMARK    1  A    between atoms: C_1  and  N_2
REMARK    2  A    between atoms: N_4  and  C_5
REMARK    3  A    between atoms: C_5  and  C_7
REMARK                            x       y       z     vdW  Elec       q    Type
REMARK                         _______ _______ _______ _____ _____    ______ ____
ROOT
ATOM      1  C   UNL     1       2.562   7.030  18.465  0.00  0.00    +0.000 C 
ATOM      2  N   UNL     1       3.285   5.825  18.813  0.00  0.00    +0.000 N 
ATOM      3  C   UNL     1       4.586   5.539  18.400  0.00  0.00    +0.000 A 
ATOM      4  N   UNL     1       5.307   6.316  17.657  0.00  0.00    +0.000 NA
ATOM      5  S   UNL     1       5.093   3.963  19.088  0.00  0.00    +0.000 S 
ATOM      6  C   UNL     1       3.509   3.733  19.852  0.00  0.00    +0.000 A 
ATOM      7  C   UNL     1       3.097   2.643  20.605  0.00  0.00    +0.000 A 
ATOM      8  C   UNL     1       1.804   2.644  21.119  0.00  0.00    +0.000 A 
ATOM      9  C   UNL     1       0.950   3.726  20.873  0.00  0.00    +0.000 A 
ATOM     10  C   UNL     1       1.383   4.823  20.112  0.00  0.00    +0.000 A 
ATOM     11  C   UNL     1       2.675   4.833  19.594  0.00  0.00    +0.000 A 
ENDROOT
BRANCH   4  12
ATOM     12  C   UNL     1       6.569   5.962  17.246  0.00  0.00    +0.000 C 
ATOM     13  O   UNL     1       7.608   6.068  17.892  0.00  0.00    +0.000 OA
BRANCH  12  14
ATOM     14  C   UNL     1       6.582   5.310  15.893  0.00  0.00    +0.000 A 
ATOM     15  C   UNL     1       5.533   4.430  15.402  0.00  0.00    +0.000 A 
ATOM     16  C   UNL     1       5.569   3.949  14.153  0.00  0.00    +0.000 A 
ATOM     17  C   UNL     1       6.705   4.289  13.258  0.00  0.00    +0.000 A 
ATOM     18  O   UNL     1       6.758   3.866  12.109  0.00  0.00    +0.000 OA
ATOM     19  N   UNL     1       7.668   5.102  13.802  0.00  0.00    +0.000 N 
ATOM     20  C   UNL     1       7.609   5.607  15.078  0.00  0.00    +0.000 A 
ATOM     21  H   UNL     1       8.438   5.352  13.191  0.00  0.00    +0.000 HD
ENDBRANCH  12  14
ENDBRANCH   4  12
TORSDOF 2
ENDMDL
MODEL 2
REMARK VINA RESULT:      -7.2      3.538      5.088
REMARK  Name = 
REMARK  3 active torsions:
REMARK  status: ('A' for Active; 'I' for Inactive)
REMARK    1  A    between atoms: C_1  and  N_2
REMARK    2  A    between atoms: N_4  and  C_5
REMARK    3  A    between atoms: C_5  and  C_7
REMARK                            x       y       z     vdW  Elec       q    Type
REMARK                         _______ _______ _______ _____ _____    ______ ____
ROOT
ATOM      1  C   UNL     1       1.870   9.932  17.904  0.00  0.00    +0.000 C 
ATOM      2  N   UNL     1       1.618   9.122  19.078  0.00  0.00    +0.000 N 
ATOM      3  C   UNL     1       1.976   7.780  19.200  0.00  0.00    +0.000 A 
ATOM      4  N   UNL     1       2.578   7.094  18.283  0.00  0.00    +0.000 NA
ATOM      5  S   UNL     1       1.502   7.187  20.825  0.00  0.00    +0.000 S 
ATOM      6  C   UNL     1       0.791   8.757  21.244  0.00  0.00    +0.000 A 
ATOM      7  C   UNL     1       0.156   9.095  22.429  0.00  0.00    +0.000 A 
ATOM      8  C   UNL     1      -0.347  10.386  22.567  0.00  0.00    +0.000 A 
ATOM      9  C   UNL     1      -0.206  11.311  21.524  0.00  0.00    +0.000 A 
ATOM     10  C   UNL     1       0.442  10.953  20.332  0.00  0.00    +0.000 A 
ATOM     11  C   UNL     1       0.949   9.666  20.184  0.00  0.00    +0.000 A 
ENDROOT
BRANCH   4  12
ATOM     12  C   UNL     1       2.868   5.762  18.444  0.00  0.00    +0.000 C 
ATOM     13  O   UNL     1       2.094   4.880  18.807  0.00  0.00    +0.000 OA
BRANCH  12  14
ATOM     14  C   UNL     1       4.270   5.415  18.031  0.00  0.00    +0.000 A 
ATOM     15  C   UNL     1       5.056   6.190  17.084  0.00  0.00    +0.000 A 
ATOM     16  C   UNL     1       6.331   5.870  16.825  0.00  0.00    +0.000 A 
ATOM     17  C   UNL     1       6.951   4.693  17.487  0.00  0.00    +0.000 A 
ATOM     18  O   UNL     1       8.116   4.383  17.271  0.00  0.00    +0.000 OA
ATOM     19  N   UNL     1       6.138   3.997  18.346  0.00  0.00    +0.000 N 
ATOM     20  C   UNL     1       4.838   4.349  18.621  0.00  0.00    +0.000 A 
ATOM     21  H   UNL     1       6.559   3.203  18.815  0.00  0.00    +0.000 HD
ENDBRANCH  12  14
ENDBRANCH   4  12
TORSDOF 2
ENDMDL
MODEL 3
REMARK VINA RESULT:      -7.2      0.831      1.201
REMARK  Name = 
REMARK  3 active torsions:
REMARK  status: ('A' for Active; 'I' for Inactive)
REMARK    1  A    between atoms: C_1  and  N_2
REMARK    2  A    between atoms: N_4  and  C_5
REMARK    3  A    between atoms: C_5  and  C_7
REMARK                            x       y       z     vdW  Elec       q    Type
REMARK                         _______ _______ _______ _____ _____    ______ ____
ROOT
ATOM      1  C   UNL     1       2.996   7.015  18.112  0.00  0.00    +0.000 C 
ATOM      2  N   UNL     1       3.582   5.752  18.509  0.00  0.00    +0.000 N 
ATOM      3  C   UNL     1       4.821   5.285  18.071  0.00  0.00    +0.000 A 
ATOM      4  N   UNL     1       5.600   5.924  17.258  0.00  0.00    +0.000 NA
ATOM      5  S   UNL     1       5.161   3.700  18.837  0.00  0.00    +0.000 S 
ATOM      6  C   UNL     1       3.593   3.710  19.667  0.00  0.00    +0.000 A 
ATOM      7  C   UNL     1       3.084   2.725  20.498  0.00  0.00    +0.000 A 
ATOM      8  C   UNL     1       1.822   2.913  21.054  0.00  0.00    +0.000 A 
ATOM      9  C   UNL     1       1.096   4.077  20.771  0.00  0.00    +0.000 A 
ATOM     10  C   UNL     1       1.628   5.067  19.930  0.00  0.00    +0.000 A 
ATOM     11  C   UNL     1       2.889   4.888  19.369  0.00  0.00    +0.000 A 
ENDROOT
BRANCH   4  12
ATOM     12  C   UNL     1       6.792   5.395  16.827  0.00  0.00    +0.000 C 
ATOM     13  O   UNL     1       7.812   5.245  17.495  0.00  0.00    +0.000 OA
BRANCH  12  14
ATOM     14  C   UNL     1       6.733   4.895  15.412  0.00  0.00    +0.000 A 
ATOM     15  C   UNL     1       7.468   5.489  14.307  0.00  0.00    +0.000 A 
ATOM     16  C   UNL     1       7.434   4.940  13.086  0.00  0.00    +0.000 A 
ATOM     17  C   UNL     1       6.616   3.725  12.840  0.00  0.00    +0.000 A 
ATOM     18  O   UNL     1       6.572   3.200  11.733  0.00  0.00    +0.000 OA
ATOM     19  N   UNL     1       5.930   3.239  13.925  0.00  0.00    +0.000 N 
ATOM     20  C   UNL     1       5.991   3.799  15.179  0.00  0.00    +0.000 A 
ATOM     21  H   UNL     1       5.383   2.400  13.769  0.00  0.00    +0.000 HD
ENDBRANCH  12  14
ENDBRANCH   4  12
TORSDOF 2
ENDMDL
MODEL 4
REMARK VINA RESULT:      -7.0      2.181      3.321
REMARK  Name = 
REMARK  3 active torsions:
REMARK  status: ('A' for Active; 'I' for Inactive)
REMARK    1  A    between atoms: C_1  and  N_2
REMARK    2  A    between atoms: N_4  and  C_5
REMARK    3  A    between atoms: C_5  and  C_7
REMARK                            x       y       z     vdW  Elec       q    Type
REMARK                         _______ _______ _______ _____ _____    ______ ____
ROOT
ATOM      1  C   UNL     1       1.475   4.563  17.203  0.00  0.00    +0.000 C 
ATOM      2  N   UNL     1       2.506   4.088  18.103  0.00  0.00    +0.000 N 
ATOM      3  C   UNL     1       3.870   4.105  17.816  0.00  0.00    +0.000 A 
ATOM      4  N   UNL     1       4.383   4.548  16.713  0.00  0.00    +0.000 NA
ATOM      5  S   UNL     1       4.778   3.456  19.220  0.00  0.00    +0.000 S 
ATOM      6  C   UNL     1       3.275   3.137  20.106  0.00  0.00    +0.000 A 
ATOM      7  C   UNL     1       3.154   2.571  21.365  0.00  0.00    +0.000 A 
ATOM      8  C   UNL     1       1.878   2.394  21.893  0.00  0.00    +0.000 A 
ATOM      9  C   UNL     1       0.752   2.785  21.157  0.00  0.00    +0.000 A 
ATOM     10  C   UNL     1       0.892   3.360  19.884  0.00  0.00    +0.000 A 
ATOM     11  C   UNL     1       2.163   3.541  19.348  0.00  0.00    +0.000 A 
ENDROOT
BRANCH   4  12
ATOM     12  C   UNL     1       5.734   4.500  16.469  0.00  0.00    +0.000 C 
ATOM     13  O   UNL     1       6.325   3.681  15.771  0.00  0.00    +0.000 OA
BRANCH  12  14
ATOM     14  C   UNL     1       6.480   5.651  17.083  0.00  0.00    +0.000 A 
ATOM     15  C   UNL     1       7.437   5.514  18.170  0.00  0.00    +0.000 A 
ATOM     16  C   UNL     1       8.128   6.572  18.614  0.00  0.00    +0.000 A 
ATOM     17  C   UNL     1       7.902   7.912  18.013  0.00  0.00    +0.000 A 
ATOM     18  O   UNL     1       8.525   8.895  18.397  0.00  0.00    +0.000 OA
ATOM     19  N   UNL     1       6.964   7.965  17.012  0.00  0.00    +0.000 N 
ATOM     20  C   UNL     1       6.277   6.868  16.551  0.00  0.00    +0.000 A 
ATOM     21  H   UNL     1       6.817   8.873  16.586  0.00  0.00    +0.000 HD
ENDBRANCH  12  14
ENDBRANCH   4  12
TORSDOF 2
ENDMDL
MODEL 5
REMARK VINA RESULT:      -6.9      1.663      2.593
REMARK  Name = 
REMARK  3 active torsions:
REMARK  status: ('A' for Active; 'I' for Inactive)
REMARK    1  A    between atoms: C_1  and  N_2
REMARK    2  A    between atoms: N_4  and  C_5
REMARK    3  A    between atoms: C_5  and  C_7
REMARK                            x       y       z     vdW  Elec       q    Type
REMARK                         _______ _______ _______ _____ _____    ______ ____
ROOT
ATOM      1  C   UNL     1       4.696   3.089  19.122  0.00  0.00    +0.000 C 
ATOM      2  N   UNL     1       4.431   4.461  18.740  0.00  0.00    +0.000 N 
ATOM      3  C   UNL     1       5.148   5.162  17.772  0.00  0.00    +0.000 A 
ATOM      4  N   UNL     1       6.137   4.674  17.094  0.00  0.00    +0.000 NA
ATOM      5  S   UNL     1       4.460   6.809  17.602  0.00  0.00    +0.000 S 
ATOM      6  C   UNL     1       3.275   6.498  18.885  0.00  0.00    +0.000 A 
ATOM      7  C   UNL     1       2.328   7.383  19.376  0.00  0.00    +0.000 A 
ATOM      8  C   UNL     1       1.485   6.953  20.398  0.00  0.00    +0.000 A 
ATOM      9  C   UNL     1       1.604   5.653  20.906  0.00  0.00    +0.000 A 
ATOM     10  C   UNL     1       2.566   4.768  20.395  0.00  0.00    +0.000 A 
ATOM     11  C   UNL     1       3.413   5.189  19.373  0.00  0.00    +0.000 A 
ENDROOT
BRANCH   4  12
ATOM     12  C   UNL     1       6.835   5.426  16.181  0.00  0.00    +0.000 C 
ATOM     13  O   UNL     1       7.495   6.434  16.413  0.00  0.00    +0.000 OA
BRANCH  12  14
ATOM     14  C   UNL     1       6.807   4.841  14.798  0.00  0.00    +0.000 A 
ATOM     15  C   UNL     1       7.557   5.375  13.672  0.00  0.00    +0.000 A 
ATOM     16  C   UNL     1       7.550   4.753  12.486  0.00  0.00    +0.000 A 
ATOM     17  C   UNL     1       6.749   3.516  12.299  0.00  0.00    +0.000 A 
ATOM     18  O   UNL     1       6.730   2.926  11.226  0.00  0.00    +0.000 OA
ATOM     19  N   UNL     1       6.047   3.090  13.400  0.00  0.00    +0.000 N 
ATOM     20  C   UNL     1       6.080   3.725  14.619  0.00  0.00    +0.000 A 
ATOM     21  H   UNL     1       5.512   2.237  13.285  0.00  0.00    +0.000 HD
ENDBRANCH  12  14
ENDBRANCH   4  12
TORSDOF 2
ENDMDL
MODEL 6
REMARK VINA RESULT:      -6.9      2.056      3.716
REMARK  Name = 
REMARK  3 active torsions:
REMARK  status: ('A' for Active; 'I' for Inactive)
REMARK    1  A    between atoms: C_1  and  N_2
REMARK    2  A    between atoms: N_4  and  C_5
REMARK    3  A    between atoms: C_5  and  C_7
REMARK                            x       y       z     vdW  Elec       q    Type
REMARK                         _______ _______ _______ _____ _____    ______ ____
ROOT
ATOM      1  C   UNL     1       3.965   1.258  17.995  0.00  0.00    +0.000 C 
ATOM      2  N   UNL     1       3.647   2.667  18.097  0.00  0.00    +0.000 N 
ATOM      3  C   UNL     1       4.256   3.669  17.343  0.00  0.00    +0.000 A 
ATOM      4  N   UNL     1       5.178   3.464  16.458  0.00  0.00    +0.000 NA
ATOM      5  S   UNL     1       3.535   5.254  17.772  0.00  0.00    +0.000 S 
ATOM      6  C   UNL     1       2.488   4.502  18.990  0.00  0.00    +0.000 A 
ATOM      7  C   UNL     1       1.585   5.144  19.823  0.00  0.00    +0.000 A 
ATOM      8  C   UNL     1       0.853   4.377  20.725  0.00  0.00    +0.000 A 
ATOM      9  C   UNL     1       1.037   2.989  20.778  0.00  0.00    +0.000 A 
ATOM     10  C   UNL     1       1.954   2.354  19.925  0.00  0.00    +0.000 A 
ATOM     11  C   UNL     1       2.689   3.113  19.020  0.00  0.00    +0.000 A 
ENDROOT
BRANCH   4  12
ATOM     12  C   UNL     1       5.772   4.496  15.774  0.00  0.00    +0.000 C 
ATOM     13  O   UNL     1       5.686   4.724  14.570  0.00  0.00    +0.000 OA
BRANCH  12  14
ATOM     14  C   UNL     1       6.512   5.445  16.673  0.00  0.00    +0.000 A 
ATOM     15  C   UNL     1       7.270   5.033  17.844  0.00  0.00    +0.000 A 
ATOM     16  C   UNL     1       7.975   5.924  18.554  0.00  0.00    +0.000 A 
ATOM     17  C   UNL     1       7.967   7.358  18.166  0.00  0.00    +0.000 A 
ATOM     18  O   UNL     1       8.607   8.191  18.795  0.00  0.00    +0.000 OA
ATOM     19  N   UNL     1       7.206   7.672  17.066  0.00  0.00    +0.000 N 
ATOM     20  C   UNL     1       6.505   6.744  16.333  0.00  0.00    +0.000 A 
ATOM     21  H   UNL     1       7.209   8.646  16.785  0.00  0.00    +0.000 HD
ENDBRANCH  12  14
ENDBRANCH   4  12
TORSDOF 2
ENDMDL
MODEL 7
REMARK VINA RESULT:      -6.9      3.509      4.689
REMARK  Name = 
REMARK  3 active torsions:
REMARK  status: ('A' for Active; 'I' for Inactive)
REMARK    1  A    between atoms: C_1  and  N_2
REMARK    2  A    between atoms: N_4  and  C_5
REMARK    3  A    between atoms: C_5  and  C_7
REMARK                            x       y       z     vdW  Elec       q    Type
REMARK                         _______ _______ _______ _____ _____    ______ ____
ROOT
ATOM      1  C   UNL     1       1.669  10.112  17.876  0.00  0.00    +0.000 C 
ATOM      2  N   UNL     1       1.550   9.228  19.017  0.00  0.00    +0.000 N 
ATOM      3  C   UNL     1       2.012   7.913  19.046  0.00  0.00    +0.000 A 
ATOM      4  N   UNL     1       2.604   7.321  18.059  0.00  0.00    +0.000 NA
ATOM      5  S   UNL     1       1.685   7.206  20.661  0.00  0.00    +0.000 S 
ATOM      6  C   UNL     1       0.888   8.695  21.204  0.00  0.00    +0.000 A 
ATOM      7  C   UNL     1       0.305   8.924  22.441  0.00  0.00    +0.000 A 
ATOM      8  C   UNL     1      -0.281  10.165  22.678  0.00  0.00    +0.000 A 
ATOM      9  C   UNL     1      -0.273  11.148  21.680  0.00  0.00    +0.000 A 
ATOM     10  C   UNL     1       0.324  10.900  20.434  0.00  0.00    +0.000 A 
ATOM     11  C   UNL     1       0.913   9.664  20.188  0.00  0.00    +0.000 A 
ENDROOT
BRANCH   4  12
ATOM     12  C   UNL     1       3.001   6.008  18.131  0.00  0.00    +0.000 C 
ATOM     13  O   UNL     1       2.402   5.090  18.685  0.00  0.00    +0.000 OA
BRANCH  12  14
ATOM     14  C   UNL     1       4.258   5.734  17.356  0.00  0.00    +0.000 A 
ATOM     15  C   UNL     1       4.559   4.463  16.715  0.00  0.00    +0.000 A 
ATOM     16  C   UNL     1       5.661   4.314  15.969  0.00  0.00    +0.000 A 
ATOM     17  C   UNL     1       6.609   5.447  15.810  0.00  0.00    +0.000 A 
ATOM     18  O   UNL     1       7.621   5.338  15.128  0.00  0.00    +0.000 OA
ATOM     19  N   UNL     1       6.270   6.604  16.466  0.00  0.00    +0.000 N 
ATOM     20  C   UNL     1       5.124   6.751  17.211  0.00  0.00    +0.000 A 
ATOM     21  H   UNL     1       6.903   7.387  16.348  0.00  0.00    +0.000 HD
ENDBRANCH  12  14
ENDBRANCH   4  12
TORSDOF 2
ENDMDL
MODEL 8
REMARK VINA RESULT:      -6.8      2.113      3.614
REMARK  Name = 
REMARK  3 active torsions:
REMARK  status: ('A' for Active; 'I' for Inactive)
REMARK    1  A    between atoms: C_1  and  N_2
REMARK    2  A    between atoms: N_4  and  C_5
REMARK    3  A    between atoms: C_5  and  C_7
REMARK                            x       y       z     vdW  Elec       q    Type
REMARK                         _______ _______ _______ _____ _____    ______ ____
ROOT
ATOM      1  C   UNL     1       1.985   5.808  17.686  0.00  0.00    +0.000 C 
ATOM      2  N   UNL     1       2.901   4.963  18.425  0.00  0.00    +0.000 N 
ATOM      3  C   UNL     1       4.268   4.871  18.169  0.00  0.00    +0.000 A 
ATOM      4  N   UNL     1       4.888   5.529  17.243  0.00  0.00    +0.000 NA
ATOM      5  S   UNL     1       5.014   3.735  19.340  0.00  0.00    +0.000 S 
ATOM      6  C   UNL     1       3.440   3.391  20.082  0.00  0.00    +0.000 A 
ATOM      7  C   UNL     1       3.185   2.516  21.127  0.00  0.00    +0.000 A 
ATOM      8  C   UNL     1       1.872   2.377  21.569  0.00  0.00    +0.000 A 
ATOM      9  C   UNL     1       0.844   3.110  20.962  0.00  0.00    +0.000 A 
ATOM     10  C   UNL     1       1.120   3.994  19.907  0.00  0.00    +0.000 A 
ATOM     11  C   UNL     1       2.429   4.141  19.459  0.00  0.00    +0.000 A 
ENDROOT
BRANCH   4  12
ATOM     12  C   UNL     1       6.232   5.366  17.010  0.00  0.00    +0.000 C 
ATOM     13  O   UNL     1       6.764   4.446  16.396  0.00  0.00    +0.000 OA
BRANCH  12  14
ATOM     14  C   UNL     1       7.056   6.516  17.515  0.00  0.00    +0.000 A 
ATOM     15  C   UNL     1       7.014   7.857  16.954  0.00  0.00    +0.000 A 
ATOM     16  C   UNL     1       7.715   8.855  17.507  0.00  0.00    +0.000 A 
ATOM     17  C   UNL     1       8.571   8.594  18.693  0.00  0.00    +0.000 A 
ATOM     18  O   UNL     1       9.218   9.491  19.221  0.00  0.00    +0.000 OA
ATOM     19  N   UNL     1       8.579   7.298  19.147  0.00  0.00    +0.000 N 
ATOM     20  C   UNL     1       7.838   6.287  18.584  0.00  0.00    +0.000 A 
ATOM     21  H   UNL     1       9.148   7.116  19.967  0.00  0.00    +0.000 HD
ENDBRANCH  12  14
ENDBRANCH   4  12
TORSDOF 2
ENDMDL
MODEL 9
REMARK VINA RESULT:      -6.7      1.327      2.087
REMARK  Name = 
REMARK  3 active torsions:
REMARK  status: ('A' for Active; 'I' for Inactive)
REMARK    1  A    between atoms: C_1  and  N_2
REMARK    2  A    between atoms: N_4  and  C_5
REMARK    3  A    between atoms: C_5  and  C_7
REMARK                            x       y       z     vdW  Elec       q    Type
REMARK                         _______ _______ _______ _____ _____    ______ ____
ROOT
ATOM      1  C   UNL     1       5.185   1.892  20.113  0.00  0.00    +0.000 C 
ATOM      2  N   UNL     1       4.542   3.109  19.661  0.00  0.00    +0.000 N 
ATOM      3  C   UNL     1       5.157   4.076  18.867  0.00  0.00    +0.000 A 
ATOM      4  N   UNL     1       6.376   4.006  18.436  0.00  0.00    +0.000 NA
ATOM      5  S   UNL     1       3.987   5.391  18.522  0.00  0.00    +0.000 S 
ATOM      6  C   UNL     1       2.741   4.606  19.512  0.00  0.00    +0.000 A 
ATOM      7  C   UNL     1       1.462   5.075  19.765  0.00  0.00    +0.000 A 
ATOM      8  C   UNL     1       0.626   4.314  20.578  0.00  0.00    +0.000 A 
ATOM      9  C   UNL     1       1.082   3.105  21.120  0.00  0.00    +0.000 A 
ATOM     10  C   UNL     1       2.380   2.644  20.851  0.00  0.00    +0.000 A 
ATOM     11  C   UNL     1       3.223   3.397  20.039  0.00  0.00    +0.000 A 
ENDROOT
BRANCH   4  12
ATOM     12  C   UNL     1       6.943   5.011  17.691  0.00  0.00    +0.000 C 
ATOM     13  O   UNL     1       7.498   6.019  18.120  0.00  0.00    +0.000 OA
BRANCH  12  14
ATOM     14  C   UNL     1       6.916   4.731  16.215  0.00  0.00    +0.000 A 
ATOM     15  C   UNL     1       6.036   3.758  15.586  0.00  0.00    +0.000 A 
ATOM     16  C   UNL     1       6.007   3.619  14.254  0.00  0.00    +0.000 A 
ATOM     17  C   UNL     1       6.899   4.446  13.401  0.00  0.00    +0.000 A 
ATOM     18  O   UNL     1       6.886   4.342  12.180  0.00  0.00    +0.000 OA
ATOM     19  N   UNL     1       7.718   5.322  14.069  0.00  0.00    +0.000 N 
ATOM     20  C   UNL     1       7.723   5.470  15.436  0.00  0.00    +0.000 A 
ATOM     21  H   UNL     1       8.318   5.901  13.493  0.00  0.00    +0.000 HD
ENDBRANCH  12  14
ENDBRANCH   4  12
TORSDOF 2
ENDMDL
