MODEL 1
REMARK VINA RESULT:      -6.1      0.000      0.000
REMARK  Name = 
REMARK  10 active torsions:
REMARK  status: ('A' for Active; 'I' for Inactive)
REMARK    1  A    between atoms: C_1  and  C_2
REMARK    2  A    between atoms: C_2  and  O_3
REMARK    3  A    between atoms: O_3  and  C_4
REMARK    4  A    between atoms: C_4  and  C_6
REMARK    5  A    between atoms: C_7  and  N_8
REMARK    6  A    between atoms: C_9  and  C_11
REMARK    7  A    between atoms: C_12  and  C_13
REMARK    8  A    between atoms: C_13  and  O_15
REMARK    9  A    between atoms: C_17  and  C_18
REMARK   10  A    between atoms: C_19  and  C_20
REMARK                            x       y       z     vdW  Elec       q    Type
REMARK                         _______ _______ _______ _____ _____    ______ ____
ROOT
ATOM      1  C   UNL     1      -3.149  12.349  19.163  0.00  0.00    +0.000 A 
ATOM      2  C   UNL     1      -3.904  11.951  18.068  0.00  0.00    +0.000 A 
ATOM      3  S   UNL     1      -5.566  12.059  18.387  0.00  0.00    +0.000 S 
ATOM      4  C   UNL     1      -5.344  12.763  19.920  0.00  0.00    +0.000 A 
ATOM      5  C   UNL     1      -6.578  13.191  20.649  0.00  0.00    +0.000 C 
ATOM      6  C   UNL     1      -3.998  12.810  20.268  0.00  0.00    +0.000 A 
ENDROOT
BRANCH   6   7
ATOM      7  C   UNL     1      -3.527  13.302  21.574  0.00  0.00    +0.000 A 
ATOM      8  C   UNL     1      -3.137  14.644  21.726  0.00  0.00    +0.000 A 
ATOM      9  C   UNL     1      -2.801  15.159  22.984  0.00  0.00    +0.000 A 
ATOM     10  C   UNL     1      -2.791  14.321  24.093  0.00  0.00    +0.000 A 
ATOM     11 CL   UNL     1      -2.388  14.950  25.642  0.00  0.00    +0.000 Cl
ATOM     12  C   UNL     1      -3.126  12.979  23.957  0.00  0.00    +0.000 A 
ATOM     13  C   UNL     1      -3.517  12.481  22.711  0.00  0.00    +0.000 A 
ENDBRANCH   6   7
BRANCH   2  14
ATOM     14  N   UNL     1      -3.478  11.487  16.817  0.00  0.00    +0.000 N 
ATOM     15  C   UNL     1      -3.114  10.178  16.563  0.00  0.00    +0.000 C 
ATOM     16  O   UNL     1      -3.131   9.240  17.355  0.00  0.00    +0.000 OA
ATOM     17  H   UNL     1      -3.587  12.132  16.041  0.00  0.00    +0.000 HD
BRANCH  15  18
ATOM     18  C   UNL     1      -2.743   9.898  15.150  0.00  0.00    +0.000 C 
ATOM     19  C   UNL     1      -3.723  10.069  14.243  0.00  0.00    +0.000 C 
BRANCH  19  20
ATOM     20  C   UNL     1      -3.504   9.825  12.812  0.00  0.00    +0.000 C 
ATOM     21  O   UNL     1      -4.375   9.874  11.971  0.00  0.00    +0.000 OA
BRANCH  20  22
ATOM     22  O   UNL     1      -2.209   9.520  12.544  0.00  0.00    +0.000 OA
ATOM     23  H   UNL     1      -1.722  10.176  12.012  0.00  0.00    +0.000 HD
ENDBRANCH  20  22
ENDBRANCH  19  20
ENDBRANCH  15  18
ENDBRANCH   2  14
BRANCH   1  24
ATOM     24  C   UNL     1      -1.692  12.437  19.152  0.00  0.00    +0.000 C 
ATOM     25  O   UNL     1      -1.064  13.077  18.318  0.00  0.00    +0.000 OA
BRANCH  24  26
ATOM     26  O   UNL     1      -1.098  11.681  20.128  0.00  0.00    +0.000 OA
BRANCH  26  28
ATOM     27  C   UNL     1      -0.001   9.695  20.845  0.00  0.00    +0.000 C 
ATOM     28  C   UNL     1      -0.765  10.350  19.711  0.00  0.00    +0.000 C 
ENDBRANCH  26  28
ENDBRANCH  24  26
ENDBRANCH   1  24
TORSDOF 8
ENDMDL
MODEL 2
REMARK VINA RESULT:      -5.9      0.638      1.106
REMARK  Name = 
REMARK  10 active torsions:
REMARK  status: ('A' for Active; 'I' for Inactive)
REMARK    1  A    between atoms: C_1  and  C_2
REMARK    2  A    between atoms: C_2  and  O_3
REMARK    3  A    between atoms: O_3  and  C_4
REMARK    4  A    between atoms: C_4  and  C_6
REMARK    5  A    between atoms: C_7  and  N_8
REMARK    6  A    between atoms: C_9  and  C_11
REMARK    7  A    between atoms: C_12  and  C_13
REMARK    8  A    between atoms: C_13  and  O_15
REMARK    9  A    between atoms: C_17  and  C_18
REMARK   10  A    between atoms: C_19  and  C_20
REMARK                            x       y       z     vdW  Elec       q    Type
REMARK                         _______ _______ _______ _____ _____    ______ ____
ROOT
ATOM      1  C   UNL     1      -2.936  12.359  18.991  0.00  0.00    +0.000 A 
ATOM      2  C   UNL     1      -3.719  11.871  17.952  0.00  0.00    +0.000 A 
ATOM      3  S   UNL     1      -5.357  11.810  18.386  0.00  0.00    +0.000 S 
ATOM      4  C   UNL     1      -5.105  12.552  19.897  0.00  0.00    +0.000 A 
ATOM      5  C   UNL     1      -6.324  12.857  20.708  0.00  0.00    +0.000 C 
ATOM      6  C   UNL     1      -3.751  12.742  20.150  0.00  0.00    +0.000 A 
ENDROOT
BRANCH   6   7
ATOM      7  C   UNL     1      -3.244  13.296  21.418  0.00  0.00    +0.000 A 
ATOM      8  C   UNL     1      -2.676  12.448  22.383  0.00  0.00    +0.000 A 
ATOM      9  C   UNL     1      -2.082  12.968  23.540  0.00  0.00    +0.000 A 
ATOM     10  C   UNL     1      -2.107  14.338  23.773  0.00  0.00    +0.000 A 
ATOM     11 CL   UNL     1      -1.372  14.984  25.186  0.00  0.00    +0.000 Cl
ATOM     12  C   UNL     1      -2.707  15.192  22.854  0.00  0.00    +0.000 A 
ATOM     13  C   UNL     1      -3.247  14.675  21.672  0.00  0.00    +0.000 A 
ENDBRANCH   6   7
BRANCH   2  14
ATOM     14  N   UNL     1      -3.334  11.440  16.677  0.00  0.00    +0.000 N 
ATOM     15  C   UNL     1      -3.008  10.131  16.371  0.00  0.00    +0.000 C 
ATOM     16  O   UNL     1      -3.032   9.168  17.132  0.00  0.00    +0.000 OA
ATOM     17  H   UNL     1      -3.444  12.113  15.926  0.00  0.00    +0.000 HD
BRANCH  15  18
ATOM     18  C   UNL     1      -2.678   9.890  14.941  0.00  0.00    +0.000 C 
ATOM     19  C   UNL     1      -3.700  10.019  14.074  0.00  0.00    +0.000 C 
BRANCH  19  20
ATOM     20  C   UNL     1      -3.522   9.806  12.632  0.00  0.00    +0.000 C 
ATOM     21  O   UNL     1      -4.419   9.869  11.819  0.00  0.00    +0.000 OA
BRANCH  20  22
ATOM     22  O   UNL     1      -2.236   9.512  12.320  0.00  0.00    +0.000 OA
ATOM     23  H   UNL     1      -1.610  10.258  12.363  0.00  0.00    +0.000 HD
ENDBRANCH  20  22
ENDBRANCH  19  20
ENDBRANCH  15  18
ENDBRANCH   2  14
BRANCH   1  24
ATOM     24  C   UNL     1      -1.500  12.597  18.878  0.00  0.00    +0.000 C 
ATOM     25  O   UNL     1      -0.994  13.709  18.970  0.00  0.00    +0.000 OA
BRANCH  24  26
ATOM     26  O   UNL     1      -0.785  11.463  18.595  0.00  0.00    +0.000 OA
BRANCH  26  28
ATOM     27  C   UNL     1       0.653   9.837  19.569  0.00  0.00    +0.000 C 
ATOM     28  C   UNL     1      -0.677  10.554  19.698  0.00  0.00    +0.000 C 
ENDBRANCH  26  28
ENDBRANCH  24  26
ENDBRANCH   1  24
TORSDOF 8
ENDMDL
MODEL 3
REMARK VINA RESULT:      -5.9      0.848      1.341
REMARK  Name = 
REMARK  10 active torsions:
REMARK  status: ('A' for Active; 'I' for Inactive)
REMARK    1  A    between atoms: C_1  and  C_2
REMARK    2  A    between atoms: C_2  and  O_3
REMARK    3  A    between atoms: O_3  and  C_4
REMARK    4  A    between atoms: C_4  and  C_6
REMARK    5  A    between atoms: C_7  and  N_8
REMARK    6  A    between atoms: C_9  and  C_11
REMARK    7  A    between atoms: C_12  and  C_13
REMARK    8  A    between atoms: C_13  and  O_15
REMARK    9  A    between atoms: C_17  and  C_18
REMARK   10  A    between atoms: C_19  and  C_20
REMARK                            x       y       z     vdW  Elec       q    Type
REMARK                         _______ _______ _______ _____ _____    ______ ____
ROOT
ATOM      1  C   UNL     1      -3.343  12.311  19.285  0.00  0.00    +0.000 A 
ATOM      2  C   UNL     1      -4.087  12.005  18.153  0.00  0.00    +0.000 A 
ATOM      3  S   UNL     1      -5.726  12.382  18.367  0.00  0.00    +0.000 S 
ATOM      4  C   UNL     1      -5.485  13.087  19.896  0.00  0.00    +0.000 A 
ATOM      5  C   UNL     1      -6.677  13.724  20.539  0.00  0.00    +0.000 C 
ATOM      6  C   UNL     1      -4.171  12.932  20.326  0.00  0.00    +0.000 A 
ENDROOT
BRANCH   6   7
ATOM      7  C   UNL     1      -3.705  13.382  21.649  0.00  0.00    +0.000 A 
ATOM      8  C   UNL     1      -3.112  14.647  21.798  0.00  0.00    +0.000 A 
ATOM      9  C   UNL     1      -2.772  15.140  23.063  0.00  0.00    +0.000 A 
ATOM     10  C   UNL     1      -2.964  14.346  24.188  0.00  0.00    +0.000 A 
ATOM     11 CL   UNL     1      -2.558  14.949  25.746  0.00  0.00    +0.000 Cl
ATOM     12  C   UNL     1      -3.504  13.072  24.059  0.00  0.00    +0.000 A 
ATOM     13  C   UNL     1      -3.897  12.605  22.801  0.00  0.00    +0.000 A 
ENDBRANCH   6   7
BRANCH   2  14
ATOM     14  N   UNL     1      -3.667  11.444  16.941  0.00  0.00    +0.000 N 
ATOM     15  C   UNL     1      -3.274  10.127  16.795  0.00  0.00    +0.000 C 
ATOM     16  O   UNL     1      -3.257   9.262  17.666  0.00  0.00    +0.000 OA
ATOM     17  H   UNL     1      -3.804  12.016  16.113  0.00  0.00    +0.000 HD
BRANCH  15  18
ATOM     18  C   UNL     1      -2.917   9.734  15.406  0.00  0.00    +0.000 C 
ATOM     19  C   UNL     1      -3.761  10.152  14.444  0.00  0.00    +0.000 C 
BRANCH  19  20
ATOM     20  C   UNL     1      -3.539   9.834  13.028  0.00  0.00    +0.000 C 
ATOM     21  O   UNL     1      -4.420   9.760  12.199  0.00  0.00    +0.000 OA
BRANCH  20  22
ATOM     22  O   UNL     1      -2.227   9.615  12.760  0.00  0.00    +0.000 OA
ATOM     23  H   UNL     1      -1.661  10.408  12.747  0.00  0.00    +0.000 HD
ENDBRANCH  20  22
ENDBRANCH  19  20
ENDBRANCH  15  18
ENDBRANCH   2  14
BRANCH   1  24
ATOM     24  C   UNL     1      -1.892  12.169  19.363  0.00  0.00    +0.000 C 
ATOM     25  O   UNL     1      -1.328  11.492  20.213  0.00  0.00    +0.000 OA
BRANCH  24  26
ATOM     26  O   UNL     1      -1.226  12.920  18.430  0.00  0.00    +0.000 OA
BRANCH  26  28
ATOM     27  C   UNL     1       1.071  13.523  18.563  0.00  0.00    +0.000 C 
ATOM     28  C   UNL     1      -0.335  13.891  18.993  0.00  0.00    +0.000 C 
ENDBRANCH  26  28
ENDBRANCH  24  26
ENDBRANCH   1  24
TORSDOF 8
ENDMDL
MODEL 4
REMARK VINA RESULT:      -5.8      9.116     12.394
REMARK  Name = 
REMARK  10 active torsions:
REMARK  status: ('A' for Active; 'I' for Inactive)
REMARK    1  A    between atoms: C_1  and  C_2
REMARK    2  A    between atoms: C_2  and  O_3
REMARK    3  A    between atoms: O_3  and  C_4
REMARK    4  A    between atoms: C_4  and  C_6
REMARK    5  A    between atoms: C_7  and  N_8
REMARK    6  A    between atoms: C_9  and  C_11
REMARK    7  A    between atoms: C_12  and  C_13
REMARK    8  A    between atoms: C_13  and  O_15
REMARK    9  A    between atoms: C_17  and  C_18
REMARK   10  A    between atoms: C_19  and  C_20
REMARK                            x       y       z     vdW  Elec       q    Type
REMARK                         _______ _______ _______ _____ _____    ______ ____
ROOT
ATOM      1  C   UNL     1       5.174   6.095  17.411  0.00  0.00    +0.000 A 
ATOM      2  C   UNL     1       6.286   6.630  16.773  0.00  0.00    +0.000 A 
ATOM      3  S   UNL     1       6.942   5.540  15.651  0.00  0.00    +0.000 S 
ATOM      4  C   UNL     1       5.705   4.393  15.868  0.00  0.00    +0.000 A 
ATOM      5  C   UNL     1       5.739   3.191  14.977  0.00  0.00    +0.000 C 
ATOM      6  C   UNL     1       4.840   4.764  16.892  0.00  0.00    +0.000 A 
ENDROOT
BRANCH   6   7
ATOM      7  C   UNL     1       3.723   3.915  17.342  0.00  0.00    +0.000 A 
ATOM      8  C   UNL     1       3.972   2.635  17.865  0.00  0.00    +0.000 A 
ATOM      9  C   UNL     1       2.938   1.864  18.407  0.00  0.00    +0.000 A 
ATOM     10  C   UNL     1       1.632   2.339  18.375  0.00  0.00    +0.000 A 
ATOM     11 CL   UNL     1       0.358   1.400  19.047  0.00  0.00    +0.000 Cl
ATOM     12  C   UNL     1       1.355   3.582  17.818  0.00  0.00    +0.000 A 
ATOM     13  C   UNL     1       2.398   4.375  17.330  0.00  0.00    +0.000 A 
ENDBRANCH   6   7
BRANCH   2  14
ATOM     14  N   UNL     1       6.896   7.878  16.950  0.00  0.00    +0.000 N 
ATOM     15  C   UNL     1       7.868   8.134  17.899  0.00  0.00    +0.000 C 
ATOM     16  O   UNL     1       8.356   7.332  18.691  0.00  0.00    +0.000 OA
ATOM     17  H   UNL     1       6.700   8.575  16.239  0.00  0.00    +0.000 HD
BRANCH  15  18
ATOM     18  C   UNL     1       8.413   9.518  17.874  0.00  0.00    +0.000 C 
ATOM     19  C   UNL     1       9.110   9.893  18.963  0.00  0.00    +0.000 C 
BRANCH  19  20
ATOM     20  C   UNL     1       9.701  11.232  19.080  0.00  0.00    +0.000 C 
ATOM     21  O   UNL     1       9.686  11.897  20.093  0.00  0.00    +0.000 OA
BRANCH  20  22
ATOM     22  O   UNL     1      10.252  11.644  17.911  0.00  0.00    +0.000 OA
ATOM     23  H   UNL     1      11.037  11.146  17.616  0.00  0.00    +0.000 HD
ENDBRANCH  20  22
ENDBRANCH  19  20
ENDBRANCH  15  18
ENDBRANCH   2  14
BRANCH   1  24
ATOM     24  C   UNL     1       4.357   6.836  18.368  0.00  0.00    +0.000 C 
ATOM     25  O   UNL     1       4.160   6.459  19.516  0.00  0.00    +0.000 OA
BRANCH  24  26
ATOM     26  O   UNL     1       3.784   7.959  17.832  0.00  0.00    +0.000 OA
BRANCH  26  28
ATOM     27  C   UNL     1       1.929   9.448  17.883  0.00  0.00    +0.000 C 
ATOM     28  C   UNL     1       2.355   7.995  17.949  0.00  0.00    +0.000 C 
ENDBRANCH  26  28
ENDBRANCH  24  26
ENDBRANCH   1  24
TORSDOF 8
ENDMDL
MODEL 5
REMARK VINA RESULT:      -5.8      0.611      1.288
REMARK  Name = 
REMARK  10 active torsions:
REMARK  status: ('A' for Active; 'I' for Inactive)
REMARK    1  A    between atoms: C_1  and  C_2
REMARK    2  A    between atoms: C_2  and  O_3
REMARK    3  A    between atoms: O_3  and  C_4
REMARK    4  A    between atoms: C_4  and  C_6
REMARK    5  A    between atoms: C_7  and  N_8
REMARK    6  A    between atoms: C_9  and  C_11
REMARK    7  A    between atoms: C_12  and  C_13
REMARK    8  A    between atoms: C_13  and  O_15
REMARK    9  A    between atoms: C_17  and  C_18
REMARK   10  A    between atoms: C_19  and  C_20
REMARK                            x       y       z     vdW  Elec       q    Type
REMARK                         _______ _______ _______ _____ _____    ______ ____
ROOT
ATOM      1  C   UNL     1      -3.430  12.399  19.370  0.00  0.00    +0.000 A 
ATOM      2  C   UNL     1      -4.100  11.999  18.221  0.00  0.00    +0.000 A 
ATOM      3  S   UNL     1      -5.776  12.209  18.375  0.00  0.00    +0.000 S 
ATOM      4  C   UNL     1      -5.659  12.960  19.898  0.00  0.00    +0.000 A 
ATOM      5  C   UNL     1      -6.930  13.481  20.489  0.00  0.00    +0.000 C 
ATOM      6  C   UNL     1      -4.352  12.948  20.372  0.00  0.00    +0.000 A 
ENDROOT
BRANCH   6   7
ATOM      7  C   UNL     1      -3.978  13.464  21.700  0.00  0.00    +0.000 A 
ATOM      8  C   UNL     1      -3.896  12.594  22.800  0.00  0.00    +0.000 A 
ATOM      9  C   UNL     1      -3.428  13.043  24.041  0.00  0.00    +0.000 A 
ATOM     10  C   UNL     1      -3.096  14.382  24.211  0.00  0.00    +0.000 A 
ATOM     11 CL   UNL     1      -2.512  14.938  25.730  0.00  0.00    +0.000 Cl
ATOM     12  C   UNL     1      -3.216  15.271  23.149  0.00  0.00    +0.000 A 
ATOM     13  C   UNL     1      -3.628  14.808  21.896  0.00  0.00    +0.000 A 
ENDBRANCH   6   7
BRANCH   2  14
ATOM     14  N   UNL     1      -3.585  11.465  17.034  0.00  0.00    +0.000 N 
ATOM     15  C   UNL     1      -3.270  10.130  16.861  0.00  0.00    +0.000 C 
ATOM     16  O   UNL     1      -3.411   9.227  17.681  0.00  0.00    +0.000 OA
ATOM     17  H   UNL     1      -3.587  12.083  16.228  0.00  0.00    +0.000 HD
BRANCH  15  18
ATOM     18  C   UNL     1      -2.785   9.776  15.501  0.00  0.00    +0.000 C 
ATOM     19  C   UNL     1      -3.621  10.069  14.487  0.00  0.00    +0.000 C 
BRANCH  19  20
ATOM     20  C   UNL     1      -3.278   9.770  13.091  0.00  0.00    +0.000 C 
ATOM     21  O   UNL     1      -2.167   9.465  12.713  0.00  0.00    +0.000 OA
BRANCH  20  22
ATOM     22  O   UNL     1      -4.350   9.894  12.270  0.00  0.00    +0.000 OA
ATOM     23  H   UNL     1      -4.383  10.711  11.738  0.00  0.00    +0.000 HD
ENDBRANCH  20  22
ENDBRANCH  19  20
ENDBRANCH  15  18
ENDBRANCH   2  14
BRANCH   1  24
ATOM     24  C   UNL     1      -1.975  12.408  19.496  0.00  0.00    +0.000 C 
ATOM     25  O   UNL     1      -1.304  13.431  19.460  0.00  0.00    +0.000 OA
BRANCH  24  26
ATOM     26  O   UNL     1      -1.435  11.153  19.595  0.00  0.00    +0.000 OA
BRANCH  26  28
ATOM     27  C   UNL     1       0.891  10.659  19.682  0.00  0.00    +0.000 C 
ATOM     28  C   UNL     1      -0.282  10.950  18.766  0.00  0.00    +0.000 C 
ENDBRANCH  26  28
ENDBRANCH  24  26
ENDBRANCH   1  24
TORSDOF 8
ENDMDL
MODEL 6
REMARK VINA RESULT:      -5.7      4.625      7.760
REMARK  Name = 
REMARK  10 active torsions:
REMARK  status: ('A' for Active; 'I' for Inactive)
REMARK    1  A    between atoms: C_1  and  C_2
REMARK    2  A    between atoms: C_2  and  O_3
REMARK    3  A    between atoms: O_3  and  C_4
REMARK    4  A    between atoms: C_4  and  C_6
REMARK    5  A    between atoms: C_7  and  N_8
REMARK    6  A    between atoms: C_9  and  C_11
REMARK    7  A    between atoms: C_12  and  C_13
REMARK    8  A    between atoms: C_13  and  O_15
REMARK    9  A    between atoms: C_17  and  C_18
REMARK   10  A    between atoms: C_19  and  C_20
REMARK                            x       y       z     vdW  Elec       q    Type
REMARK                         _______ _______ _______ _____ _____    ______ ____
ROOT
ATOM      1  C   UNL     1      -0.748  11.723  20.485  0.00  0.00    +0.000 A 
ATOM      2  C   UNL     1      -1.925  12.457  20.426  0.00  0.00    +0.000 A 
ATOM      3  S   UNL     1      -2.872  12.006  19.094  0.00  0.00    +0.000 S 
ATOM      4  C   UNL     1      -1.832  10.740  18.636  0.00  0.00    +0.000 A 
ATOM      5  C   UNL     1      -2.279   9.881  17.496  0.00  0.00    +0.000 C 
ATOM      6  C   UNL     1      -0.680  10.721  19.415  0.00  0.00    +0.000 A 
ENDROOT
BRANCH   6   7
ATOM      7  C   UNL     1       0.425   9.775  19.185  0.00  0.00    +0.000 A 
ATOM      8  C   UNL     1       0.760   8.825  20.165  0.00  0.00    +0.000 A 
ATOM      9  C   UNL     1       1.726   7.842  19.917  0.00  0.00    +0.000 A 
ATOM     10  C   UNL     1       2.412   7.837  18.708  0.00  0.00    +0.000 A 
ATOM     11 CL   UNL     1       3.593   6.628  18.394  0.00  0.00    +0.000 Cl
ATOM     12  C   UNL     1       2.132   8.797  17.743  0.00  0.00    +0.000 A 
ATOM     13  C   UNL     1       1.126   9.742  17.970  0.00  0.00    +0.000 A 
ENDBRANCH   6   7
BRANCH   2  14
ATOM     14  N   UNL     1      -2.383  13.470  21.277  0.00  0.00    +0.000 N 
ATOM     15  C   UNL     1      -3.378  13.295  22.221  0.00  0.00    +0.000 C 
ATOM     16  O   UNL     1      -3.977  12.253  22.476  0.00  0.00    +0.000 OA
ATOM     17  H   UNL     1      -1.843  14.330  21.279  0.00  0.00    +0.000 HD
BRANCH  15  18
ATOM     18  C   UNL     1      -3.668  14.494  23.050  0.00  0.00    +0.000 C 
ATOM     19  C   UNL     1      -2.847  15.545  22.868  0.00  0.00    +0.000 C 
BRANCH  19  20
ATOM     20  C   UNL     1      -3.010  16.795  23.622  0.00  0.00    +0.000 C 
ATOM     21  O   UNL     1      -2.631  17.879  23.234  0.00  0.00    +0.000 OA
BRANCH  20  22
ATOM     22  O   UNL     1      -3.623  16.588  24.814  0.00  0.00    +0.000 OA
ATOM     23  H   UNL     1      -3.619  17.346  25.428  0.00  0.00    +0.000 HD
ENDBRANCH  20  22
ENDBRANCH  19  20
ENDBRANCH  15  18
ENDBRANCH   2  14
BRANCH   1  24
ATOM     24  C   UNL     1       0.224  11.839  21.568  0.00  0.00    +0.000 C 
ATOM     25  O   UNL     1       1.427  11.968  21.381  0.00  0.00    +0.000 OA
BRANCH  24  26
ATOM     26  O   UNL     1      -0.339  11.726  22.812  0.00  0.00    +0.000 OA
BRANCH  26  28
ATOM     27  C   UNL     1       0.139   9.488  23.463  0.00  0.00    +0.000 C 
ATOM     28  C   UNL     1      -0.956  10.454  23.057  0.00  0.00    +0.000 C 
ENDBRANCH  26  28
ENDBRANCH  24  26
ENDBRANCH   1  24
TORSDOF 8
ENDMDL
MODEL 7
REMARK VINA RESULT:      -5.7      3.793      5.085
REMARK  Name = 
REMARK  10 active torsions:
REMARK  status: ('A' for Active; 'I' for Inactive)
REMARK    1  A    between atoms: C_1  and  C_2
REMARK    2  A    between atoms: C_2  and  O_3
REMARK    3  A    between atoms: O_3  and  C_4
REMARK    4  A    between atoms: C_4  and  C_6
REMARK    5  A    between atoms: C_7  and  N_8
REMARK    6  A    between atoms: C_9  and  C_11
REMARK    7  A    between atoms: C_12  and  C_13
REMARK    8  A    between atoms: C_13  and  O_15
REMARK    9  A    between atoms: C_17  and  C_18
REMARK   10  A    between atoms: C_19  and  C_20
REMARK                            x       y       z     vdW  Elec       q    Type
REMARK                         _______ _______ _______ _____ _____    ______ ____
ROOT
ATOM      1  C   UNL     1      -0.173  11.310  19.627  0.00  0.00    +0.000 A 
ATOM      2  C   UNL     1      -0.094  10.501  18.501  0.00  0.00    +0.000 A 
ATOM      3  S   UNL     1      -1.611  10.310  17.767  0.00  0.00    +0.000 S 
ATOM      4  C   UNL     1      -2.388  11.394  18.823  0.00  0.00    +0.000 A 
ATOM      5  C   UNL     1      -3.824  11.698  18.537  0.00  0.00    +0.000 C 
ATOM      6  C   UNL     1      -1.532  11.823  19.832  0.00  0.00    +0.000 A 
ENDROOT
BRANCH   6   7
ATOM      7  C   UNL     1      -1.967  12.708  20.926  0.00  0.00    +0.000 A 
ATOM      8  C   UNL     1      -2.097  14.090  20.710  0.00  0.00    +0.000 A 
ATOM      9  C   UNL     1      -2.622  14.930  21.700  0.00  0.00    +0.000 A 
ATOM     10  C   UNL     1      -2.965  14.404  22.940  0.00  0.00    +0.000 A 
ATOM     11 CL   UNL     1      -3.619  15.428  24.157  0.00  0.00    +0.000 Cl
ATOM     12  C   UNL     1      -2.799  13.048  23.194  0.00  0.00    +0.000 A 
ATOM     13  C   UNL     1      -2.329  12.202  22.183  0.00  0.00    +0.000 A 
ENDBRANCH   6   7
BRANCH   2  14
ATOM     14  N   UNL     1       1.018   9.856  17.947  0.00  0.00    +0.000 N 
ATOM     15  C   UNL     1       1.731   8.859  18.587  0.00  0.00    +0.000 C 
ATOM     16  O   UNL     1       1.494   8.377  19.691  0.00  0.00    +0.000 OA
ATOM     17  H   UNL     1       1.205  10.049  16.968  0.00  0.00    +0.000 HD
BRANCH  15  18
ATOM     18  C   UNL     1       2.845   8.280  17.790  0.00  0.00    +0.000 C 
ATOM     19  C   UNL     1       3.155   6.999  18.062  0.00  0.00    +0.000 C 
BRANCH  19  20
ATOM     20  C   UNL     1       4.236   6.298  17.358  0.00  0.00    +0.000 C 
ATOM     21  O   UNL     1       4.176   5.144  16.993  0.00  0.00    +0.000 OA
BRANCH  20  22
ATOM     22  O   UNL     1       5.320   7.094  17.178  0.00  0.00    +0.000 OA
ATOM     23  H   UNL     1       5.885   6.872  16.415  0.00  0.00    +0.000 HD
ENDBRANCH  20  22
ENDBRANCH  19  20
ENDBRANCH  15  18
ENDBRANCH   2  14
BRANCH   1  24
ATOM     24  C   UNL     1       0.988  11.716  20.414  0.00  0.00    +0.000 C 
ATOM     25  O   UNL     1       1.174  11.359  21.571  0.00  0.00    +0.000 OA
BRANCH  24  26
ATOM     26  O   UNL     1       1.813  12.585  19.750  0.00  0.00    +0.000 OA
BRANCH  26  28
ATOM     27  C   UNL     1       1.204  14.706  18.860  0.00  0.00    +0.000 C 
ATOM     28  C   UNL     1       1.622  13.959  20.112  0.00  0.00    +0.000 C 
ENDBRANCH  26  28
ENDBRANCH  24  26
ENDBRANCH   1  24
TORSDOF 8
ENDMDL
MODEL 8
REMARK VINA RESULT:      -5.7      2.491      3.932
REMARK  Name = 
REMARK  10 active torsions:
REMARK  status: ('A' for Active; 'I' for Inactive)
REMARK    1  A    between atoms: C_1  and  C_2
REMARK    2  A    between atoms: C_2  and  O_3
REMARK    3  A    between atoms: O_3  and  C_4
REMARK    4  A    between atoms: C_4  and  C_6
REMARK    5  A    between atoms: C_7  and  N_8
REMARK    6  A    between atoms: C_9  and  C_11
REMARK    7  A    between atoms: C_12  and  C_13
REMARK    8  A    between atoms: C_13  and  O_15
REMARK    9  A    between atoms: C_17  and  C_18
REMARK   10  A    between atoms: C_19  and  C_20
REMARK                            x       y       z     vdW  Elec       q    Type
REMARK                         _______ _______ _______ _____ _____    ______ ____
ROOT
ATOM      1  C   UNL     1      -4.300  12.231  18.489  0.00  0.00    +0.000 A 
ATOM      2  C   UNL     1      -3.144  11.871  17.808  0.00  0.00    +0.000 A 
ATOM      3  S   UNL     1      -1.784  11.935  18.819  0.00  0.00    +0.000 S 
ATOM      4  C   UNL     1      -2.690  12.298  20.211  0.00  0.00    +0.000 A 
ATOM      5  C   UNL     1      -1.940  12.363  21.504  0.00  0.00    +0.000 C 
ATOM      6  C   UNL     1      -4.031  12.504  19.906  0.00  0.00    +0.000 A 
ENDROOT
BRANCH   6   7
ATOM      7  C   UNL     1      -5.028  12.907  20.913  0.00  0.00    +0.000 A 
ATOM      8  C   UNL     1      -6.053  12.023  21.288  0.00  0.00    +0.000 A 
ATOM      9  C   UNL     1      -6.936  12.341  22.327  0.00  0.00    +0.000 A 
ATOM     10  C   UNL     1      -6.841  13.575  22.960  0.00  0.00    +0.000 A 
ATOM     11 CL   UNL     1      -7.917  13.968  24.243  0.00  0.00    +0.000 Cl
ATOM     12  C   UNL     1      -5.865  14.486  22.573  0.00  0.00    +0.000 A 
ATOM     13  C   UNL     1      -4.948  14.141  21.575  0.00  0.00    +0.000 A 
ENDBRANCH   6   7
BRANCH   2  14
ATOM     14  N   UNL     1      -2.983  11.502  16.467  0.00  0.00    +0.000 N 
ATOM     15  C   UNL     1      -3.099  10.204  16.005  0.00  0.00    +0.000 C 
ATOM     16  O   UNL     1      -3.381   9.208  16.667  0.00  0.00    +0.000 OA
ATOM     17  H   UNL     1      -2.918  12.263  15.799  0.00  0.00    +0.000 HD
BRANCH  15  18
ATOM     18  C   UNL     1      -2.939  10.050  14.535  0.00  0.00    +0.000 C 
ATOM     19  C   UNL     1      -4.080   9.928  13.831  0.00  0.00    +0.000 C 
BRANCH  19  20
ATOM     20  C   UNL     1      -4.074   9.764  12.372  0.00  0.00    +0.000 C 
ATOM     21  O   UNL     1      -5.074   9.711  11.688  0.00  0.00    +0.000 OA
BRANCH  20  22
ATOM     22  O   UNL     1      -2.814   9.660  11.880  0.00  0.00    +0.000 OA
ATOM     23  H   UNL     1      -2.652   8.903  11.288  0.00  0.00    +0.000 HD
ENDBRANCH  20  22
ENDBRANCH  19  20
ENDBRANCH  15  18
ENDBRANCH   2  14
BRANCH   1  24
ATOM     24  C   UNL     1      -5.634  12.191  17.896  0.00  0.00    +0.000 C 
ATOM     25  O   UNL     1      -6.311  11.172  17.835  0.00  0.00    +0.000 OA
BRANCH  24  26
ATOM     26  O   UNL     1      -6.022  13.390  17.361  0.00  0.00    +0.000 OA
BRANCH  26  28
ATOM     27  C   UNL     1      -7.795  14.732  18.208  0.00  0.00    +0.000 C 
ATOM     28  C   UNL     1      -7.444  13.568  17.303  0.00  0.00    +0.000 C 
ENDBRANCH  26  28
ENDBRANCH  24  26
ENDBRANCH   1  24
TORSDOF 8
ENDMDL
MODEL 9
REMARK VINA RESULT:      -5.7      3.706      4.846
REMARK  Name = 
REMARK  10 active torsions:
REMARK  status: ('A' for Active; 'I' for Inactive)
REMARK    1  A    between atoms: C_1  and  C_2
REMARK    2  A    between atoms: C_2  and  O_3
REMARK    3  A    between atoms: O_3  and  C_4
REMARK    4  A    between atoms: C_4  and  C_6
REMARK    5  A    between atoms: C_7  and  N_8
REMARK    6  A    between atoms: C_9  and  C_11
REMARK    7  A    between atoms: C_12  and  C_13
REMARK    8  A    between atoms: C_13  and  O_15
REMARK    9  A    between atoms: C_17  and  C_18
REMARK   10  A    between atoms: C_19  and  C_20
REMARK                            x       y       z     vdW  Elec       q    Type
REMARK                         _______ _______ _______ _____ _____    ______ ____
ROOT
ATOM      1  C   UNL     1      -0.349  11.420  19.585  0.00  0.00    +0.000 A 
ATOM      2  C   UNL     1      -0.210  10.591  18.480  0.00  0.00    +0.000 A 
ATOM      3  S   UNL     1      -1.698  10.332  17.707  0.00  0.00    +0.000 S 
ATOM      4  C   UNL     1      -2.542  11.411  18.715  0.00  0.00    +0.000 A 
ATOM      5  C   UNL     1      -3.978  11.660  18.380  0.00  0.00    +0.000 C 
ATOM      6  C   UNL     1      -1.731  11.891  19.739  0.00  0.00    +0.000 A 
ENDROOT
BRANCH   6   7
ATOM      7  C   UNL     1      -2.228  12.783  20.800  0.00  0.00    +0.000 A 
ATOM      8  C   UNL     1      -2.108  14.177  20.666  0.00  0.00    +0.000 A 
ATOM      9  C   UNL     1      -2.680  15.044  21.606  0.00  0.00    +0.000 A 
ATOM     10  C   UNL     1      -3.324  14.524  22.722  0.00  0.00    +0.000 A 
ATOM     11 CL   UNL     1      -4.036  15.583  23.875  0.00  0.00    +0.000 Cl
ATOM     12  C   UNL     1      -3.412  13.148  22.901  0.00  0.00    +0.000 A 
ATOM     13  C   UNL     1      -2.891  12.285  21.931  0.00  0.00    +0.000 A 
ENDBRANCH   6   7
BRANCH   2  14
ATOM     14  N   UNL     1       0.939   9.973  17.973  0.00  0.00    +0.000 N 
ATOM     15  C   UNL     1       1.591   8.925  18.596  0.00  0.00    +0.000 C 
ATOM     16  O   UNL     1       1.262   8.369  19.640  0.00  0.00    +0.000 OA
ATOM     17  H   UNL     1       1.206  10.232  17.028  0.00  0.00    +0.000 HD
BRANCH  15  18
ATOM     18  C   UNL     1       2.762   8.390  17.852  0.00  0.00    +0.000 C 
ATOM     19  C   UNL     1       3.041   7.089  18.057  0.00  0.00    +0.000 C 
BRANCH  19  20
ATOM     20  C   UNL     1       4.172   6.427  17.394  0.00  0.00    +0.000 C 
ATOM     21  O   UNL     1       5.163   7.002  17.001  0.00  0.00    +0.000 OA
BRANCH  20  22
ATOM     22  O   UNL     1       3.966   5.093  17.258  0.00  0.00    +0.000 OA
ATOM     23  H   UNL     1       4.763   4.558  17.085  0.00  0.00    +0.000 HD
ENDBRANCH  20  22
ENDBRANCH  19  20
ENDBRANCH  15  18
ENDBRANCH   2  14
BRANCH   1  24
ATOM     24  C   UNL     1       0.773  11.882  20.396  0.00  0.00    +0.000 C 
ATOM     25  O   UNL     1       1.767  12.419  19.923  0.00  0.00    +0.000 OA
BRANCH  24  26
ATOM     26  O   UNL     1       0.630  11.596  21.728  0.00  0.00    +0.000 OA
BRANCH  26  28
ATOM     27  C   UNL     1      -0.435   9.987  23.120  0.00  0.00    +0.000 C 
ATOM     28  C   UNL     1       0.588  10.193  22.020  0.00  0.00    +0.000 C 
ENDBRANCH  26  28
ENDBRANCH  24  26
ENDBRANCH   1  24
TORSDOF 8
ENDMDL
