MODEL 1
REMARK VINA RESULT:      -9.3      0.000      0.000
REMARK  Name = 
REMARK  8 active torsions:
REMARK  status: ('A' for Active; 'I' for Inactive)
REMARK    1  A    between atoms: C_1  and  C_2
REMARK    2  A    between atoms: C_2  and  C_3
REMARK    3  A    between atoms: C_6  and  C_7
REMARK    4  A    between atoms: C_7  and  O_8
REMARK    5  A    between atoms: O_8  and  C_9
REMARK    6  A    between atoms: C_20  and  N_21
REMARK    7  A    between atoms: N_21  and  C_22
REMARK    8  A    between atoms: C_27  and  N_28
REMARK                            x       y       z     vdW  Elec       q    Type
REMARK                         _______ _______ _______ _____ _____    ______ ____
ROOT
ATOM      1  C   UNL     1       1.941   7.035  19.441  0.00  0.00    +0.000 A 
ATOM      2  C   UNL     1       2.092   7.603  18.180  0.00  0.00    +0.000 A 
ATOM      3  C   UNL     1       1.800   8.953  17.974  0.00  0.00    +0.000 A 
ATOM      4  C   UNL     1       1.358   9.755  19.039  0.00  0.00    +0.000 A 
ATOM      5  C   UNL     1       1.243   9.191  20.311  0.00  0.00    +0.000 A 
ATOM      6  C   UNL     1       1.564   7.840  20.516  0.00  0.00    +0.000 A 
ATOM      7  C   UNL     1       0.838   9.964  21.499  0.00  0.00    +0.000 C 
ATOM      8  O   UNL     1       1.483   9.788  22.534  0.00  0.00    +0.000 OA
ATOM      9  C   UNL     1      -0.365  10.851  21.532  0.00  0.00    +0.000 A 
ATOM     10  C   UNL     1      -0.930  11.046  22.811  0.00  0.00    +0.000 A 
ATOM     11  C   UNL     1      -2.066  11.838  23.000  0.00  0.00    +0.000 A 
ATOM     12  C   UNL     1      -2.674  12.468  21.919  0.00  0.00    +0.000 A 
ATOM     13  C   UNL     1      -2.133  12.246  20.646  0.00  0.00    +0.000 A 
ATOM     14  C   UNL     1      -0.964  11.476  20.429  0.00  0.00    +0.000 A 
ATOM     15  C   UNL     1      -0.484  11.413  18.998  0.00  0.00    +0.000 C 
ATOM     16  C   UNL     1       1.011  11.194  18.802  0.00  0.00    +0.000 C 
ENDROOT
BRANCH  12  17
ATOM     17  N   UNL     1      -3.812  13.262  22.110  0.00  0.00    +0.000 N 
ATOM     18  H   UNL     1      -3.666  14.263  22.197  0.00  0.00    +0.000 HD
BRANCH  17  19
ATOM     19  C   UNL     1      -5.156  12.894  22.339  0.00  0.00    +0.000 A 
ATOM     20  C   UNL     1      -5.985  12.472  21.289  0.00  0.00    +0.000 A 
ATOM     21  C   UNL     1      -7.304  12.086  21.533  0.00  0.00    +0.000 A 
ATOM     22  C   UNL     1      -7.810  12.123  22.827  0.00  0.00    +0.000 A 
ATOM     23  C   UNL     1      -7.003  12.550  23.881  0.00  0.00    +0.000 A 
ATOM     24  C   UNL     1      -5.692  12.985  23.643  0.00  0.00    +0.000 A 
BRANCH  24  25
ATOM     25  N   UNL     1      -4.867  13.336  24.736  0.00  0.00    +0.000 N 
ATOM     26  H   UNL     1      -5.213  14.140  25.251  0.00  0.00    +0.000 HD
ATOM     27  H   UNL     1      -3.908  13.478  24.425  0.00  0.00    +0.000 HD
ENDBRANCH  24  25
ENDBRANCH  17  19
ENDBRANCH  12  17
BRANCH   1  28
ATOM     28  O   UNL     1       2.185   5.692  19.517  0.00  0.00    +0.000 OA
BRANCH  28  29
ATOM     29  C   UNL     1       3.125   5.210  18.557  0.00  0.00    +0.000 C 
BRANCH  29  35
ATOM     30  C   UNL     1       6.039   5.208  16.320  0.00  0.00    +0.000 C 
ATOM     31  C   UNL     1       6.379   5.564  17.766  0.00  0.00    +0.000 C 
ATOM     32  C   UNL     1       7.629   6.429  17.826  0.00  0.00    +0.000 C 
ATOM     33  O   UNL     1       6.595   4.374  18.525  0.00  0.00    +0.000 OA
ATOM     34  C   UNL     1       5.315   4.030  19.056  0.00  0.00    +0.000 C 
ATOM     35  C   UNL     1       4.541   5.332  19.109  0.00  0.00    +0.000 C 
ATOM     36  O   UNL     1       5.280   6.280  18.327  0.00  0.00    +0.000 OA
ENDBRANCH  29  35
ENDBRANCH  28  29
ENDBRANCH   1  28
TORSDOF 6
ENDMDL
MODEL 2
REMARK VINA RESULT:      -9.3      1.865      2.286
REMARK  Name = 
REMARK  8 active torsions:
REMARK  status: ('A' for Active; 'I' for Inactive)
REMARK    1  A    between atoms: C_1  and  C_2
REMARK    2  A    between atoms: C_2  and  C_3
REMARK    3  A    between atoms: C_6  and  C_7
REMARK    4  A    between atoms: C_7  and  O_8
REMARK    5  A    between atoms: O_8  and  C_9
REMARK    6  A    between atoms: C_20  and  N_21
REMARK    7  A    between atoms: N_21  and  C_22
REMARK    8  A    between atoms: C_27  and  N_28
REMARK                            x       y       z     vdW  Elec       q    Type
REMARK                         _______ _______ _______ _____ _____    ______ ____
ROOT
ATOM      1  C   UNL     1       2.073   7.000  19.784  0.00  0.00    +0.000 A 
ATOM      2  C   UNL     1       2.206   7.441  18.472  0.00  0.00    +0.000 A 
ATOM      3  C   UNL     1       1.854   8.748  18.127  0.00  0.00    +0.000 A 
ATOM      4  C   UNL     1       1.371   9.634  19.102  0.00  0.00    +0.000 A 
ATOM      5  C   UNL     1       1.274   9.200  20.426  0.00  0.00    +0.000 A 
ATOM      6  C   UNL     1       1.655   7.893  20.769  0.00  0.00    +0.000 A 
ATOM      7  C   UNL     1       0.828  10.072  21.527  0.00  0.00    +0.000 C 
ATOM      8  O   UNL     1       1.475  10.034  22.576  0.00  0.00    +0.000 OA
ATOM      9  C   UNL     1      -0.413  10.902  21.468  0.00  0.00    +0.000 A 
ATOM     10  C   UNL     1      -0.994  11.202  22.719  0.00  0.00    +0.000 A 
ATOM     11  C   UNL     1      -2.165  11.958  22.824  0.00  0.00    +0.000 A 
ATOM     12  C   UNL     1      -2.794  12.446  21.683  0.00  0.00    +0.000 A 
ATOM     13  C   UNL     1      -2.237  12.118  20.440  0.00  0.00    +0.000 A 
ATOM     14  C   UNL     1      -1.034  11.382  20.305  0.00  0.00    +0.000 A 
ATOM     15  C   UNL     1      -0.543  11.195  18.889  0.00  0.00    +0.000 C 
ATOM     16  C   UNL     1       0.962  11.024  18.718  0.00  0.00    +0.000 C 
ENDROOT
BRANCH  12  17
ATOM     17  N   UNL     1      -3.967  13.203  21.790  0.00  0.00    +0.000 N 
ATOM     18  H   UNL     1      -3.867  14.213  21.776  0.00  0.00    +0.000 HD
BRANCH  17  19
ATOM     19  C   UNL     1      -5.296  12.800  22.051  0.00  0.00    +0.000 A 
ATOM     20  C   UNL     1      -6.092  12.222  21.051  0.00  0.00    +0.000 A 
ATOM     21  C   UNL     1      -7.394  11.803  21.328  0.00  0.00    +0.000 A 
ATOM     22  C   UNL     1      -7.916  11.964  22.607  0.00  0.00    +0.000 A 
ATOM     23  C   UNL     1      -7.142  12.546  23.611  0.00  0.00    +0.000 A 
ATOM     24  C   UNL     1      -5.850  13.013  23.332  0.00  0.00    +0.000 A 
BRANCH  24  25
ATOM     25  N   UNL     1      -5.056  13.525  24.384  0.00  0.00    +0.000 N 
ATOM     26  H   UNL     1      -4.272  12.921  24.617  0.00  0.00    +0.000 HD
ATOM     27  H   UNL     1      -5.631  13.720  25.200  0.00  0.00    +0.000 HD
ENDBRANCH  24  25
ENDBRANCH  17  19
ENDBRANCH  12  17
BRANCH   1  28
ATOM     28  O   UNL     1       2.377   5.684  19.998  0.00  0.00    +0.000 OA
BRANCH  28  29
ATOM     29  C   UNL     1       1.284   4.898  20.474  0.00  0.00    +0.000 C 
BRANCH  29  35
ATOM     30  C   UNL     1       2.679   3.806  17.256  0.00  0.00    +0.000 C 
ATOM     31  C   UNL     1       2.615   2.695  18.302  0.00  0.00    +0.000 C 
ATOM     32  C   UNL     1       3.678   1.640  18.031  0.00  0.00    +0.000 C 
ATOM     33  O   UNL     1       1.327   2.079  18.284  0.00  0.00    +0.000 OA
ATOM     34  C   UNL     1       0.545   2.818  19.221  0.00  0.00    +0.000 C 
ATOM     35  C   UNL     1       1.544   3.422  20.189  0.00  0.00    +0.000 C 
ATOM     36  O   UNL     1       2.837   3.271  19.589  0.00  0.00    +0.000 OA
ENDBRANCH  29  35
ENDBRANCH  28  29
ENDBRANCH   1  28
TORSDOF 6
ENDMDL
MODEL 3
REMARK VINA RESULT:      -9.3      0.801      1.361
REMARK  Name = 
REMARK  8 active torsions:
REMARK  status: ('A' for Active; 'I' for Inactive)
REMARK    1  A    between atoms: C_1  and  C_2
REMARK    2  A    between atoms: C_2  and  C_3
REMARK    3  A    between atoms: C_6  and  C_7
REMARK    4  A    between atoms: C_7  and  O_8
REMARK    5  A    between atoms: O_8  and  C_9
REMARK    6  A    between atoms: C_20  and  N_21
REMARK    7  A    between atoms: N_21  and  C_22
REMARK    8  A    between atoms: C_27  and  N_28
REMARK                            x       y       z     vdW  Elec       q    Type
REMARK                         _______ _______ _______ _____ _____    ______ ____
ROOT
ATOM      1  C   UNL     1       2.059   7.123  19.559  0.00  0.00    +0.000 A 
ATOM      2  C   UNL     1       2.252   7.676  18.297  0.00  0.00    +0.000 A 
ATOM      3  C   UNL     1       1.940   9.016  18.059  0.00  0.00    +0.000 A 
ATOM      4  C   UNL     1       1.437   9.823  19.092  0.00  0.00    +0.000 A 
ATOM      5  C   UNL     1       1.279   9.275  20.366  0.00  0.00    +0.000 A 
ATOM      6  C   UNL     1       1.619   7.934  20.604  0.00  0.00    +0.000 A 
ATOM      7  C   UNL     1       0.807  10.055  21.524  0.00  0.00    +0.000 C 
ATOM      8  O   UNL     1       1.411   9.908  22.588  0.00  0.00    +0.000 OA
ATOM      9  C   UNL     1      -0.415  10.916  21.492  0.00  0.00    +0.000 A 
ATOM     10  C   UNL     1      -1.038  11.116  22.743  0.00  0.00    +0.000 A 
ATOM     11  C   UNL     1      -2.198  11.887  22.872  0.00  0.00    +0.000 A 
ATOM     12  C   UNL     1      -2.772  12.489  21.756  0.00  0.00    +0.000 A 
ATOM     13  C   UNL     1      -2.172  12.260  20.511  0.00  0.00    +0.000 A 
ATOM     14  C   UNL     1      -0.979  11.512  20.355  0.00  0.00    +0.000 A 
ATOM     15  C   UNL     1      -0.436  11.440  18.947  0.00  0.00    +0.000 C 
ATOM     16  C   UNL     1       1.070  11.251  18.818  0.00  0.00    +0.000 C 
ENDROOT
BRANCH  12  17
ATOM     17  N   UNL     1      -3.933  13.260  21.886  0.00  0.00    +0.000 N 
ATOM     18  H   UNL     1      -3.835  14.264  21.769  0.00  0.00    +0.000 HD
BRANCH  17  19
ATOM     19  C   UNL     1      -5.235  12.892  22.292  0.00  0.00    +0.000 A 
ATOM     20  C   UNL     1      -5.642  13.009  23.629  0.00  0.00    +0.000 A 
ATOM     21  C   UNL     1      -6.941  12.667  24.012  0.00  0.00    +0.000 A 
ATOM     22  C   UNL     1      -7.843  12.199  23.064  0.00  0.00    +0.000 A 
ATOM     23  C   UNL     1      -7.452  12.067  21.731  0.00  0.00    +0.000 A 
ATOM     24  C   UNL     1      -6.138  12.362  21.343  0.00  0.00    +0.000 A 
BRANCH  24  25
ATOM     25  N   UNL     1      -5.787  12.299  19.975  0.00  0.00    +0.000 N 
ATOM     26  H   UNL     1      -4.802  12.103  19.828  0.00  0.00    +0.000 HD
ATOM     27  H   UNL     1      -6.073  13.150  19.496  0.00  0.00    +0.000 HD
ENDBRANCH  24  25
ENDBRANCH  17  19
ENDBRANCH  12  17
BRANCH   1  28
ATOM     28  O   UNL     1       2.328   5.786  19.665  0.00  0.00    +0.000 OA
BRANCH  28  29
ATOM     29  C   UNL     1       2.769   5.177  18.452  0.00  0.00    +0.000 C 
BRANCH  29  35
ATOM     30  C   UNL     1       5.849   6.797  17.278  0.00  0.00    +0.000 C 
ATOM     31  C   UNL     1       6.100   5.576  18.163  0.00  0.00    +0.000 C 
ATOM     32  C   UNL     1       7.445   5.688  18.863  0.00  0.00    +0.000 C 
ATOM     33  O   UNL     1       6.078   4.387  17.373  0.00  0.00    +0.000 OA
ATOM     34  C   UNL     1       4.720   3.950  17.391  0.00  0.00    +0.000 C 
ATOM     35  C   UNL     1       4.131   4.524  18.664  0.00  0.00    +0.000 C 
ATOM     36  O   UNL     1       5.062   5.505  19.139  0.00  0.00    +0.000 OA
ENDBRANCH  29  35
ENDBRANCH  28  29
ENDBRANCH   1  28
TORSDOF 6
ENDMDL
MODEL 4
REMARK VINA RESULT:      -9.3      1.277      1.965
REMARK  Name = 
REMARK  8 active torsions:
REMARK  status: ('A' for Active; 'I' for Inactive)
REMARK    1  A    between atoms: C_1  and  C_2
REMARK    2  A    between atoms: C_2  and  C_3
REMARK    3  A    between atoms: C_6  and  C_7
REMARK    4  A    between atoms: C_7  and  O_8
REMARK    5  A    between atoms: O_8  and  C_9
REMARK    6  A    between atoms: C_20  and  N_21
REMARK    7  A    between atoms: N_21  and  C_22
REMARK    8  A    between atoms: C_27  and  N_28
REMARK                            x       y       z     vdW  Elec       q    Type
REMARK                         _______ _______ _______ _____ _____    ______ ____
ROOT
ATOM      1  C   UNL     1       2.033   7.486  19.241  0.00  0.00    +0.000 A 
ATOM      2  C   UNL     1       2.219   8.126  18.020  0.00  0.00    +0.000 A 
ATOM      3  C   UNL     1       1.895   9.477  17.874  0.00  0.00    +0.000 A 
ATOM      4  C   UNL     1       1.385  10.207  18.960  0.00  0.00    +0.000 A 
ATOM      5  C   UNL     1       1.235   9.571  20.194  0.00  0.00    +0.000 A 
ATOM      6  C   UNL     1       1.588   8.220  20.339  0.00  0.00    +0.000 A 
ATOM      7  C   UNL     1       0.757  10.266  21.403  0.00  0.00    +0.000 C 
ATOM      8  O   UNL     1       1.364  10.052  22.454  0.00  0.00    +0.000 OA
ATOM      9  C   UNL     1      -0.473  11.115  21.432  0.00  0.00    +0.000 A 
ATOM     10  C   UNL     1      -1.096  11.224  22.693  0.00  0.00    +0.000 A 
ATOM     11  C   UNL     1      -2.262  11.973  22.876  0.00  0.00    +0.000 A 
ATOM     12  C   UNL     1      -2.843  12.645  21.805  0.00  0.00    +0.000 A 
ATOM     13  C   UNL     1      -2.243  12.508  20.546  0.00  0.00    +0.000 A 
ATOM     14  C   UNL     1      -1.044  11.783  20.338  0.00  0.00    +0.000 A 
ATOM     15  C   UNL     1      -0.502  11.813  18.929  0.00  0.00    +0.000 C 
ATOM     16  C   UNL     1       1.005  11.647  18.786  0.00  0.00    +0.000 C 
ENDROOT
BRANCH  12  17
ATOM     17  N   UNL     1      -4.011  13.395  21.988  0.00  0.00    +0.000 N 
ATOM     18  H   UNL     1      -3.913  14.405  22.000  0.00  0.00    +0.000 HD
BRANCH  17  19
ATOM     19  C   UNL     1      -5.325  12.980  22.300  0.00  0.00    +0.000 A 
ATOM     20  C   UNL     1      -6.169  12.439  21.320  0.00  0.00    +0.000 A 
ATOM     21  C   UNL     1      -7.457  12.008  21.646  0.00  0.00    +0.000 A 
ATOM     22  C   UNL     1      -7.915  12.121  22.954  0.00  0.00    +0.000 A 
ATOM     23  C   UNL     1      -7.092  12.667  23.939  0.00  0.00    +0.000 A 
ATOM     24  C   UNL     1      -5.815  13.145  23.615  0.00  0.00    +0.000 A 
BRANCH  24  25
ATOM     25  N   UNL     1      -4.969  13.620  24.643  0.00  0.00    +0.000 N 
ATOM     26  H   UNL     1      -4.051  13.893  24.305  0.00  0.00    +0.000 HD
ATOM     27  H   UNL     1      -4.901  12.932  25.391  0.00  0.00    +0.000 HD
ENDBRANCH  24  25
ENDBRANCH  17  19
ENDBRANCH  12  17
BRANCH   1  28
ATOM     28  O   UNL     1       2.314   6.148  19.254  0.00  0.00    +0.000 OA
BRANCH  28  29
ATOM     29  C   UNL     1       2.389   5.549  17.961  0.00  0.00    +0.000 C 
BRANCH  29  35
ATOM     30  C   UNL     1       2.304   2.520  20.036  0.00  0.00    +0.000 C 
ATOM     31  C   UNL     1       3.439   2.528  19.014  0.00  0.00    +0.000 C 
ATOM     32  C   UNL     1       3.840   1.108  18.647  0.00  0.00    +0.000 C 
ATOM     33  O   UNL     1       4.573   3.213  19.548  0.00  0.00    +0.000 OA
ATOM     34  C   UNL     1       4.401   4.577  19.163  0.00  0.00    +0.000 C 
ATOM     35  C   UNL     1       3.530   4.537  17.923  0.00  0.00    +0.000 C 
ATOM     36  O   UNL     1       2.991   3.211  17.845  0.00  0.00    +0.000 OA
ENDBRANCH  29  35
ENDBRANCH  28  29
ENDBRANCH   1  28
TORSDOF 6
ENDMDL
MODEL 5
REMARK VINA RESULT:      -9.0      0.810      1.095
REMARK  Name = 
REMARK  8 active torsions:
REMARK  status: ('A' for Active; 'I' for Inactive)
REMARK    1  A    between atoms: C_1  and  C_2
REMARK    2  A    between atoms: C_2  and  C_3
REMARK    3  A    between atoms: C_6  and  C_7
REMARK    4  A    between atoms: C_7  and  O_8
REMARK    5  A    between atoms: O_8  and  C_9
REMARK    6  A    between atoms: C_20  and  N_21
REMARK    7  A    between atoms: N_21  and  C_22
REMARK    8  A    between atoms: C_27  and  N_28
REMARK                            x       y       z     vdW  Elec       q    Type
REMARK                         _______ _______ _______ _____ _____    ______ ____
ROOT
ATOM      1  C   UNL     1       1.880   7.201  19.328  0.00  0.00    +0.000 A 
ATOM      2  C   UNL     1       2.047   7.869  18.119  0.00  0.00    +0.000 A 
ATOM      3  C   UNL     1       1.766   9.234  18.022  0.00  0.00    +0.000 A 
ATOM      4  C   UNL     1       1.319   9.950  19.144  0.00  0.00    +0.000 A 
ATOM      5  C   UNL     1       1.187   9.284  20.365  0.00  0.00    +0.000 A 
ATOM      6  C   UNL     1       1.497   7.919  20.461  0.00  0.00    +0.000 A 
ATOM      7  C   UNL     1       0.776   9.960  21.608  0.00  0.00    +0.000 C 
ATOM      8  O   UNL     1       1.409   9.695  22.632  0.00  0.00    +0.000 OA
ATOM      9  C   UNL     1      -0.422  10.850  21.703  0.00  0.00    +0.000 A 
ATOM     10  C   UNL     1      -0.998  10.944  22.987  0.00  0.00    +0.000 A 
ATOM     11  C   UNL     1      -2.130  11.727  23.230  0.00  0.00    +0.000 A 
ATOM     12  C   UNL     1      -2.723  12.449  22.199  0.00  0.00    +0.000 A 
ATOM     13  C   UNL     1      -2.171  12.327  20.917  0.00  0.00    +0.000 A 
ATOM     14  C   UNL     1      -1.005  11.568  20.648  0.00  0.00    +0.000 A 
ATOM     15  C   UNL     1      -0.510  11.619  19.222  0.00  0.00    +0.000 C 
ATOM     16  C   UNL     1       0.985  11.406  19.023  0.00  0.00    +0.000 C 
ENDROOT
BRANCH  12  17
ATOM     17  N   UNL     1      -3.857  13.233  22.443  0.00  0.00    +0.000 N 
ATOM     18  H   UNL     1      -3.700  14.202  22.704  0.00  0.00    +0.000 HD
BRANCH  17  19
ATOM     19  C   UNL     1      -5.220  12.871  22.520  0.00  0.00    +0.000 A 
ATOM     20  C   UNL     1      -5.990  12.684  21.363  0.00  0.00    +0.000 A 
ATOM     21  C   UNL     1      -7.330  12.300  21.452  0.00  0.00    +0.000 A 
ATOM     22  C   UNL     1      -7.914  12.107  22.698  0.00  0.00    +0.000 A 
ATOM     23  C   UNL     1      -7.166  12.299  23.859  0.00  0.00    +0.000 A 
ATOM     24  C   UNL     1      -5.834  12.729  23.784  0.00  0.00    +0.000 A 
BRANCH  24  25
ATOM     25  N   UNL     1      -5.072  12.839  24.970  0.00  0.00    +0.000 N 
ATOM     26  H   UNL     1      -4.109  13.114  24.797  0.00  0.00    +0.000 HD
ATOM     27  H   UNL     1      -5.121  11.974  25.504  0.00  0.00    +0.000 HD
ENDBRANCH  24  25
ENDBRANCH  17  19
ENDBRANCH  12  17
BRANCH   1  28
ATOM     28  O   UNL     1       2.113   5.855  19.295  0.00  0.00    +0.000 OA
BRANCH  28  29
ATOM     29  C   UNL     1       3.367   5.461  19.852  0.00  0.00    +0.000 C 
BRANCH  29  35
ATOM     30  C   UNL     1       4.073   2.853  17.364  0.00  0.00    +0.000 C 
ATOM     31  C   UNL     1       4.818   4.162  17.105  0.00  0.00    +0.000 C 
ATOM     32  C   UNL     1       5.135   4.315  15.625  0.00  0.00    +0.000 C 
ATOM     33  O   UNL     1       6.035   4.188  17.851  0.00  0.00    +0.000 OA
ATOM     34  C   UNL     1       5.695   4.788  19.101  0.00  0.00    +0.000 C 
ATOM     35  C   UNL     1       4.474   5.639  18.817  0.00  0.00    +0.000 C 
ATOM     36  O   UNL     1       3.990   5.244  17.527  0.00  0.00    +0.000 OA
ENDBRANCH  29  35
ENDBRANCH  28  29
ENDBRANCH   1  28
TORSDOF 6
ENDMDL
MODEL 6
REMARK VINA RESULT:      -8.9      2.225      2.787
REMARK  Name = 
REMARK  8 active torsions:
REMARK  status: ('A' for Active; 'I' for Inactive)
REMARK    1  A    between atoms: C_1  and  C_2
REMARK    2  A    between atoms: C_2  and  C_3
REMARK    3  A    between atoms: C_6  and  C_7
REMARK    4  A    between atoms: C_7  and  O_8
REMARK    5  A    between atoms: O_8  and  C_9
REMARK    6  A    between atoms: C_20  and  N_21
REMARK    7  A    between atoms: N_21  and  C_22
REMARK    8  A    between atoms: C_27  and  N_28
REMARK                            x       y       z     vdW  Elec       q    Type
REMARK                         _______ _______ _______ _____ _____    ______ ____
ROOT
ATOM      1  C   UNL     1       1.954   7.460  19.464  0.00  0.00    +0.000 A 
ATOM      2  C   UNL     1       2.124   8.046  18.214  0.00  0.00    +0.000 A 
ATOM      3  C   UNL     1       1.768   9.380  18.005  0.00  0.00    +0.000 A 
ATOM      4  C   UNL     1       1.242  10.148  19.056  0.00  0.00    +0.000 A 
ATOM      5  C   UNL     1       1.106   9.567  20.319  0.00  0.00    +0.000 A 
ATOM      6  C   UNL     1       1.491   8.234  20.527  0.00  0.00    +0.000 A 
ATOM      7  C   UNL     1       0.612  10.307  21.494  0.00  0.00    +0.000 C 
ATOM      8  O   UNL     1       1.224  10.157  22.554  0.00  0.00    +0.000 OA
ATOM      9  C   UNL     1      -0.637  11.128  21.485  0.00  0.00    +0.000 A 
ATOM     10  C   UNL     1      -1.262  11.281  22.740  0.00  0.00    +0.000 A 
ATOM     11  C   UNL     1      -2.446  12.010  22.889  0.00  0.00    +0.000 A 
ATOM     12  C   UNL     1      -3.043  12.616  21.788  0.00  0.00    +0.000 A 
ATOM     13  C   UNL     1      -2.440  12.434  20.537  0.00  0.00    +0.000 A 
ATOM     14  C   UNL     1      -1.224  11.730  20.362  0.00  0.00    +0.000 A 
ATOM     15  C   UNL     1      -0.683  11.706  18.952  0.00  0.00    +0.000 C 
ATOM     16  C   UNL     1       0.828  11.569  18.815  0.00  0.00    +0.000 C 
ENDROOT
BRANCH  12  17
ATOM     17  N   UNL     1      -4.228  13.347  21.938  0.00  0.00    +0.000 N 
ATOM     18  H   UNL     1      -4.330  13.892  22.788  0.00  0.00    +0.000 HD
BRANCH  17  19
ATOM     19  C   UNL     1      -5.401  13.358  21.150  0.00  0.00    +0.000 A 
ATOM     20  C   UNL     1      -6.354  12.334  21.248  0.00  0.00    +0.000 A 
ATOM     21  C   UNL     1      -7.522  12.371  20.483  0.00  0.00    +0.000 A 
ATOM     22  C   UNL     1      -7.745  13.429  19.610  0.00  0.00    +0.000 A 
ATOM     23  C   UNL     1      -6.803  14.451  19.493  0.00  0.00    +0.000 A 
ATOM     24  C   UNL     1      -5.606  14.401  20.220  0.00  0.00    +0.000 A 
BRANCH  24  25
ATOM     25  N   UNL     1      -4.704  15.487  20.146  0.00  0.00    +0.000 N 
ATOM     26  H   UNL     1      -3.731  15.193  20.137  0.00  0.00    +0.000 HD
ATOM     27  H   UNL     1      -4.885  16.149  20.898  0.00  0.00    +0.000 HD
ENDBRANCH  24  25
ENDBRANCH  17  19
ENDBRANCH  12  17
BRANCH   1  28
ATOM     28  O   UNL     1       2.266   6.131  19.540  0.00  0.00    +0.000 OA
BRANCH  28  29
ATOM     29  C   UNL     1       1.800   5.484  20.724  0.00  0.00    +0.000 C 
BRANCH  29  35
ATOM     30  C   UNL     1       1.465   3.071  17.974  0.00  0.00    +0.000 C 
ATOM     31  C   UNL     1       2.429   2.619  19.070  0.00  0.00    +0.000 C 
ATOM     32  C   UNL     1       3.469   1.662  18.507  0.00  0.00    +0.000 C 
ATOM     33  O   UNL     1       1.709   1.967  20.117  0.00  0.00    +0.000 OA
ATOM     34  C   UNL     1       1.367   3.003  21.037  0.00  0.00    +0.000 C 
ATOM     35  C   UNL     1       2.405   4.087  20.824  0.00  0.00    +0.000 C 
ATOM     36  O   UNL     1       3.083   3.770  19.601  0.00  0.00    +0.000 OA
ENDBRANCH  29  35
ENDBRANCH  28  29
ENDBRANCH   1  28
TORSDOF 6
ENDMDL
MODEL 7
REMARK VINA RESULT:      -8.9      1.537      2.042
REMARK  Name = 
REMARK  8 active torsions:
REMARK  status: ('A' for Active; 'I' for Inactive)
REMARK    1  A    between atoms: C_1  and  C_2
REMARK    2  A    between atoms: C_2  and  C_3
REMARK    3  A    between atoms: C_6  and  C_7
REMARK    4  A    between atoms: C_7  and  O_8
REMARK    5  A    between atoms: O_8  and  C_9
REMARK    6  A    between atoms: C_20  and  N_21
REMARK    7  A    between atoms: N_21  and  C_22
REMARK    8  A    between atoms: C_27  and  N_28
REMARK                            x       y       z     vdW  Elec       q    Type
REMARK                         _______ _______ _______ _____ _____    ______ ____
ROOT
ATOM      1  C   UNL     1       1.946   6.680  20.044  0.00  0.00    +0.000 A 
ATOM      2  C   UNL     1       2.143   7.110  18.736  0.00  0.00    +0.000 A 
ATOM      3  C   UNL     1       1.879   8.435  18.382  0.00  0.00    +0.000 A 
ATOM      4  C   UNL     1       1.421   9.350  19.343  0.00  0.00    +0.000 A 
ATOM      5  C   UNL     1       1.261   8.924  20.663  0.00  0.00    +0.000 A 
ATOM      6  C   UNL     1       1.553   7.598  21.017  0.00  0.00    +0.000 A 
ATOM      7  C   UNL     1       0.835   9.823  21.751  0.00  0.00    +0.000 C 
ATOM      8  O   UNL     1       1.448   9.748  22.818  0.00  0.00    +0.000 OA
ATOM      9  C   UNL     1      -0.353  10.725  21.656  0.00  0.00    +0.000 A 
ATOM     10  C   UNL     1      -0.951  11.061  22.889  0.00  0.00    +0.000 A 
ATOM     11  C   UNL     1      -2.078  11.885  22.961  0.00  0.00    +0.000 A 
ATOM     12  C   UNL     1      -2.644  12.407  21.802  0.00  0.00    +0.000 A 
ATOM     13  C   UNL     1      -2.071  12.045  20.576  0.00  0.00    +0.000 A 
ATOM     14  C   UNL     1      -0.910  11.239  20.475  0.00  0.00    +0.000 A 
ATOM     15  C   UNL     1      -0.390  11.021  19.074  0.00  0.00    +0.000 C 
ATOM     16  C   UNL     1       1.106  10.762  18.947  0.00  0.00    +0.000 C 
ENDROOT
BRANCH  12  17
ATOM     17  N   UNL     1      -3.773  13.232  21.874  0.00  0.00    +0.000 N 
ATOM     18  H   UNL     1      -3.614  14.234  21.842  0.00  0.00    +0.000 HD
BRANCH  17  19
ATOM     19  C   UNL     1      -5.126  12.912  22.123  0.00  0.00    +0.000 A 
ATOM     20  C   UNL     1      -5.937  12.353  21.124  0.00  0.00    +0.000 A 
ATOM     21  C   UNL     1      -7.266  12.016  21.390  0.00  0.00    +0.000 A 
ATOM     22  C   UNL     1      -7.798  12.240  22.654  0.00  0.00    +0.000 A 
ATOM     23  C   UNL     1      -7.009  12.804  23.656  0.00  0.00    +0.000 A 
ATOM     24  C   UNL     1      -5.688  13.190  23.389  0.00  0.00    +0.000 A 
BRANCH  24  25
ATOM     25  N   UNL     1      -4.882  13.684  24.440  0.00  0.00    +0.000 N 
ATOM     26  H   UNL     1      -4.217  12.998  24.785  0.00  0.00    +0.000 HD
ATOM     27  H   UNL     1      -5.465  14.047  25.192  0.00  0.00    +0.000 HD
ENDBRANCH  24  25
ENDBRANCH  17  19
ENDBRANCH  12  17
BRANCH   1  28
ATOM     28  O   UNL     1       2.165   5.349  20.267  0.00  0.00    +0.000 OA
BRANCH  28  29
ATOM     29  C   UNL     1       1.416   4.479  19.418  0.00  0.00    +0.000 C 
BRANCH  29  35
ATOM     30  C   UNL     1       4.989   3.652  19.205  0.00  0.00    +0.000 C 
ATOM     31  C   UNL     1       4.121   2.492  19.690  0.00  0.00    +0.000 C 
ATOM     32  C   UNL     1       4.934   1.539  20.553  0.00  0.00    +0.000 C 
ATOM     33  O   UNL     1       3.591   1.778  18.573  0.00  0.00    +0.000 OA
ATOM     34  C   UNL     1       2.344   2.408  18.282  0.00  0.00    +0.000 C 
ATOM     35  C   UNL     1       1.903   3.044  19.586  0.00  0.00    +0.000 C 
ATOM     36  O   UNL     1       3.042   3.023  20.457  0.00  0.00    +0.000 OA
ENDBRANCH  29  35
ENDBRANCH  28  29
ENDBRANCH   1  28
TORSDOF 6
ENDMDL
MODEL 8
REMARK VINA RESULT:      -8.9      4.083     10.608
REMARK  Name = 
REMARK  8 active torsions:
REMARK  status: ('A' for Active; 'I' for Inactive)
REMARK    1  A    between atoms: C_1  and  C_2
REMARK    2  A    between atoms: C_2  and  C_3
REMARK    3  A    between atoms: C_6  and  C_7
REMARK    4  A    between atoms: C_7  and  O_8
REMARK    5  A    between atoms: O_8  and  C_9
REMARK    6  A    between atoms: C_20  and  N_21
REMARK    7  A    between atoms: N_21  and  C_22
REMARK    8  A    between atoms: C_27  and  N_28
REMARK                            x       y       z     vdW  Elec       q    Type
REMARK                         _______ _______ _______ _____ _____    ______ ____
ROOT
ATOM      1  C   UNL     1      -2.156  12.181  21.299  0.00  0.00    +0.000 A 
ATOM      2  C   UNL     1      -2.045  11.689  22.596  0.00  0.00    +0.000 A 
ATOM      3  C   UNL     1      -0.959  10.888  22.956  0.00  0.00    +0.000 A 
ATOM      4  C   UNL     1       0.037  10.576  22.017  0.00  0.00    +0.000 A 
ATOM      5  C   UNL     1      -0.059  11.102  20.726  0.00  0.00    +0.000 A 
ATOM      6  C   UNL     1      -1.139  11.928  20.380  0.00  0.00    +0.000 A 
ATOM      7  C   UNL     1       0.962  10.874  19.688  0.00  0.00    +0.000 C 
ATOM      8  O   UNL     1       1.314  11.847  19.018  0.00  0.00    +0.000 OA
ATOM      9  C   UNL     1       1.499   9.521  19.345  0.00  0.00    +0.000 A 
ATOM     10  C   UNL     1       1.989   9.389  18.028  0.00  0.00    +0.000 A 
ATOM     11  C   UNL     1       2.510   8.180  17.555  0.00  0.00    +0.000 A 
ATOM     12  C   UNL     1       2.564   7.064  18.384  0.00  0.00    +0.000 A 
ATOM     13  C   UNL     1       2.045   7.187  19.679  0.00  0.00    +0.000 A 
ATOM     14  C   UNL     1       1.542   8.407  20.196  0.00  0.00    +0.000 A 
ATOM     15  C   UNL     1       1.099   8.369  21.639  0.00  0.00    +0.000 C 
ATOM     16  C   UNL     1       1.180   9.686  22.401  0.00  0.00    +0.000 C 
ENDROOT
BRANCH  12  17
ATOM     17  N   UNL     1       3.086   5.854  17.910  0.00  0.00    +0.000 N 
ATOM     18  H   UNL     1       3.697   5.902  17.100  0.00  0.00    +0.000 HD
BRANCH  17  19
ATOM     19  C   UNL     1       2.802   4.524  18.290  0.00  0.00    +0.000 A 
ATOM     20  C   UNL     1       1.523   3.974  18.117  0.00  0.00    +0.000 A 
ATOM     21  C   UNL     1       1.263   2.649  18.472  0.00  0.00    +0.000 A 
ATOM     22  C   UNL     1       2.275   1.863  19.010  0.00  0.00    +0.000 A 
ATOM     23  C   UNL     1       3.550   2.398  19.199  0.00  0.00    +0.000 A 
ATOM     24  C   UNL     1       3.812   3.739  18.890  0.00  0.00    +0.000 A 
BRANCH  24  25
ATOM     25  N   UNL     1       5.130   4.236  19.014  0.00  0.00    +0.000 N 
ATOM     26  H   UNL     1       5.187   5.242  18.883  0.00  0.00    +0.000 HD
ATOM     27  H   UNL     1       5.755   3.742  18.380  0.00  0.00    +0.000 HD
ENDBRANCH  24  25
ENDBRANCH  17  19
ENDBRANCH  12  17
BRANCH   1  28
ATOM     28  O   UNL     1      -3.292  12.893  21.034  0.00  0.00    +0.000 OA
BRANCH  28  29
ATOM     29  C   UNL     1      -3.841  13.569  22.166  0.00  0.00    +0.000 C 
BRANCH  29  35
ATOM     30  C   UNL     1      -6.203  13.009  19.408  0.00  0.00    +0.000 C 
ATOM     31  C   UNL     1      -6.701  12.486  20.755  0.00  0.00    +0.000 C 
ATOM     32  C   UNL     1      -7.682  11.341  20.556  0.00  0.00    +0.000 C 
ATOM     33  O   UNL     1      -7.344  13.535  21.479  0.00  0.00    +0.000 OA
ATOM     34  C   UNL     1      -6.311  14.144  22.253  0.00  0.00    +0.000 C 
ATOM     35  C   UNL     1      -5.258  13.069  22.432  0.00  0.00    +0.000 C 
ATOM     36  O   UNL     1      -5.578  12.024  21.504  0.00  0.00    +0.000 OA
ENDBRANCH  29  35
ENDBRANCH  28  29
ENDBRANCH   1  28
TORSDOF 6
ENDMDL
MODEL 9
REMARK VINA RESULT:      -8.8      4.238     10.734
REMARK  Name = 
REMARK  8 active torsions:
REMARK  status: ('A' for Active; 'I' for Inactive)
REMARK    1  A    between atoms: C_1  and  C_2
REMARK    2  A    between atoms: C_2  and  C_3
REMARK    3  A    between atoms: C_6  and  C_7
REMARK    4  A    between atoms: C_7  and  O_8
REMARK    5  A    between atoms: O_8  and  C_9
REMARK    6  A    between atoms: C_20  and  N_21
REMARK    7  A    between atoms: N_21  and  C_22
REMARK    8  A    between atoms: C_27  and  N_28
REMARK                            x       y       z     vdW  Elec       q    Type
REMARK                         _______ _______ _______ _____ _____    ______ ____
ROOT
ATOM      1  C   UNL     1      -2.179  12.263  20.223  0.00  0.00    +0.000 A 
ATOM      2  C   UNL     1      -2.187  11.999  21.589  0.00  0.00    +0.000 A 
ATOM      3  C   UNL     1      -1.135  11.295  22.178  0.00  0.00    +0.000 A 
ATOM      4  C   UNL     1      -0.053  10.852  21.402  0.00  0.00    +0.000 A 
ATOM      5  C   UNL     1      -0.029  11.151  20.038  0.00  0.00    +0.000 A 
ATOM      6  C   UNL     1      -1.077  11.882  19.458  0.00  0.00    +0.000 A 
ATOM      7  C   UNL     1       1.087  10.774  19.152  0.00  0.00    +0.000 C 
ATOM      8  O   UNL     1       1.494  11.628  18.362  0.00  0.00    +0.000 OA
ATOM      9  C   UNL     1       1.662   9.396  19.094  0.00  0.00    +0.000 A 
ATOM     10  C   UNL     1       2.276   9.054  17.871  0.00  0.00    +0.000 A 
ATOM     11  C   UNL     1       2.848   7.795  17.660  0.00  0.00    +0.000 A 
ATOM     12  C   UNL     1       2.830   6.836  18.668  0.00  0.00    +0.000 A 
ATOM     13  C   UNL     1       2.190   7.164  19.870  0.00  0.00    +0.000 A 
ATOM     14  C   UNL     1       1.632   8.442  20.123  0.00  0.00    +0.000 A 
ATOM     15  C   UNL     1       1.055   8.637  21.504  0.00  0.00    +0.000 C 
ATOM     16  C   UNL     1       1.055  10.065  22.036  0.00  0.00    +0.000 C 
ENDROOT
BRANCH  12  17
ATOM     17  N   UNL     1       3.403   5.576  18.456  0.00  0.00    +0.000 N 
ATOM     18  H   UNL     1       4.325   5.554  18.031  0.00  0.00    +0.000 HD
BRANCH  17  19
ATOM     19  C   UNL     1       2.855   4.284  18.616  0.00  0.00    +0.000 A 
ATOM     20  C   UNL     1       1.476   4.057  18.496  0.00  0.00    +0.000 A 
ATOM     21  C   UNL     1       0.950   2.771  18.629  0.00  0.00    +0.000 A 
ATOM     22  C   UNL     1       1.797   1.700  18.891  0.00  0.00    +0.000 A 
ATOM     23  C   UNL     1       3.169   1.908  19.023  0.00  0.00    +0.000 A 
ATOM     24  C   UNL     1       3.704   3.201  18.938  0.00  0.00    +0.000 A 
BRANCH  24  25
ATOM     25  N   UNL     1       5.105   3.379  18.995  0.00  0.00    +0.000 N 
ATOM     26  H   UNL     1       5.379   4.201  19.525  0.00  0.00    +0.000 HD
ATOM     27  H   UNL     1       5.499   3.394  18.056  0.00  0.00    +0.000 HD
ENDBRANCH  24  25
ENDBRANCH  17  19
ENDBRANCH  12  17
BRANCH   1  28
ATOM     28  O   UNL     1      -3.290  12.894  19.737  0.00  0.00    +0.000 OA
BRANCH  28  29
ATOM     29  C   UNL     1      -4.518  12.222  20.013  0.00  0.00    +0.000 C 
BRANCH  29  35
ATOM     30  C   UNL     1      -7.800  11.041  21.166  0.00  0.00    +0.000 C 
ATOM     31  C   UNL     1      -7.306  12.286  21.901  0.00  0.00    +0.000 C 
ATOM     32  C   UNL     1      -7.912  12.363  23.294  0.00  0.00    +0.000 C 
ATOM     33  O   UNL     1      -7.660  13.460  21.169  0.00  0.00    +0.000 OA
ATOM     34  C   UNL     1      -6.557  13.705  20.298  0.00  0.00    +0.000 C 
ATOM     35  C   UNL     1      -5.363  13.056  20.970  0.00  0.00    +0.000 C 
ATOM     36  O   UNL     1      -5.885  12.215  22.007  0.00  0.00    +0.000 OA
ENDBRANCH  29  35
ENDBRANCH  28  29
ENDBRANCH   1  28
TORSDOF 6
ENDMDL
