MODEL 1
REMARK VINA RESULT:      -6.7      0.000      0.000
REMARK  Name = 
REMARK  7 active torsions:
REMARK  status: ('A' for Active; 'I' for Inactive)
REMARK    1  A    between atoms: C_1  and  C_2
REMARK    2  A    between atoms: C_2  and  C_3
REMARK    3  A    between atoms: C_2  and  C_6
REMARK    4  A    between atoms: C_3  and  C_4
REMARK    5  A    between atoms: C_4  and  O_5
REMARK    6  A    between atoms: C_6  and  N_7
REMARK    7  A    between atoms: C_11  and  C_12
REMARK                            x       y       z     vdW  Elec       q    Type
REMARK                         _______ _______ _______ _____ _____    ______ ____
ROOT
ATOM      1  N   UNL     1       3.958   4.286  18.675  0.00  0.00    +0.000 N 
ATOM      2  C   UNL     1       4.531   4.839  17.589  0.00  0.00    +0.000 A 
ATOM      3  N   UNL     1       4.584   6.131  17.249  0.00  0.00    +0.000 NA
ATOM      4  O   UNL     1       5.200   6.111  16.004  0.00  0.00    +0.000 OA
ATOM      5  C   UNL     1       5.446   4.799  15.714  0.00  0.00    +0.000 A 
ATOM      6  N   UNL     1       5.065   3.982  16.674  0.00  0.00    +0.000 NA
ATOM      7  H   UNL     1       3.891   3.278  18.606  0.00  0.00    +0.000 HD
ENDROOT
BRANCH   5   8
ATOM      8  C   UNL     1       6.019   4.509  14.405  0.00  0.00    +0.000 A 
ATOM      9  C   UNL     1       7.224   5.095  13.982  0.00  0.00    +0.000 A 
ATOM     10  C   UNL     1       7.733   4.842  12.707  0.00  0.00    +0.000 A 
ATOM     11  C   UNL     1       7.048   3.996  11.837  0.00  0.00    +0.000 A 
ATOM     12  C   UNL     1       5.856   3.399  12.244  0.00  0.00    +0.000 A 
ATOM     13  C   UNL     1       5.344   3.655  13.520  0.00  0.00    +0.000 A 
ENDBRANCH   5   8
BRANCH   1  14
ATOM     14  C   UNL     1       2.802   4.959  19.246  0.00  0.00    +0.000 C 
BRANCH  14  16
ATOM     15  C   UNL     1       1.691   3.074  18.028  0.00  0.00    +0.000 C 
ATOM     16  C   UNL     1       1.533   4.091  19.165  0.00  0.00    +0.000 C 
BRANCH  16  17
ATOM     17  C   UNL     1       1.159   3.389  20.487  0.00  0.00    +0.000 C 
BRANCH  17  18
ATOM     18  C   UNL     1       2.109   3.647  21.652  0.00  0.00    +0.000 C 
BRANCH  18  19
ATOM     19  O   UNL     1       2.733   2.428  22.035  0.00  0.00    +0.000 OA
ATOM     20  H   UNL     1       3.409   2.220  21.368  0.00  0.00    +0.000 HD
ENDBRANCH  18  19
ENDBRANCH  17  18
ENDBRANCH  16  17
ENDBRANCH  14  16
ENDBRANCH   1  14
TORSDOF 6
ENDMDL
MODEL 2
REMARK VINA RESULT:      -6.7      3.287      3.978
REMARK  Name = 
REMARK  7 active torsions:
REMARK  status: ('A' for Active; 'I' for Inactive)
REMARK    1  A    between atoms: C_1  and  C_2
REMARK    2  A    between atoms: C_2  and  C_3
REMARK    3  A    between atoms: C_2  and  C_6
REMARK    4  A    between atoms: C_3  and  C_4
REMARK    5  A    between atoms: C_4  and  O_5
REMARK    6  A    between atoms: C_6  and  N_7
REMARK    7  A    between atoms: C_11  and  C_12
REMARK                            x       y       z     vdW  Elec       q    Type
REMARK                         _______ _______ _______ _____ _____    ______ ____
ROOT
ATOM      1  N   UNL     1       1.679   3.783  17.787  0.00  0.00    +0.000 N 
ATOM      2  C   UNL     1       3.024   3.846  17.775  0.00  0.00    +0.000 A 
ATOM      3  N   UNL     1       3.899   2.840  17.862  0.00  0.00    +0.000 NA
ATOM      4  O   UNL     1       5.129   3.486  17.898  0.00  0.00    +0.000 OA
ATOM      5  C   UNL     1       4.865   4.825  17.842  0.00  0.00    +0.000 A 
ATOM      6  N   UNL     1       3.579   5.091  17.747  0.00  0.00    +0.000 NA
ATOM      7  H   UNL     1       1.250   4.693  17.898  0.00  0.00    +0.000 HD
ENDROOT
BRANCH   5   8
ATOM      8  C   UNL     1       6.006   5.727  17.951  0.00  0.00    +0.000 A 
ATOM      9  C   UNL     1       7.042   5.498  18.872  0.00  0.00    +0.000 A 
ATOM     10  C   UNL     1       8.101   6.399  18.994  0.00  0.00    +0.000 A 
ATOM     11  C   UNL     1       8.144   7.538  18.193  0.00  0.00    +0.000 A 
ATOM     12  C   UNL     1       7.130   7.776  17.268  0.00  0.00    +0.000 A 
ATOM     13  C   UNL     1       6.066   6.876  17.148  0.00  0.00    +0.000 A 
ENDBRANCH   5   8
BRANCH   1  14
ATOM     14  C   UNL     1       1.059   2.697  18.528  0.00  0.00    +0.000 C 
BRANCH  14  16
ATOM     15  C   UNL     1       1.787   2.296  20.890  0.00  0.00    +0.000 C 
ATOM     16  C   UNL     1       0.810   3.073  20.000  0.00  0.00    +0.000 C 
BRANCH  16  17
ATOM     17  C   UNL     1       0.885   4.587  20.289  0.00  0.00    +0.000 C 
BRANCH  17  18
ATOM     18  C   UNL     1       2.087   5.032  21.116  0.00  0.00    +0.000 C 
BRANCH  18  19
ATOM     19  O   UNL     1       2.801   6.040  20.411  0.00  0.00    +0.000 OA
ATOM     20  H   UNL     1       2.364   6.890  20.586  0.00  0.00    +0.000 HD
ENDBRANCH  18  19
ENDBRANCH  17  18
ENDBRANCH  16  17
ENDBRANCH  14  16
ENDBRANCH   1  14
TORSDOF 6
ENDMDL
MODEL 3
REMARK VINA RESULT:      -6.7      1.223      2.112
REMARK  Name = 
REMARK  7 active torsions:
REMARK  status: ('A' for Active; 'I' for Inactive)
REMARK    1  A    between atoms: C_1  and  C_2
REMARK    2  A    between atoms: C_2  and  C_3
REMARK    3  A    between atoms: C_2  and  C_6
REMARK    4  A    between atoms: C_3  and  C_4
REMARK    5  A    between atoms: C_4  and  O_5
REMARK    6  A    between atoms: C_6  and  N_7
REMARK    7  A    between atoms: C_11  and  C_12
REMARK                            x       y       z     vdW  Elec       q    Type
REMARK                         _______ _______ _______ _____ _____    ______ ____
ROOT
ATOM      1  N   UNL     1       4.913   4.442  19.173  0.00  0.00    +0.000 N 
ATOM      2  C   UNL     1       5.025   4.948  17.930  0.00  0.00    +0.000 A 
ATOM      3  N   UNL     1       4.422   6.026  17.418  0.00  0.00    +0.000 NA
ATOM      4  O   UNL     1       4.822   6.018  16.088  0.00  0.00    +0.000 OA
ATOM      5  C   UNL     1       5.621   4.921  15.930  0.00  0.00    +0.000 A 
ATOM      6  N   UNL     1       5.787   4.243  17.047  0.00  0.00    +0.000 NA
ATOM      7  H   UNL     1       5.321   3.520  19.253  0.00  0.00    +0.000 HD
ENDROOT
BRANCH   5   8
ATOM      8  C   UNL     1       6.104   4.645  14.583  0.00  0.00    +0.000 A 
ATOM      9  C   UNL     1       5.441   3.745  13.731  0.00  0.00    +0.000 A 
ATOM     10  C   UNL     1       5.947   3.459  12.462  0.00  0.00    +0.000 A 
ATOM     11  C   UNL     1       7.118   4.071  12.022  0.00  0.00    +0.000 A 
ATOM     12  C   UNL     1       7.784   4.973  12.851  0.00  0.00    +0.000 A 
ATOM     13  C   UNL     1       7.280   5.257  14.124  0.00  0.00    +0.000 A 
ENDBRANCH   5   8
BRANCH   1  14
ATOM     14  C   UNL     1       3.653   4.640  19.873  0.00  0.00    +0.000 C 
BRANCH  14  16
ATOM     15  C   UNL     1       2.034   3.343  21.274  0.00  0.00    +0.000 C 
ATOM     16  C   UNL     1       2.839   3.337  19.969  0.00  0.00    +0.000 C 
BRANCH  16  17
ATOM     17  C   UNL     1       1.922   3.070  18.757  0.00  0.00    +0.000 C 
BRANCH  17  18
ATOM     18  C   UNL     1       2.517   2.170  17.678  0.00  0.00    +0.000 C 
BRANCH  18  19
ATOM     19  O   UNL     1       3.828   1.774  18.060  0.00  0.00    +0.000 OA
ATOM     20  H   UNL     1       4.441   2.479  17.788  0.00  0.00    +0.000 HD
ENDBRANCH  18  19
ENDBRANCH  17  18
ENDBRANCH  16  17
ENDBRANCH  14  16
ENDBRANCH   1  14
TORSDOF 6
ENDMDL
MODEL 4
REMARK VINA RESULT:      -6.7      2.085      7.420
REMARK  Name = 
REMARK  7 active torsions:
REMARK  status: ('A' for Active; 'I' for Inactive)
REMARK    1  A    between atoms: C_1  and  C_2
REMARK    2  A    between atoms: C_2  and  C_3
REMARK    3  A    between atoms: C_2  and  C_6
REMARK    4  A    between atoms: C_3  and  C_4
REMARK    5  A    between atoms: C_4  and  O_5
REMARK    6  A    between atoms: C_6  and  N_7
REMARK    7  A    between atoms: C_11  and  C_12
REMARK                            x       y       z     vdW  Elec       q    Type
REMARK                         _______ _______ _______ _____ _____    ______ ____
ROOT
ATOM      1  N   UNL     1       5.899   5.477  16.076  0.00  0.00    +0.000 N 
ATOM      2  C   UNL     1       5.647   4.952  17.290  0.00  0.00    +0.000 A 
ATOM      3  N   UNL     1       6.505   4.374  18.135  0.00  0.00    +0.000 NA
ATOM      4  O   UNL     1       5.691   3.937  19.172  0.00  0.00    +0.000 OA
ATOM      5  C   UNL     1       4.413   4.288  18.837  0.00  0.00    +0.000 A 
ATOM      6  N   UNL     1       4.344   4.934  17.691  0.00  0.00    +0.000 NA
ATOM      7  H   UNL     1       5.053   5.683  15.560  0.00  0.00    +0.000 HD
ENDROOT
BRANCH   5   8
ATOM      8  C   UNL     1       3.353   3.859  19.740  0.00  0.00    +0.000 A 
ATOM      9  C   UNL     1       3.499   2.734  20.568  0.00  0.00    +0.000 A 
ATOM     10  C   UNL     1       2.453   2.311  21.391  0.00  0.00    +0.000 A 
ATOM     11  C   UNL     1       1.248   3.010  21.403  0.00  0.00    +0.000 A 
ATOM     12  C   UNL     1       1.089   4.134  20.595  0.00  0.00    +0.000 A 
ATOM     13  C   UNL     1       2.135   4.555  19.767  0.00  0.00    +0.000 A 
ENDBRANCH   5   8
BRANCH   1  14
ATOM     14  C   UNL     1       6.987   4.901  15.303  0.00  0.00    +0.000 C 
BRANCH  14  16
ATOM     15  C   UNL     1       8.011   5.154  13.032  0.00  0.00    +0.000 C 
ATOM     16  C   UNL     1       6.698   4.930  13.791  0.00  0.00    +0.000 C 
BRANCH  16  17
ATOM     17  C   UNL     1       5.960   3.682  13.262  0.00  0.00    +0.000 C 
BRANCH  17  18
ATOM     18  C   UNL     1       6.516   3.099  11.967  0.00  0.00    +0.000 C 
BRANCH  18  19
ATOM     19  O   UNL     1       5.980   1.798  11.764  0.00  0.00    +0.000 OA
ATOM     20  H   UNL     1       5.052   1.811  12.055  0.00  0.00    +0.000 HD
ENDBRANCH  18  19
ENDBRANCH  17  18
ENDBRANCH  16  17
ENDBRANCH  14  16
ENDBRANCH   1  14
TORSDOF 6
ENDMDL
MODEL 5
REMARK VINA RESULT:      -6.7      1.196      1.743
REMARK  Name = 
REMARK  7 active torsions:
REMARK  status: ('A' for Active; 'I' for Inactive)
REMARK    1  A    between atoms: C_1  and  C_2
REMARK    2  A    between atoms: C_2  and  C_3
REMARK    3  A    between atoms: C_2  and  C_6
REMARK    4  A    between atoms: C_3  and  C_4
REMARK    5  A    between atoms: C_4  and  O_5
REMARK    6  A    between atoms: C_6  and  N_7
REMARK    7  A    between atoms: C_11  and  C_12
REMARK                            x       y       z     vdW  Elec       q    Type
REMARK                         _______ _______ _______ _____ _____    ______ ____
ROOT
ATOM      1  N   UNL     1       4.896   4.293  19.033  0.00  0.00    +0.000 N 
ATOM      2  C   UNL     1       5.105   4.851  17.825  0.00  0.00    +0.000 A 
ATOM      3  N   UNL     1       4.637   6.012  17.358  0.00  0.00    +0.000 NA
ATOM      4  O   UNL     1       5.083   6.033  16.042  0.00  0.00    +0.000 OA
ATOM      5  C   UNL     1       5.768   4.867  15.846  0.00  0.00    +0.000 A 
ATOM      6  N   UNL     1       5.822   4.117  16.927  0.00  0.00    +0.000 NA
ATOM      7  H   UNL     1       5.202   3.329  19.072  0.00  0.00    +0.000 HD
ENDROOT
BRANCH   5   8
ATOM      8  C   UNL     1       6.268   4.615  14.501  0.00  0.00    +0.000 A 
ATOM      9  C   UNL     1       7.371   5.314  13.980  0.00  0.00    +0.000 A 
ATOM     10  C   UNL     1       7.805   5.091  12.672  0.00  0.00    +0.000 A 
ATOM     11  C   UNL     1       7.148   4.164  11.867  0.00  0.00    +0.000 A 
ATOM     12  C   UNL     1       6.059   3.455  12.370  0.00  0.00    +0.000 A 
ATOM     13  C   UNL     1       5.621   3.680  13.678  0.00  0.00    +0.000 A 
ENDBRANCH   5   8
BRANCH   1  14
ATOM     14  C   UNL     1       3.639   4.585  19.704  0.00  0.00    +0.000 C 
BRANCH  14  16
ATOM     15  C   UNL     1       2.058   3.555  21.348  0.00  0.00    +0.000 C 
ATOM     16  C   UNL     1       2.872   3.303  20.074  0.00  0.00    +0.000 C 
BRANCH  16  17
ATOM     17  C   UNL     1       1.976   2.752  18.945  0.00  0.00    +0.000 C 
BRANCH  17  18
ATOM     18  C   UNL     1       2.698   1.923  17.887  0.00  0.00    +0.000 C 
BRANCH  18  19
ATOM     19  O   UNL     1       3.921   1.432  18.422  0.00  0.00    +0.000 OA
ATOM     20  H   UNL     1       4.598   1.503  17.727  0.00  0.00    +0.000 HD
ENDBRANCH  18  19
ENDBRANCH  17  18
ENDBRANCH  16  17
ENDBRANCH  14  16
ENDBRANCH   1  14
TORSDOF 6
ENDMDL
MODEL 6
REMARK VINA RESULT:      -6.6      1.022      1.542
REMARK  Name = 
REMARK  7 active torsions:
REMARK  status: ('A' for Active; 'I' for Inactive)
REMARK    1  A    between atoms: C_1  and  C_2
REMARK    2  A    between atoms: C_2  and  C_3
REMARK    3  A    between atoms: C_2  and  C_6
REMARK    4  A    between atoms: C_3  and  C_4
REMARK    5  A    between atoms: C_4  and  O_5
REMARK    6  A    between atoms: C_6  and  N_7
REMARK    7  A    between atoms: C_11  and  C_12
REMARK                            x       y       z     vdW  Elec       q    Type
REMARK                         _______ _______ _______ _____ _____    ______ ____
ROOT
ATOM      1  N   UNL     1       5.190   3.648  18.914  0.00  0.00    +0.000 N 
ATOM      2  C   UNL     1       5.265   4.316  17.747  0.00  0.00    +0.000 A 
ATOM      3  N   UNL     1       4.628   5.437  17.393  0.00  0.00    +0.000 NA
ATOM      4  O   UNL     1       5.001   5.615  16.067  0.00  0.00    +0.000 OA
ATOM      5  C   UNL     1       5.821   4.568  15.751  0.00  0.00    +0.000 A 
ATOM      6  N   UNL     1       6.024   3.753  16.765  0.00  0.00    +0.000 NA
ATOM      7  H   UNL     1       5.620   2.733  18.864  0.00  0.00    +0.000 HD
ENDROOT
BRANCH   5   8
ATOM      8  C   UNL     1       6.282   4.484  14.371  0.00  0.00    +0.000 A 
ATOM      9  C   UNL     1       5.676   3.622  13.442  0.00  0.00    +0.000 A 
ATOM     10  C   UNL     1       6.163   3.522  12.137  0.00  0.00    +0.000 A 
ATOM     11  C   UNL     1       7.259   4.285  11.740  0.00  0.00    +0.000 A 
ATOM     12  C   UNL     1       7.866   5.152  12.647  0.00  0.00    +0.000 A 
ATOM     13  C   UNL     1       7.381   5.250  13.954  0.00  0.00    +0.000 A 
ENDBRANCH   5   8
BRANCH   1  14
ATOM     14  C   UNL     1       3.941   3.721  19.655  0.00  0.00    +0.000 C 
BRANCH  14  16
ATOM     15  C   UNL     1       3.337   1.509  18.649  0.00  0.00    +0.000 C 
ATOM     16  C   UNL     1       2.820   2.916  18.974  0.00  0.00    +0.000 C 
BRANCH  16  17
ATOM     17  C   UNL     1       1.506   2.848  19.781  0.00  0.00    +0.000 C 
BRANCH  17  18
ATOM     18  C   UNL     1       1.583   3.412  21.197  0.00  0.00    +0.000 C 
BRANCH  18  19
ATOM     19  O   UNL     1       1.644   2.341  22.131  0.00  0.00    +0.000 OA
ATOM     20  H   UNL     1       2.430   1.809  21.921  0.00  0.00    +0.000 HD
ENDBRANCH  18  19
ENDBRANCH  17  18
ENDBRANCH  16  17
ENDBRANCH  14  16
ENDBRANCH   1  14
TORSDOF 6
ENDMDL
MODEL 7
REMARK VINA RESULT:      -6.5      1.914      7.361
REMARK  Name = 
REMARK  7 active torsions:
REMARK  status: ('A' for Active; 'I' for Inactive)
REMARK    1  A    between atoms: C_1  and  C_2
REMARK    2  A    between atoms: C_2  and  C_3
REMARK    3  A    between atoms: C_2  and  C_6
REMARK    4  A    between atoms: C_3  and  C_4
REMARK    5  A    between atoms: C_4  and  O_5
REMARK    6  A    between atoms: C_6  and  N_7
REMARK    7  A    between atoms: C_11  and  C_12
REMARK                            x       y       z     vdW  Elec       q    Type
REMARK                         _______ _______ _______ _____ _____    ______ ____
ROOT
ATOM      1  N   UNL     1       6.085   5.519  15.191  0.00  0.00    +0.000 N 
ATOM      2  C   UNL     1       5.710   5.090  16.411  0.00  0.00    +0.000 A 
ATOM      3  N   UNL     1       6.458   4.492  17.343  0.00  0.00    +0.000 NA
ATOM      4  O   UNL     1       5.543   4.188  18.343  0.00  0.00    +0.000 OA
ATOM      5  C   UNL     1       4.326   4.624  17.902  0.00  0.00    +0.000 A 
ATOM      6  N   UNL     1       4.387   5.204  16.721  0.00  0.00    +0.000 NA
ATOM      7  H   UNL     1       5.296   5.764  14.607  0.00  0.00    +0.000 HD
ENDROOT
BRANCH   5   8
ATOM      8  C   UNL     1       3.176   4.340  18.750  0.00  0.00    +0.000 A 
ATOM      9  C   UNL     1       2.215   3.378  18.393  0.00  0.00    +0.000 A 
ATOM     10  C   UNL     1       1.095   3.155  19.196  0.00  0.00    +0.000 A 
ATOM     11  C   UNL     1       0.921   3.883  20.370  0.00  0.00    +0.000 A 
ATOM     12  C   UNL     1       1.869   4.834  20.745  0.00  0.00    +0.000 A 
ATOM     13  C   UNL     1       2.989   5.061  19.939  0.00  0.00    +0.000 A 
ENDBRANCH   5   8
BRANCH   1  14
ATOM     14  C   UNL     1       7.167   4.809  14.527  0.00  0.00    +0.000 C 
BRANCH  14  16
ATOM     15  C   UNL     1       8.343   5.818  12.561  0.00  0.00    +0.000 C 
ATOM     16  C   UNL     1       7.126   4.996  13.000  0.00  0.00    +0.000 C 
BRANCH  16  17
ATOM     17  C   UNL     1       7.033   3.679  12.202  0.00  0.00    +0.000 C 
BRANCH  17  18
ATOM     18  C   UNL     1       5.630   3.090  12.079  0.00  0.00    +0.000 C 
BRANCH  18  19
ATOM     19  O   UNL     1       5.720   1.737  11.652  0.00  0.00    +0.000 OA
ATOM     20  H   UNL     1       4.832   1.346  11.719  0.00  0.00    +0.000 HD
ENDBRANCH  18  19
ENDBRANCH  17  18
ENDBRANCH  16  17
ENDBRANCH  14  16
ENDBRANCH   1  14
TORSDOF 6
ENDMDL
MODEL 8
REMARK VINA RESULT:      -6.5      5.546      7.438
REMARK  Name = 
REMARK  7 active torsions:
REMARK  status: ('A' for Active; 'I' for Inactive)
REMARK    1  A    between atoms: C_1  and  C_2
REMARK    2  A    between atoms: C_2  and  C_3
REMARK    3  A    between atoms: C_2  and  C_6
REMARK    4  A    between atoms: C_3  and  C_4
REMARK    5  A    between atoms: C_4  and  O_5
REMARK    6  A    between atoms: C_6  and  N_7
REMARK    7  A    between atoms: C_11  and  C_12
REMARK                            x       y       z     vdW  Elec       q    Type
REMARK                         _______ _______ _______ _____ _____    ______ ____
ROOT
ATOM      1  N   UNL     1       6.183   6.974  16.716  0.00  0.00    +0.000 N 
ATOM      2  C   UNL     1       7.172   7.479  17.479  0.00  0.00    +0.000 A 
ATOM      3  N   UNL     1       7.879   6.861  18.431  0.00  0.00    +0.000 NA
ATOM      4  O   UNL     1       8.680   7.873  18.943  0.00  0.00    +0.000 OA
ATOM      5  C   UNL     1       8.363   9.008  18.252  0.00  0.00    +0.000 A 
ATOM      6  N   UNL     1       7.449   8.804  17.326  0.00  0.00    +0.000 NA
ATOM      7  H   UNL     1       5.684   7.691  16.205  0.00  0.00    +0.000 HD
ENDROOT
BRANCH   5   8
ATOM      8  C   UNL     1       9.019  10.241  18.669  0.00  0.00    +0.000 A 
ATOM      9  C   UNL     1       9.604  10.371  19.940  0.00  0.00    +0.000 A 
ATOM     10  C   UNL     1      10.186  11.576  20.338  0.00  0.00    +0.000 A 
ATOM     11  C   UNL     1      10.198  12.666  19.471  0.00  0.00    +0.000 A 
ATOM     12  C   UNL     1       9.630  12.551  18.204  0.00  0.00    +0.000 A 
ATOM     13  C   UNL     1       9.044  11.346  17.805  0.00  0.00    +0.000 A 
ENDBRANCH   5   8
BRANCH   1  14
ATOM     14  C   UNL     1       5.363   5.916  17.284  0.00  0.00    +0.000 C 
BRANCH  14  16
ATOM     15  C   UNL     1       4.541   3.560  17.080  0.00  0.00    +0.000 C 
ATOM     16  C   UNL     1       5.546   4.583  16.537  0.00  0.00    +0.000 C 
BRANCH  16  17
ATOM     17  C   UNL     1       5.444   4.697  15.002  0.00  0.00    +0.000 C 
BRANCH  17  18
ATOM     18  C   UNL     1       6.668   4.213  14.230  0.00  0.00    +0.000 C 
BRANCH  18  19
ATOM     19  O   UNL     1       6.267   3.263  13.251  0.00  0.00    +0.000 OA
ATOM     20  H   UNL     1       5.921   3.754  12.486  0.00  0.00    +0.000 HD
ENDBRANCH  18  19
ENDBRANCH  17  18
ENDBRANCH  16  17
ENDBRANCH  14  16
ENDBRANCH   1  14
TORSDOF 6
ENDMDL
MODEL 9
REMARK VINA RESULT:      -6.5      0.593      1.282
REMARK  Name = 
REMARK  7 active torsions:
REMARK  status: ('A' for Active; 'I' for Inactive)
REMARK    1  A    between atoms: C_1  and  C_2
REMARK    2  A    between atoms: C_2  and  C_3
REMARK    3  A    between atoms: C_2  and  C_6
REMARK    4  A    between atoms: C_3  and  C_4
REMARK    5  A    between atoms: C_4  and  O_5
REMARK    6  A    between atoms: C_6  and  N_7
REMARK    7  A    between atoms: C_11  and  C_12
REMARK                            x       y       z     vdW  Elec       q    Type
REMARK                         _______ _______ _______ _____ _____    ______ ____
ROOT
ATOM      1  N   UNL     1       4.332   4.368  18.819  0.00  0.00    +0.000 N 
ATOM      2  C   UNL     1       4.814   4.925  17.691  0.00  0.00    +0.000 A 
ATOM      3  N   UNL     1       4.811   6.214  17.338  0.00  0.00    +0.000 NA
ATOM      4  O   UNL     1       5.338   6.197  16.053  0.00  0.00    +0.000 OA
ATOM      5  C   UNL     1       5.595   4.888  15.756  0.00  0.00    +0.000 A 
ATOM      6  N   UNL     1       5.303   4.071  16.747  0.00  0.00    +0.000 NA
ATOM      7  H   UNL     1       4.285   3.359  18.763  0.00  0.00    +0.000 HD
ENDROOT
BRANCH   5   8
ATOM      8  C   UNL     1       6.081   4.600  14.413  0.00  0.00    +0.000 A 
ATOM      9  C   UNL     1       5.424   3.688  13.570  0.00  0.00    +0.000 A 
ATOM     10  C   UNL     1       5.933   3.390  12.304  0.00  0.00    +0.000 A 
ATOM     11  C   UNL     1       7.103   4.002  11.860  0.00  0.00    +0.000 A 
ATOM     12  C   UNL     1       7.763   4.916  12.680  0.00  0.00    +0.000 A 
ATOM     13  C   UNL     1       7.255   5.212  13.949  0.00  0.00    +0.000 A 
ENDBRANCH   5   8
BRANCH   1  14
ATOM     14  C   UNL     1       3.204   5.019  19.466  0.00  0.00    +0.000 C 
BRANCH  14  16
ATOM     15  C   UNL     1       1.520   4.183  17.812  0.00  0.00    +0.000 C 
ATOM     16  C   UNL     1       1.902   4.216  19.297  0.00  0.00    +0.000 C 
BRANCH  16  17
ATOM     17  C   UNL     1       1.956   2.790  19.885  0.00  0.00    +0.000 C 
BRANCH  17  18
ATOM     18  C   UNL     1       2.639   2.672  21.244  0.00  0.00    +0.000 C 
BRANCH  18  19
ATOM     19  O   UNL     1       1.682   2.880  22.275  0.00  0.00    +0.000 OA
ATOM     20  H   UNL     1       1.500   2.018  22.688  0.00  0.00    +0.000 HD
ENDBRANCH  18  19
ENDBRANCH  17  18
ENDBRANCH  16  17
ENDBRANCH  14  16
ENDBRANCH   1  14
TORSDOF 6
ENDMDL
