MODEL 1
REMARK VINA RESULT:      -8.2      0.000      0.000
REMARK  Name = 
REMARK  6 active torsions:
REMARK  status: ('A' for Active; 'I' for Inactive)
REMARK    1  A    between atoms: S_2  and  O_4
REMARK    2  A    between atoms: S_2  and  C_5
REMARK    3  A    between atoms: C_7  and  O_8
REMARK    4  A    between atoms: C_9  and  N_10
REMARK    5  A    between atoms: N_11  and  C_12
REMARK    6  A    between atoms: C_21  and  O_22
REMARK                            x       y       z     vdW  Elec       q    Type
REMARK                         _______ _______ _______ _____ _____    ______ ____
ROOT
ATOM      1  C   UNL     1       4.180   5.461  17.935  0.00  0.00    +0.000 A 
ATOM      2  C   UNL     1       3.951   6.753  17.457  0.00  0.00    +0.000 A 
ATOM      3  C   UNL     1       2.995   7.556  18.069  0.00  0.00    +0.000 A 
ATOM      4  C   UNL     1       2.223   7.082  19.149  0.00  0.00    +0.000 A 
ATOM      5  C   UNL     1       2.464   5.759  19.637  0.00  0.00    +0.000 A 
ATOM      6  C   UNL     1       1.748   5.237  20.743  0.00  0.00    +0.000 A 
ATOM      7  C   UNL     1       1.972   3.953  21.240  0.00  0.00    +0.000 A 
ATOM      8  C   UNL     1       2.925   3.145  20.645  0.00  0.00    +0.000 A 
ATOM      9  C   UNL     1       3.655   3.627  19.560  0.00  0.00    +0.000 A 
ATOM     10  C   UNL     1       3.451   4.929  19.029  0.00  0.00    +0.000 A 
ENDROOT
BRANCH   1  12
ATOM     11  O   UNL     1       6.216   5.398  16.289  0.00  0.00    +0.000 OA
ATOM     12  S   UNL     1       5.456   4.512  17.144  0.00  0.00    +0.000 S 
ATOM     13  O   UNL     1       4.860   3.295  16.642  0.00  0.00    +0.000 OA
BRANCH  12  14
ATOM     14  O   UNL     1       6.478   4.069  18.312  0.00  0.00    +0.000 OA
ATOM     15  H   UNL     1       6.765   3.151  18.119  0.00  0.00    +0.000 HD
ENDBRANCH  12  14
ENDBRANCH   1  12
BRANCH   3  16
ATOM     16  O   UNL     1       2.852   8.845  17.624  0.00  0.00    +0.000 OA
ATOM     17  H   UNL     1       2.757   9.452  18.375  0.00  0.00    +0.000 HD
ENDBRANCH   3  16
BRANCH   4  18
ATOM     18  N   UNL     1       1.303   7.904  19.854  0.00  0.00    +0.000 NA
ATOM     19  N   UNL     1       1.825   8.830  20.513  0.00  0.00    +0.000 NA
BRANCH  19  20
ATOM     20  C   UNL     1       0.853   9.580  21.233  0.00  0.00    +0.000 A 
ATOM     21  C   UNL     1       0.554   9.316  22.577  0.00  0.00    +0.000 A 
ATOM     22  C   UNL     1      -0.446  10.019  23.249  0.00  0.00    +0.000 A 
ATOM     23  C   UNL     1      -1.172  11.028  22.607  0.00  0.00    +0.000 A 
ATOM     24  C   UNL     1      -2.203  11.683  23.299  0.00  0.00    +0.000 A 
ATOM     25  C   UNL     1      -2.950  12.691  22.692  0.00  0.00    +0.000 A 
ATOM     26  C   UNL     1      -2.664  13.063  21.388  0.00  0.00    +0.000 A 
ATOM     27  C   UNL     1      -1.638  12.418  20.685  0.00  0.00    +0.000 A 
ATOM     28  C   UNL     1      -0.868  11.377  21.268  0.00  0.00    +0.000 A 
ATOM     29  C   UNL     1       0.164  10.641  20.607  0.00  0.00    +0.000 A 
BRANCH  29  30
ATOM     30  O   UNL     1       0.524  10.927  19.307  0.00  0.00    +0.000 OA
ATOM     31  H   UNL     1       1.417  11.297  19.288  0.00  0.00    +0.000 HD
ENDBRANCH  29  30
ENDBRANCH  19  20
ENDBRANCH   4  18
TORSDOF 6
ENDMDL
MODEL 2
REMARK VINA RESULT:      -8.0      3.239      8.356
REMARK  Name = 
REMARK  6 active torsions:
REMARK  status: ('A' for Active; 'I' for Inactive)
REMARK    1  A    between atoms: S_2  and  O_4
REMARK    2  A    between atoms: S_2  and  C_5
REMARK    3  A    between atoms: C_7  and  O_8
REMARK    4  A    between atoms: C_9  and  N_10
REMARK    5  A    between atoms: N_11  and  C_12
REMARK    6  A    between atoms: C_21  and  O_22
REMARK                            x       y       z     vdW  Elec       q    Type
REMARK                         _______ _______ _______ _____ _____    ______ ____
ROOT
ATOM      1  C   UNL     1       0.360  12.503  20.089  0.00  0.00    +0.000 A 
ATOM      2  C   UNL     1       1.038  12.206  18.905  0.00  0.00    +0.000 A 
ATOM      3  C   UNL     1       1.396  10.892  18.627  0.00  0.00    +0.000 A 
ATOM      4  C   UNL     1       1.118   9.849  19.532  0.00  0.00    +0.000 A 
ATOM      5  C   UNL     1       0.420  10.158  20.743  0.00  0.00    +0.000 A 
ATOM      6  C   UNL     1       0.077   9.149  21.677  0.00  0.00    +0.000 A 
ATOM      7  C   UNL     1      -0.610   9.427  22.859  0.00  0.00    +0.000 A 
ATOM      8  C   UNL     1      -0.979  10.729  23.146  0.00  0.00    +0.000 A 
ATOM      9  C   UNL     1      -0.667  11.747  22.247  0.00  0.00    +0.000 A 
ATOM     10  C   UNL     1       0.033  11.498  21.035  0.00  0.00    +0.000 A 
ENDROOT
BRANCH   1  12
ATOM     11  O   UNL     1       0.620  14.704  21.485  0.00  0.00    +0.000 OA
ATOM     12  S   UNL     1      -0.120  14.192  20.352  0.00  0.00    +0.000 S 
ATOM     13  O   UNL     1      -1.563  14.261  20.292  0.00  0.00    +0.000 OA
BRANCH  12  14
ATOM     14  O   UNL     1       0.427  15.020  19.079  0.00  0.00    +0.000 OA
ATOM     15  H   UNL     1       0.798  14.372  18.443  0.00  0.00    +0.000 HD
ENDBRANCH  12  14
ENDBRANCH   1  12
BRANCH   3  16
ATOM     16  O   UNL     1       1.991  10.625  17.420  0.00  0.00    +0.000 OA
ATOM     17  H   UNL     1       1.689  11.257  16.749  0.00  0.00    +0.000 HD
ENDBRANCH   3  16
BRANCH   4  18
ATOM     18  N   UNL     1       1.389   8.485  19.241  0.00  0.00    +0.000 NA
ATOM     19  N   UNL     1       2.604   8.191  19.186  0.00  0.00    +0.000 NA
BRANCH  19  20
ATOM     20  C   UNL     1       2.804   6.825  18.842  0.00  0.00    +0.000 A 
ATOM     21  C   UNL     1       3.506   6.442  17.690  0.00  0.00    +0.000 A 
ATOM     22  C   UNL     1       3.639   5.100  17.334  0.00  0.00    +0.000 A 
ATOM     23  C   UNL     1       3.089   4.087  18.128  0.00  0.00    +0.000 A 
ATOM     24  C   UNL     1       3.201   2.750  17.715  0.00  0.00    +0.000 A 
ATOM     25  C   UNL     1       2.664   1.714  18.477  0.00  0.00    +0.000 A 
ATOM     26  C   UNL     1       2.020   2.006  19.670  0.00  0.00    +0.000 A 
ATOM     27  C   UNL     1       1.900   3.336  20.094  0.00  0.00    +0.000 A 
ATOM     28  C   UNL     1       2.422   4.416  19.334  0.00  0.00    +0.000 A 
ATOM     29  C   UNL     1       2.306   5.800  19.674  0.00  0.00    +0.000 A 
BRANCH  29  30
ATOM     30  O   UNL     1       1.679   6.199  20.836  0.00  0.00    +0.000 OA
ATOM     31  H   UNL     1       0.743   5.959  20.803  0.00  0.00    +0.000 HD
ENDBRANCH  29  30
ENDBRANCH  19  20
ENDBRANCH   4  18
TORSDOF 6
ENDMDL
MODEL 3
REMARK VINA RESULT:      -7.9      3.395      8.319
REMARK  Name = 
REMARK  6 active torsions:
REMARK  status: ('A' for Active; 'I' for Inactive)
REMARK    1  A    between atoms: S_2  and  O_4
REMARK    2  A    between atoms: S_2  and  C_5
REMARK    3  A    between atoms: C_7  and  O_8
REMARK    4  A    between atoms: C_9  and  N_10
REMARK    5  A    between atoms: N_11  and  C_12
REMARK    6  A    between atoms: C_21  and  O_22
REMARK                            x       y       z     vdW  Elec       q    Type
REMARK                         _______ _______ _______ _____ _____    ______ ____
ROOT
ATOM      1  C   UNL     1       0.600  13.185  19.787  0.00  0.00    +0.000 A 
ATOM      2  C   UNL     1       1.290  12.652  18.695  0.00  0.00    +0.000 A 
ATOM      3  C   UNL     1       1.480  11.278  18.603  0.00  0.00    +0.000 A 
ATOM      4  C   UNL     1       1.017  10.405  19.608  0.00  0.00    +0.000 A 
ATOM      5  C   UNL     1       0.307  10.955  20.722  0.00  0.00    +0.000 A 
ATOM      6  C   UNL     1      -0.217  10.128  21.746  0.00  0.00    +0.000 A 
ATOM      7  C   UNL     1      -0.918  10.642  22.837  0.00  0.00    +0.000 A 
ATOM      8  C   UNL     1      -1.121  12.007  22.939  0.00  0.00    +0.000 A 
ATOM      9  C   UNL     1      -0.628  12.852  21.946  0.00  0.00    +0.000 A 
ATOM     10  C   UNL     1       0.092  12.360  20.823  0.00  0.00    +0.000 A 
ENDROOT
BRANCH   1  12
ATOM     11  O   UNL     1      -1.078  15.190  19.927  0.00  0.00    +0.000 OA
ATOM     12  S   UNL     1       0.342  14.941  19.811  0.00  0.00    +0.000 S 
ATOM     13  O   UNL     1       1.132  15.523  18.749  0.00  0.00    +0.000 OA
BRANCH  12  14
ATOM     14  O   UNL     1       0.981  15.473  21.195  0.00  0.00    +0.000 OA
ATOM     15  H   UNL     1       0.430  15.122  21.927  0.00  0.00    +0.000 HD
ENDBRANCH  12  14
ENDBRANCH   1  12
BRANCH   3  16
ATOM     16  O   UNL     1       2.093  10.784  17.480  0.00  0.00    +0.000 OA
ATOM     17  H   UNL     1       2.590   9.979  17.695  0.00  0.00    +0.000 HD
ENDBRANCH   3  16
BRANCH   4  18
ATOM     18  N   UNL     1       1.114   8.992  19.503  0.00  0.00    +0.000 NA
ATOM     19  N   UNL     1       2.253   8.564  19.210  0.00  0.00    +0.000 NA
BRANCH  19  20
ATOM     20  C   UNL     1       2.268   7.148  19.072  0.00  0.00    +0.000 A 
ATOM     21  C   UNL     1       2.567   6.522  17.853  0.00  0.00    +0.000 A 
ATOM     22  C   UNL     1       2.516   5.134  17.720  0.00  0.00    +0.000 A 
ATOM     23  C   UNL     1       2.181   4.318  18.806  0.00  0.00    +0.000 A 
ATOM     24  C   UNL     1       2.092   2.929  18.624  0.00  0.00    +0.000 A 
ATOM     25  C   UNL     1       1.759   2.084  19.681  0.00  0.00    +0.000 A 
ATOM     26  C   UNL     1       1.523   2.621  20.937  0.00  0.00    +0.000 A 
ATOM     27  C   UNL     1       1.607   4.006  21.134  0.00  0.00    +0.000 A 
ATOM     28  C   UNL     1       1.929   4.896  20.075  0.00  0.00    +0.000 A 
ATOM     29  C   UNL     1       1.993   6.320  20.181  0.00  0.00    +0.000 A 
BRANCH  29  30
ATOM     30  O   UNL     1       1.770   6.957  21.384  0.00  0.00    +0.000 OA
ATOM     31  H   UNL     1       0.887   7.351  21.388  0.00  0.00    +0.000 HD
ENDBRANCH  29  30
ENDBRANCH  19  20
ENDBRANCH   4  18
TORSDOF 6
ENDMDL
MODEL 4
REMARK VINA RESULT:      -7.8      2.895      8.307
REMARK  Name = 
REMARK  6 active torsions:
REMARK  status: ('A' for Active; 'I' for Inactive)
REMARK    1  A    between atoms: S_2  and  O_4
REMARK    2  A    between atoms: S_2  and  C_5
REMARK    3  A    between atoms: C_7  and  O_8
REMARK    4  A    between atoms: C_9  and  N_10
REMARK    5  A    between atoms: N_11  and  C_12
REMARK    6  A    between atoms: C_21  and  O_22
REMARK                            x       y       z     vdW  Elec       q    Type
REMARK                         _______ _______ _______ _____ _____    ______ ____
ROOT
ATOM      1  C   UNL     1       0.603  12.560  19.873  0.00  0.00    +0.000 A 
ATOM      2  C   UNL     1       1.271  12.036  18.763  0.00  0.00    +0.000 A 
ATOM      3  C   UNL     1       1.456  10.662  18.655  0.00  0.00    +0.000 A 
ATOM      4  C   UNL     1       1.011   9.782  19.662  0.00  0.00    +0.000 A 
ATOM      5  C   UNL     1       0.326  10.323  20.795  0.00  0.00    +0.000 A 
ATOM      6  C   UNL     1      -0.180   9.489  21.822  0.00  0.00    +0.000 A 
ATOM      7  C   UNL     1      -0.857   9.995  22.932  0.00  0.00    +0.000 A 
ATOM      8  C   UNL     1      -1.056  11.359  23.049  0.00  0.00    +0.000 A 
ATOM      9  C   UNL     1      -0.581  12.211  22.053  0.00  0.00    +0.000 A 
ATOM     10  C   UNL     1       0.115  11.728  20.912  0.00  0.00    +0.000 A 
ENDROOT
BRANCH   1  12
ATOM     11  O   UNL     1       1.050  14.849  21.065  0.00  0.00    +0.000 OA
ATOM     12  S   UNL     1       0.349  14.317  19.917  0.00  0.00    +0.000 S 
ATOM     13  O   UNL     1      -1.057  14.570  19.698  0.00  0.00    +0.000 OA
BRANCH  12  14
ATOM     14  O   UNL     1       1.123  14.917  18.632  0.00  0.00    +0.000 OA
ATOM     15  H   UNL     1       1.811  14.268  18.373  0.00  0.00    +0.000 HD
ENDBRANCH  12  14
ENDBRANCH   1  12
BRANCH   3  16
ATOM     16  O   UNL     1       2.045  10.177  17.516  0.00  0.00    +0.000 OA
ATOM     17  H   UNL     1       1.788  10.712  16.749  0.00  0.00    +0.000 HD
ENDBRANCH   3  16
BRANCH   4  18
ATOM     18  N   UNL     1       1.104   8.369  19.543  0.00  0.00    +0.000 NA
ATOM     19  N   UNL     1       2.141   7.868  20.030  0.00  0.00    +0.000 NA
BRANCH  19  20
ATOM     20  C   UNL     1       2.193   6.460  19.832  0.00  0.00    +0.000 A 
ATOM     21  C   UNL     1       1.608   5.559  20.733  0.00  0.00    +0.000 A 
ATOM     22  C   UNL     1       1.722   4.180  20.557  0.00  0.00    +0.000 A 
ATOM     23  C   UNL     1       2.411   3.649  19.461  0.00  0.00    +0.000 A 
ATOM     24  C   UNL     1       2.548   2.256  19.340  0.00  0.00    +0.000 A 
ATOM     25  C   UNL     1       3.230   1.691  18.265  0.00  0.00    +0.000 A 
ATOM     26  C   UNL     1       3.772   2.513  17.290  0.00  0.00    +0.000 A 
ATOM     27  C   UNL     1       3.645   3.905  17.398  0.00  0.00    +0.000 A 
ATOM     28  C   UNL     1       2.970   4.515  18.488  0.00  0.00    +0.000 A 
ATOM     29  C   UNL     1       2.833   5.922  18.694  0.00  0.00    +0.000 A 
BRANCH  29  30
ATOM     30  O   UNL     1       3.341   6.829  17.788  0.00  0.00    +0.000 OA
ATOM     31  H   UNL     1       3.838   6.363  17.101  0.00  0.00    +0.000 HD
ENDBRANCH  29  30
ENDBRANCH  19  20
ENDBRANCH   4  18
TORSDOF 6
ENDMDL
MODEL 5
REMARK VINA RESULT:      -7.8      1.482      1.822
REMARK  Name = 
REMARK  6 active torsions:
REMARK  status: ('A' for Active; 'I' for Inactive)
REMARK    1  A    between atoms: S_2  and  O_4
REMARK    2  A    between atoms: S_2  and  C_5
REMARK    3  A    between atoms: C_7  and  O_8
REMARK    4  A    between atoms: C_9  and  N_10
REMARK    5  A    between atoms: N_11  and  C_12
REMARK    6  A    between atoms: C_21  and  O_22
REMARK                            x       y       z     vdW  Elec       q    Type
REMARK                         _______ _______ _______ _____ _____    ______ ____
ROOT
ATOM      1  C   UNL     1       4.778   5.122  16.395  0.00  0.00    +0.000 A 
ATOM      2  C   UNL     1       4.968   6.495  16.564  0.00  0.00    +0.000 A 
ATOM      3  C   UNL     1       4.181   7.193  17.473  0.00  0.00    +0.000 A 
ATOM      4  C   UNL     1       3.168   6.549  18.211  0.00  0.00    +0.000 A 
ATOM      5  C   UNL     1       2.979   5.142  18.037  0.00  0.00    +0.000 A 
ATOM      6  C   UNL     1       2.004   4.429  18.777  0.00  0.00    +0.000 A 
ATOM      7  C   UNL     1       1.808   3.055  18.628  0.00  0.00    +0.000 A 
ATOM      8  C   UNL     1       2.588   2.346  17.732  0.00  0.00    +0.000 A 
ATOM      9  C   UNL     1       3.565   3.012  16.993  0.00  0.00    +0.000 A 
ATOM     10  C   UNL     1       3.788   4.409  17.120  0.00  0.00    +0.000 A 
ENDROOT
BRANCH   1  12
ATOM     11  O   UNL     1       7.175   4.869  15.371  0.00  0.00    +0.000 OA
ATOM     12  S   UNL     1       5.857   4.283  15.261  0.00  0.00    +0.000 S 
ATOM     13  O   UNL     1       5.174   4.176  13.992  0.00  0.00    +0.000 OA
BRANCH  12  14
ATOM     14  O   UNL     1       6.014   2.776  15.819  0.00  0.00    +0.000 OA
ATOM     15  H   UNL     1       6.896   2.710  16.245  0.00  0.00    +0.000 HD
ENDBRANCH  12  14
ENDBRANCH   1  12
BRANCH   3  16
ATOM     16  O   UNL     1       4.447   8.524  17.670  0.00  0.00    +0.000 OA
ATOM     17  H   UNL     1       4.792   8.670  18.565  0.00  0.00    +0.000 HD
ENDBRANCH   3  16
BRANCH   4  18
ATOM     18  N   UNL     1       2.407   7.212  19.212  0.00  0.00    +0.000 NA
ATOM     19  N   UNL     1       1.916   8.308  18.859  0.00  0.00    +0.000 NA
BRANCH  19  20
ATOM     20  C   UNL     1       1.211   8.939  19.921  0.00  0.00    +0.000 A 
ATOM     21  C   UNL     1       1.236   8.441  21.232  0.00  0.00    +0.000 A 
ATOM     22  C   UNL     1       0.489   9.036  22.249  0.00  0.00    +0.000 A 
ATOM     23  C   UNL     1      -0.299  10.164  21.996  0.00  0.00    +0.000 A 
ATOM     24  C   UNL     1      -1.075  10.709  23.031  0.00  0.00    +0.000 A 
ATOM     25  C   UNL     1      -1.874  11.830  22.818  0.00  0.00    +0.000 A 
ATOM     26  C   UNL     1      -1.895  12.428  21.567  0.00  0.00    +0.000 A 
ATOM     27  C   UNL     1      -1.126  11.895  20.524  0.00  0.00    +0.000 A 
ATOM     28  C   UNL     1      -0.312  10.744  20.704  0.00  0.00    +0.000 A 
ATOM     29  C   UNL     1       0.466  10.114  19.684  0.00  0.00    +0.000 A 
BRANCH  29  30
ATOM     30  O   UNL     1       0.512  10.624  18.403  0.00  0.00    +0.000 OA
ATOM     31  H   UNL     1       0.892  11.513  18.417  0.00  0.00    +0.000 HD
ENDBRANCH  29  30
ENDBRANCH  19  20
ENDBRANCH   4  18
TORSDOF 6
ENDMDL
MODEL 6
REMARK VINA RESULT:      -7.7      0.867      1.278
REMARK  Name = 
REMARK  6 active torsions:
REMARK  status: ('A' for Active; 'I' for Inactive)
REMARK    1  A    between atoms: S_2  and  O_4
REMARK    2  A    between atoms: S_2  and  C_5
REMARK    3  A    between atoms: C_7  and  O_8
REMARK    4  A    between atoms: C_9  and  N_10
REMARK    5  A    between atoms: N_11  and  C_12
REMARK    6  A    between atoms: C_21  and  O_22
REMARK                            x       y       z     vdW  Elec       q    Type
REMARK                         _______ _______ _______ _____ _____    ______ ____
ROOT
ATOM      1  C   UNL     1       3.965   6.359  17.664  0.00  0.00    +0.000 A 
ATOM      2  C   UNL     1       3.585   7.655  17.306  0.00  0.00    +0.000 A 
ATOM      3  C   UNL     1       2.628   8.325  18.058  0.00  0.00    +0.000 A 
ATOM      4  C   UNL     1       2.004   7.713  19.164  0.00  0.00    +0.000 A 
ATOM      5  C   UNL     1       2.399   6.387  19.528  0.00  0.00    +0.000 A 
ATOM      6  C   UNL     1       1.837   5.731  20.651  0.00  0.00    +0.000 A 
ATOM      7  C   UNL     1       2.212   4.441  21.029  0.00  0.00    +0.000 A 
ATOM      8  C   UNL     1       3.169   3.764  20.294  0.00  0.00    +0.000 A 
ATOM      9  C   UNL     1       3.751   4.381  19.188  0.00  0.00    +0.000 A 
ATOM     10  C   UNL     1       3.390   5.692  18.776  0.00  0.00    +0.000 A 
ENDROOT
BRANCH   1  12
ATOM     11  O   UNL     1       4.710   4.344  16.165  0.00  0.00    +0.000 OA
ATOM     12  S   UNL     1       5.236   5.584  16.695  0.00  0.00    +0.000 S 
ATOM     13  O   UNL     1       6.465   5.628  17.454  0.00  0.00    +0.000 OA
BRANCH  12  14
ATOM     14  O   UNL     1       5.464   6.532  15.408  0.00  0.00    +0.000 OA
ATOM     15  H   UNL     1       5.638   5.949  14.639  0.00  0.00    +0.000 HD
ENDBRANCH  12  14
ENDBRANCH   1  12
BRANCH   3  16
ATOM     16  O   UNL     1       2.337   9.623  17.726  0.00  0.00    +0.000 OA
ATOM     17  H   UNL     1       1.378   9.766  17.734  0.00  0.00    +0.000 HD
ENDBRANCH   3  16
BRANCH   4  18
ATOM     18  N   UNL     1       1.089   8.400  20.007  0.00  0.00    +0.000 NA
ATOM     19  N   UNL     1       1.174   9.647  19.968  0.00  0.00    +0.000 NA
BRANCH  19  20
ATOM     20  C   UNL     1       0.266  10.268  20.871  0.00  0.00    +0.000 A 
ATOM     21  C   UNL     1       0.115   9.830  22.194  0.00  0.00    +0.000 A 
ATOM     22  C   UNL     1      -0.824  10.409  23.047  0.00  0.00    +0.000 A 
ATOM     23  C   UNL     1      -1.636  11.463  22.614  0.00  0.00    +0.000 A 
ATOM     24  C   UNL     1      -2.604  11.992  23.484  0.00  0.00    +0.000 A 
ATOM     25  C   UNL     1      -3.433  13.039  23.087  0.00  0.00    +0.000 A 
ATOM     26  C   UNL     1      -3.293  13.579  21.818  0.00  0.00    +0.000 A 
ATOM     27  C   UNL     1      -2.332  13.062  20.939  0.00  0.00    +0.000 A 
ATOM     28  C   UNL     1      -1.482  11.985  21.306  0.00  0.00    +0.000 A 
ATOM     29  C   UNL     1      -0.509  11.373  20.456  0.00  0.00    +0.000 A 
BRANCH  29  30
ATOM     30  O   UNL     1      -0.293  11.829  19.173  0.00  0.00    +0.000 OA
ATOM     31  H   UNL     1      -0.975  11.483  18.582  0.00  0.00    +0.000 HD
ENDBRANCH  29  30
ENDBRANCH  19  20
ENDBRANCH   4  18
TORSDOF 6
ENDMDL
MODEL 7
REMARK VINA RESULT:      -7.7      3.617      9.094
REMARK  Name = 
REMARK  6 active torsions:
REMARK  status: ('A' for Active; 'I' for Inactive)
REMARK    1  A    between atoms: S_2  and  O_4
REMARK    2  A    between atoms: S_2  and  C_5
REMARK    3  A    between atoms: C_7  and  O_8
REMARK    4  A    between atoms: C_9  and  N_10
REMARK    5  A    between atoms: N_11  and  C_12
REMARK    6  A    between atoms: C_21  and  O_22
REMARK                            x       y       z     vdW  Elec       q    Type
REMARK                         _______ _______ _______ _____ _____    ______ ____
ROOT
ATOM      1  C   UNL     1      -1.996  12.297  20.678  0.00  0.00    +0.000 A 
ATOM      2  C   UNL     1      -0.834  11.999  21.394  0.00  0.00    +0.000 A 
ATOM      3  C   UNL     1       0.083  11.094  20.873  0.00  0.00    +0.000 A 
ATOM      4  C   UNL     1      -0.147  10.441  19.646  0.00  0.00    +0.000 A 
ATOM      5  C   UNL     1      -1.337  10.752  18.915  0.00  0.00    +0.000 A 
ATOM      6  C   UNL     1      -1.610  10.158  17.657  0.00  0.00    +0.000 A 
ATOM      7  C   UNL     1      -2.760  10.453  16.925  0.00  0.00    +0.000 A 
ATOM      8  C   UNL     1      -3.679  11.357  17.427  0.00  0.00    +0.000 A 
ATOM      9  C   UNL     1      -3.441  11.968  18.657  0.00  0.00    +0.000 A 
ATOM     10  C   UNL     1      -2.281  11.689  19.429  0.00  0.00    +0.000 A 
ENDROOT
BRANCH   1  12
ATOM     11  O   UNL     1      -4.381  12.880  21.589  0.00  0.00    +0.000 OA
ATOM     12  S   UNL     1      -3.095  13.506  21.374  0.00  0.00    +0.000 S 
ATOM     13  O   UNL     1      -2.960  14.725  20.608  0.00  0.00    +0.000 OA
BRANCH  12  14
ATOM     14  O   UNL     1      -2.529  13.834  22.850  0.00  0.00    +0.000 OA
ATOM     15  H   UNL     1      -2.913  13.173  23.466  0.00  0.00    +0.000 HD
ENDBRANCH  12  14
ENDBRANCH   1  12
BRANCH   3  16
ATOM     16  O   UNL     1       1.249  10.885  21.564  0.00  0.00    +0.000 OA
ATOM     17  H   UNL     1       1.078  10.361  22.363  0.00  0.00    +0.000 HD
ENDBRANCH   3  16
BRANCH   4  18
ATOM     18  N   UNL     1       0.808   9.580  19.042  0.00  0.00    +0.000 NA
ATOM     19  N   UNL     1       1.156   8.605  19.745  0.00  0.00    +0.000 NA
BRANCH  19  20
ATOM     20  C   UNL     1       2.148   7.815  19.102  0.00  0.00    +0.000 A 
ATOM     21  C   UNL     1       2.780   8.228  17.921  0.00  0.00    +0.000 A 
ATOM     22  C   UNL     1       3.705   7.413  17.269  0.00  0.00    +0.000 A 
ATOM     23  C   UNL     1       4.049   6.159  17.786  0.00  0.00    +0.000 A 
ATOM     24  C   UNL     1       4.948   5.344  17.080  0.00  0.00    +0.000 A 
ATOM     25  C   UNL     1       5.312   4.088  17.561  0.00  0.00    +0.000 A 
ATOM     26  C   UNL     1       4.788   3.638  18.763  0.00  0.00    +0.000 A 
ATOM     27  C   UNL     1       3.889   4.440  19.479  0.00  0.00    +0.000 A 
ATOM     28  C   UNL     1       3.486   5.718  19.009  0.00  0.00    +0.000 A 
ATOM     29  C   UNL     1       2.543   6.577  19.655  0.00  0.00    +0.000 A 
BRANCH  29  30
ATOM     30  O   UNL     1       1.959   6.224  20.853  0.00  0.00    +0.000 OA
ATOM     31  H   UNL     1       1.063   5.897  20.698  0.00  0.00    +0.000 HD
ENDBRANCH  29  30
ENDBRANCH  19  20
ENDBRANCH   4  18
TORSDOF 6
ENDMDL
MODEL 8
REMARK VINA RESULT:      -7.6      0.948      1.325
REMARK  Name = 
REMARK  6 active torsions:
REMARK  status: ('A' for Active; 'I' for Inactive)
REMARK    1  A    between atoms: S_2  and  O_4
REMARK    2  A    between atoms: S_2  and  C_5
REMARK    3  A    between atoms: C_7  and  O_8
REMARK    4  A    between atoms: C_9  and  N_10
REMARK    5  A    between atoms: N_11  and  C_12
REMARK    6  A    between atoms: C_21  and  O_22
REMARK                            x       y       z     vdW  Elec       q    Type
REMARK                         _______ _______ _______ _____ _____    ______ ____
ROOT
ATOM      1  C   UNL     1       4.762   5.454  17.202  0.00  0.00    +0.000 A 
ATOM      2  C   UNL     1       4.446   6.788  16.932  0.00  0.00    +0.000 A 
ATOM      3  C   UNL     1       3.576   7.474  17.771  0.00  0.00    +0.000 A 
ATOM      4  C   UNL     1       2.976   6.843  18.879  0.00  0.00    +0.000 A 
ATOM      5  C   UNL     1       3.305   5.478  19.154  0.00  0.00    +0.000 A 
ATOM      6  C   UNL     1       2.765   4.798  20.273  0.00  0.00    +0.000 A 
ATOM      7  C   UNL     1       3.078   3.470  20.564  0.00  0.00    +0.000 A 
ATOM      8  C   UNL     1       3.948   2.776  19.742  0.00  0.00    +0.000 A 
ATOM      9  C   UNL     1       4.507   3.415  18.636  0.00  0.00    +0.000 A 
ATOM     10  C   UNL     1       4.207   4.765  18.311  0.00  0.00    +0.000 A 
ENDROOT
BRANCH   1  12
ATOM     11  O   UNL     1       5.255   3.557  15.466  0.00  0.00    +0.000 OA
ATOM     12  S   UNL     1       5.926   4.657  16.124  0.00  0.00    +0.000 S 
ATOM     13  O   UNL     1       7.157   4.469  16.857  0.00  0.00    +0.000 OA
BRANCH  12  14
ATOM     14  O   UNL     1       6.255   5.717  14.951  0.00  0.00    +0.000 OA
ATOM     15  H   UNL     1       7.103   6.155  15.180  0.00  0.00    +0.000 HD
ENDBRANCH  12  14
ENDBRANCH   1  12
BRANCH   3  16
ATOM     16  O   UNL     1       3.350   8.803  17.520  0.00  0.00    +0.000 OA
ATOM     17  H   UNL     1       3.910   9.108  16.790  0.00  0.00    +0.000 HD
ENDBRANCH   3  16
BRANCH   4  18
ATOM     18  N   UNL     1       2.154   7.538  19.806  0.00  0.00    +0.000 NA
ATOM     19  N   UNL     1       1.620   8.578  19.360  0.00  0.00    +0.000 NA
BRANCH  19  20
ATOM     20  C   UNL     1       0.854   9.249  20.353  0.00  0.00    +0.000 A 
ATOM     21  C   UNL     1       0.505   8.636  21.565  0.00  0.00    +0.000 A 
ATOM     22  C   UNL     1      -0.299   9.286  22.501  0.00  0.00    +0.000 A 
ATOM     23  C   UNL     1      -0.772  10.582  22.268  0.00  0.00    +0.000 A 
ATOM     24  C   UNL     1      -1.619  11.188  23.210  0.00  0.00    +0.000 A 
ATOM     25  C   UNL     1      -2.111  12.476  23.011  0.00  0.00    +0.000 A 
ATOM     26  C   UNL     1      -1.751  13.178  21.871  0.00  0.00    +0.000 A 
ATOM     27  C   UNL     1      -0.907  12.586  20.922  0.00  0.00    +0.000 A 
ATOM     28  C   UNL     1      -0.399  11.269  21.086  0.00  0.00    +0.000 A 
ATOM     29  C   UNL     1       0.429  10.579  20.148  0.00  0.00    +0.000 A 
BRANCH  29  30
ATOM     30  O   UNL     1       0.842  11.184  18.979  0.00  0.00    +0.000 OA
ATOM     31  H   UNL     1       1.602  11.754  19.156  0.00  0.00    +0.000 HD
ENDBRANCH  29  30
ENDBRANCH  19  20
ENDBRANCH   4  18
TORSDOF 6
ENDMDL
MODEL 9
REMARK VINA RESULT:      -7.5      3.521      9.102
REMARK  Name = 
REMARK  6 active torsions:
REMARK  status: ('A' for Active; 'I' for Inactive)
REMARK    1  A    between atoms: S_2  and  O_4
REMARK    2  A    between atoms: S_2  and  C_5
REMARK    3  A    between atoms: C_7  and  O_8
REMARK    4  A    between atoms: C_9  and  N_10
REMARK    5  A    between atoms: N_11  and  C_12
REMARK    6  A    between atoms: C_21  and  O_22
REMARK                            x       y       z     vdW  Elec       q    Type
REMARK                         _______ _______ _______ _____ _____    ______ ____
ROOT
ATOM      1  C   UNL     1      -1.652  11.952  21.652  0.00  0.00    +0.000 A 
ATOM      2  C   UNL     1      -0.543  11.399  22.298  0.00  0.00    +0.000 A 
ATOM      3  C   UNL     1       0.306  10.547  21.602  0.00  0.00    +0.000 A 
ATOM      4  C   UNL     1       0.058  10.200  20.258  0.00  0.00    +0.000 A 
ATOM      5  C   UNL     1      -1.077  10.772  19.600  0.00  0.00    +0.000 A 
ATOM      6  C   UNL     1      -1.361  10.494  18.240  0.00  0.00    +0.000 A 
ATOM      7  C   UNL     1      -2.457  11.046  17.577  0.00  0.00    +0.000 A 
ATOM      8  C   UNL     1      -3.308  11.901  18.254  0.00  0.00    +0.000 A 
ATOM      9  C   UNL     1      -3.055  12.206  19.591  0.00  0.00    +0.000 A 
ATOM     10  C   UNL     1      -1.949  11.659  20.296  0.00  0.00    +0.000 A 
ENDROOT
BRANCH   1  12
ATOM     11  O   UNL     1      -1.883  13.567  23.700  0.00  0.00    +0.000 OA
ATOM     12  S   UNL     1      -2.661  13.078  22.583  0.00  0.00    +0.000 S 
ATOM     13  O   UNL     1      -3.957  12.467  22.767  0.00  0.00    +0.000 OA
BRANCH  12  14
ATOM     14  O   UNL     1      -2.896  14.363  21.634  0.00  0.00    +0.000 OA
ATOM     15  H   UNL     1      -3.858  14.420  21.449  0.00  0.00    +0.000 HD
ENDBRANCH  12  14
ENDBRANCH   1  12
BRANCH   3  16
ATOM     16  O   UNL     1       1.427  10.085  22.243  0.00  0.00    +0.000 OA
ATOM     17  H   UNL     1       1.372  10.271  23.194  0.00  0.00    +0.000 HD
ENDBRANCH   3  16
BRANCH   4  18
ATOM     18  N   UNL     1       0.952   9.406  19.492  0.00  0.00    +0.000 NA
ATOM     19  N   UNL     1       1.323   8.348  20.047  0.00  0.00    +0.000 NA
BRANCH  19  20
ATOM     20  C   UNL     1       2.254   7.628  19.248  0.00  0.00    +0.000 A 
ATOM     21  C   UNL     1       2.772   8.151  18.054  0.00  0.00    +0.000 A 
ATOM     22  C   UNL     1       3.635   7.406  17.250  0.00  0.00    +0.000 A 
ATOM     23  C   UNL     1       4.026   6.114  17.619  0.00  0.00    +0.000 A 
ATOM     24  C   UNL     1       4.858   5.374  16.763  0.00  0.00    +0.000 A 
ATOM     25  C   UNL     1       5.267   4.084  17.095  0.00  0.00    +0.000 A 
ATOM     26  C   UNL     1       4.858   3.524  18.295  0.00  0.00    +0.000 A 
ATOM     27  C   UNL     1       4.027   4.250  19.159  0.00  0.00    +0.000 A 
ATOM     28  C   UNL     1       3.580   5.561  18.845  0.00  0.00    +0.000 A 
ATOM     29  C   UNL     1       2.700   6.350  19.649  0.00  0.00    +0.000 A 
BRANCH  29  30
ATOM     30  O   UNL     1       2.230   5.886  20.859  0.00  0.00    +0.000 OA
ATOM     31  H   UNL     1       1.279   6.049  20.927  0.00  0.00    +0.000 HD
ENDBRANCH  29  30
ENDBRANCH  19  20
ENDBRANCH   4  18
TORSDOF 6
ENDMDL
