MODEL 1
REMARK VINA RESULT:      -7.4      0.000      0.000
REMARK  Name = 
REMARK  6 active torsions:
REMARK  status: ('A' for Active; 'I' for Inactive)
REMARK    1  A    between atoms: C_1  and  C_2
REMARK    2  A    between atoms: C_5  and  C_6
REMARK    3  A    between atoms: C_11  and  C_12
REMARK    4  A    between atoms: N_13  and  C_14
REMARK    5  A    between atoms: C_14  and  C_15
REMARK    6  A    between atoms: C_23  and  C_24
REMARK                            x       y       z     vdW  Elec       q    Type
REMARK                         _______ _______ _______ _____ _____    ______ ____
ROOT
ATOM      1  C   UNL     1       3.517   6.045  19.016  0.00  0.00    +0.000 C 
ATOM      2  O   UNL     1       3.810   5.427  20.037  0.00  0.00    +0.000 OA
ATOM      3  N   UNL     1       2.478   7.005  18.997  0.00  0.00    +0.000 N 
ATOM      4  C   UNL     1       2.025   7.720  17.803  0.00  0.00    +0.000 C 
ATOM      5  C   UNL     1       1.605   9.172  17.962  0.00  0.00    +0.000 C 
ATOM      6  C   UNL     1       0.361   9.348  18.840  0.00  0.00    +0.000 C 
ATOM      7  C   UNL     1      -0.536  10.441  18.230  0.00  0.00    +0.000 C 
ATOM      8  N   UNL     1       0.685   9.548  20.267  0.00  0.00    +0.000 NA
ATOM      9  C   UNL     1       1.662   8.565  20.806  0.00  0.00    +0.000 C 
ATOM     10  C   UNL     1       1.650   7.136  20.217  0.00  0.00    +0.000 C 
ENDROOT
BRANCH   1  15
ATOM     11  C   UNL     1       6.938   4.912  14.592  0.00  0.00    +0.000 C 
ATOM     12  C   UNL     1       5.980   5.240  15.691  0.00  0.00    +0.000 A 
ATOM     13  N   UNL     1       6.122   6.414  16.320  0.00  0.00    +0.000 NA
ATOM     14  C   UNL     1       5.257   6.650  17.328  0.00  0.00    +0.000 A 
ATOM     15  C   UNL     1       4.312   5.754  17.792  0.00  0.00    +0.000 A 
ATOM     16  C   UNL     1       4.151   4.630  16.991  0.00  0.00    +0.000 A 
ATOM     17  C   UNL     1       3.062   3.611  17.154  0.00  0.00    +0.000 C 
ATOM     18  N   UNL     1       5.008   4.352  15.967  0.00  0.00    +0.000 NA
ENDBRANCH   1  15
BRANCH   8  19
ATOM     19  C   UNL     1       1.112  10.933  20.567  0.00  0.00    +0.000 C 
BRANCH  19  20
ATOM     20  C   UNL     1       0.177  11.729  21.451  0.00  0.00    +0.000 A 
ATOM     21  C   UNL     1      -0.755  11.074  22.268  0.00  0.00    +0.000 A 
ATOM     22  C   UNL     1      -1.577  11.802  23.127  0.00  0.00    +0.000 A 
ATOM     23  C   UNL     1      -1.476  13.193  23.174  0.00  0.00    +0.000 A 
ATOM     24  C   UNL     1      -0.561  13.855  22.358  0.00  0.00    +0.000 A 
ATOM     25  C   UNL     1       0.265  13.127  21.501  0.00  0.00    +0.000 A 
ENDBRANCH  19  20
ENDBRANCH   8  19
TORSDOF 3
ENDMDL
MODEL 2
REMARK VINA RESULT:      -7.0      1.357      2.184
REMARK  Name = 
REMARK  6 active torsions:
REMARK  status: ('A' for Active; 'I' for Inactive)
REMARK    1  A    between atoms: C_1  and  C_2
REMARK    2  A    between atoms: C_5  and  C_6
REMARK    3  A    between atoms: C_11  and  C_12
REMARK    4  A    between atoms: N_13  and  C_14
REMARK    5  A    between atoms: C_14  and  C_15
REMARK    6  A    between atoms: C_23  and  C_24
REMARK                            x       y       z     vdW  Elec       q    Type
REMARK                         _______ _______ _______ _____ _____    ______ ____
ROOT
ATOM      1  C   UNL     1       4.366   4.871  17.990  0.00  0.00    +0.000 C 
ATOM      2  O   UNL     1       4.436   3.939  18.788  0.00  0.00    +0.000 OA
ATOM      3  N   UNL     1       3.391   5.890  18.116  0.00  0.00    +0.000 N 
ATOM      4  C   UNL     1       3.201   6.983  17.162  0.00  0.00    +0.000 C 
ATOM      5  C   UNL     1       2.823   8.348  17.715  0.00  0.00    +0.000 C 
ATOM      6  C   UNL     1       1.446   8.367  18.388  0.00  0.00    +0.000 C 
ATOM      7  C   UNL     1       0.728   9.681  18.029  0.00  0.00    +0.000 C 
ATOM      8  N   UNL     1       1.507   8.077  19.835  0.00  0.00    +0.000 NA
ATOM      9  C   UNL     1       2.322   6.881  20.176  0.00  0.00    +0.000 C 
ATOM     10  C   UNL     1       2.357   5.717  19.160  0.00  0.00    +0.000 C 
ENDROOT
BRANCH   1  15
ATOM     11  C   UNL     1       7.856   5.162  13.486  0.00  0.00    +0.000 C 
ATOM     12  C   UNL     1       6.998   5.023  14.701  0.00  0.00    +0.000 A 
ATOM     13  N   UNL     1       5.945   4.199  14.637  0.00  0.00    +0.000 NA
ATOM     14  C   UNL     1       5.179   4.134  15.746  0.00  0.00    +0.000 A 
ATOM     15  C   UNL     1       5.362   4.897  16.884  0.00  0.00    +0.000 A 
ATOM     16  C   UNL     1       6.552   5.612  16.906  0.00  0.00    +0.000 A 
ATOM     17  C   UNL     1       7.084   6.353  18.097  0.00  0.00    +0.000 C 
ATOM     18  N   UNL     1       7.350   5.709  15.804  0.00  0.00    +0.000 NA
ENDBRANCH   1  15
BRANCH   8  19
ATOM     19  C   UNL     1       1.932   9.249  20.635  0.00  0.00    +0.000 C 
BRANCH  19  20
ATOM     20  C   UNL     1       0.840   9.926  21.432  0.00  0.00    +0.000 A 
ATOM     21  C   UNL     1       0.191   9.242  22.470  0.00  0.00    +0.000 A 
ATOM     22  C   UNL     1      -0.774   9.884  23.245  0.00  0.00    +0.000 A 
ATOM     23  C   UNL     1      -1.101  11.216  22.986  0.00  0.00    +0.000 A 
ATOM     24  C   UNL     1      -0.472  11.901  21.950  0.00  0.00    +0.000 A 
ATOM     25  C   UNL     1       0.497  11.262  21.177  0.00  0.00    +0.000 A 
ENDBRANCH  19  20
ENDBRANCH   8  19
TORSDOF 3
ENDMDL
MODEL 3
REMARK VINA RESULT:      -6.7      2.422      4.138
REMARK  Name = 
REMARK  6 active torsions:
REMARK  status: ('A' for Active; 'I' for Inactive)
REMARK    1  A    between atoms: C_1  and  C_2
REMARK    2  A    between atoms: C_5  and  C_6
REMARK    3  A    between atoms: C_11  and  C_12
REMARK    4  A    between atoms: N_13  and  C_14
REMARK    5  A    between atoms: C_14  and  C_15
REMARK    6  A    between atoms: C_23  and  C_24
REMARK                            x       y       z     vdW  Elec       q    Type
REMARK                         _______ _______ _______ _____ _____    ______ ____
ROOT
ATOM      1  C   UNL     1       3.082   6.981  17.928  0.00  0.00    +0.000 C 
ATOM      2  O   UNL     1       3.347   7.260  16.761  0.00  0.00    +0.000 OA
ATOM      3  N   UNL     1       2.393   7.883  18.773  0.00  0.00    +0.000 N 
ATOM      4  C   UNL     1       2.114   7.650  20.191  0.00  0.00    +0.000 C 
ATOM      5  C   UNL     1       0.787   8.145  20.742  0.00  0.00    +0.000 C 
ATOM      6  C   UNL     1       0.653   9.672  20.714  0.00  0.00    +0.000 C 
ATOM      7  C   UNL     1      -0.042  10.141  22.006  0.00  0.00    +0.000 C 
ATOM      8  N   UNL     1       0.035  10.174  19.470  0.00  0.00    +0.000 NA
ATOM      9  C   UNL     1       0.627   9.603  18.231  0.00  0.00    +0.000 C 
ATOM     10  C   UNL     1       2.129   9.241  18.247  0.00  0.00    +0.000 C 
ENDROOT
BRANCH   1  15
ATOM     11  C   UNL     1       4.740   2.035  20.242  0.00  0.00    +0.000 C 
ATOM     12  C   UNL     1       4.330   3.298  19.554  0.00  0.00    +0.000 A 
ATOM     13  N   UNL     1       5.208   4.308  19.516  0.00  0.00    +0.000 NA
ATOM     14  C   UNL     1       4.780   5.438  18.918  0.00  0.00    +0.000 A 
ATOM     15  C   UNL     1       3.506   5.642  18.422  0.00  0.00    +0.000 A 
ATOM     16  C   UNL     1       2.719   4.498  18.382  0.00  0.00    +0.000 A 
ATOM     17  C   UNL     1       1.381   4.401  17.711  0.00  0.00    +0.000 C 
ATOM     18  N   UNL     1       3.113   3.338  18.983  0.00  0.00    +0.000 NA
ENDBRANCH   1  15
BRANCH   8  19
ATOM     19  C   UNL     1      -1.439  10.028  19.465  0.00  0.00    +0.000 C 
BRANCH  19  20
ATOM     20  C   UNL     1      -2.126  10.379  18.164  0.00  0.00    +0.000 A 
ATOM     21  C   UNL     1      -1.802   9.695  16.983  0.00  0.00    +0.000 A 
ATOM     22  C   UNL     1      -2.477   9.976  15.796  0.00  0.00    +0.000 A 
ATOM     23  C   UNL     1      -3.478  10.948  15.778  0.00  0.00    +0.000 A 
ATOM     24  C   UNL     1      -3.799  11.642  16.942  0.00  0.00    +0.000 A 
ATOM     25  C   UNL     1      -3.128  11.359  18.132  0.00  0.00    +0.000 A 
ENDBRANCH  19  20
ENDBRANCH   8  19
TORSDOF 3
ENDMDL
MODEL 4
REMARK VINA RESULT:      -6.6      2.264      8.612
REMARK  Name = 
REMARK  6 active torsions:
REMARK  status: ('A' for Active; 'I' for Inactive)
REMARK    1  A    between atoms: C_1  and  C_2
REMARK    2  A    between atoms: C_5  and  C_6
REMARK    3  A    between atoms: C_11  and  C_12
REMARK    4  A    between atoms: N_13  and  C_14
REMARK    5  A    between atoms: C_14  and  C_15
REMARK    6  A    between atoms: C_23  and  C_24
REMARK                            x       y       z     vdW  Elec       q    Type
REMARK                         _______ _______ _______ _____ _____    ______ ____
ROOT
ATOM      1  C   UNL     1       1.468  10.758  18.727  0.00  0.00    +0.000 C 
ATOM      2  O   UNL     1       1.845  11.241  17.661  0.00  0.00    +0.000 OA
ATOM      3  N   UNL     1       1.512   9.366  18.972  0.00  0.00    +0.000 N 
ATOM      4  C   UNL     1       1.008   8.717  20.184  0.00  0.00    +0.000 C 
ATOM      5  C   UNL     1       1.781   7.524  20.722  0.00  0.00    +0.000 C 
ATOM      6  C   UNL     1       1.769   6.319  19.776  0.00  0.00    +0.000 C 
ATOM      7  C   UNL     1       1.617   5.029  20.603  0.00  0.00    +0.000 C 
ATOM      8  N   UNL     1       2.908   6.312  18.835  0.00  0.00    +0.000 NA
ATOM      9  C   UNL     1       3.127   7.611  18.146  0.00  0.00    +0.000 C 
ATOM     10  C   UNL     1       1.890   8.487  17.843  0.00  0.00    +0.000 C 
ENDROOT
BRANCH   1  15
ATOM     11  C   UNL     1      -0.213  14.713  22.481  0.00  0.00    +0.000 C 
ATOM     12  C   UNL     1       0.208  13.614  21.560  0.00  0.00    +0.000 A 
ATOM     13  N   UNL     1       1.509  13.302  21.505  0.00  0.00    +0.000 NA
ATOM     14  C   UNL     1       1.844  12.329  20.633  0.00  0.00    +0.000 A 
ATOM     15  C   UNL     1       0.970  11.703  19.764  0.00  0.00    +0.000 A 
ATOM     16  C   UNL     1      -0.368  11.994  19.994  0.00  0.00    +0.000 A 
ATOM     17  C   UNL     1      -1.522  11.299  19.333  0.00  0.00    +0.000 C 
ATOM     18  N   UNL     1      -0.749  12.976  20.861  0.00  0.00    +0.000 NA
ENDBRANCH   1  15
BRANCH   8  19
ATOM     19  C   UNL     1       4.162   5.830  19.460  0.00  0.00    +0.000 C 
BRANCH  19  20
ATOM     20  C   UNL     1       5.216   5.323  18.501  0.00  0.00    +0.000 A 
ATOM     21  C   UNL     1       4.844   4.656  17.326  0.00  0.00    +0.000 A 
ATOM     22  C   UNL     1       5.812   4.241  16.412  0.00  0.00    +0.000 A 
ATOM     23  C   UNL     1       7.161   4.487  16.668  0.00  0.00    +0.000 A 
ATOM     24  C   UNL     1       7.543   5.138  17.838  0.00  0.00    +0.000 A 
ATOM     25  C   UNL     1       6.576   5.558  18.751  0.00  0.00    +0.000 A 
ENDBRANCH  19  20
ENDBRANCH   8  19
TORSDOF 3
ENDMDL
MODEL 5
REMARK VINA RESULT:      -6.6      1.019      1.532
REMARK  Name = 
REMARK  6 active torsions:
REMARK  status: ('A' for Active; 'I' for Inactive)
REMARK    1  A    between atoms: C_1  and  C_2
REMARK    2  A    between atoms: C_5  and  C_6
REMARK    3  A    between atoms: C_11  and  C_12
REMARK    4  A    between atoms: N_13  and  C_14
REMARK    5  A    between atoms: C_14  and  C_15
REMARK    6  A    between atoms: C_23  and  C_24
REMARK                            x       y       z     vdW  Elec       q    Type
REMARK                         _______ _______ _______ _____ _____    ______ ____
ROOT
ATOM      1  C   UNL     1       3.747   5.222  19.051  0.00  0.00    +0.000 C 
ATOM      2  O   UNL     1       3.808   4.455  20.009  0.00  0.00    +0.000 OA
ATOM      3  N   UNL     1       2.798   6.270  18.993  0.00  0.00    +0.000 N 
ATOM      4  C   UNL     1       2.618   7.169  17.852  0.00  0.00    +0.000 C 
ATOM      5  C   UNL     1       2.279   8.622  18.143  0.00  0.00    +0.000 C 
ATOM      6  C   UNL     1       0.913   8.802  18.814  0.00  0.00    +0.000 C 
ATOM      7  C   UNL     1       0.219  10.042  18.223  0.00  0.00    +0.000 C 
ATOM      8  N   UNL     1       0.989   8.788  20.290  0.00  0.00    +0.000 NA
ATOM      9  C   UNL     1       1.782   7.657  20.841  0.00  0.00    +0.000 C 
ATOM     10  C   UNL     1       1.776   6.322  20.062  0.00  0.00    +0.000 C 
ENDROOT
BRANCH   1  15
ATOM     11  C   UNL     1       7.267   4.744  14.585  0.00  0.00    +0.000 C 
ATOM     12  C   UNL     1       6.375   4.788  15.784  0.00  0.00    +0.000 A 
ATOM     13  N   UNL     1       5.108   4.381  15.641  0.00  0.00    +0.000 NA
ATOM     14  C   UNL     1       4.332   4.473  16.740  0.00  0.00    +0.000 A 
ATOM     15  C   UNL     1       4.727   5.015  17.949  0.00  0.00    +0.000 A 
ATOM     16  C   UNL     1       6.088   5.278  18.039  0.00  0.00    +0.000 A 
ATOM     17  C   UNL     1       6.802   5.675  19.296  0.00  0.00    +0.000 C 
ATOM     18  N   UNL     1       6.904   5.204  16.949  0.00  0.00    +0.000 NA
ENDBRANCH   1  15
BRANCH   8  19
ATOM     19  C   UNL     1       1.452  10.078  20.850  0.00  0.00    +0.000 C 
BRANCH  19  20
ATOM     20  C   UNL     1       0.397  10.898  21.559  0.00  0.00    +0.000 A 
ATOM     21  C   UNL     1      -0.446  10.302  22.507  0.00  0.00    +0.000 A 
ATOM     22  C   UNL     1      -1.378  11.069  23.205  0.00  0.00    +0.000 A 
ATOM     23  C   UNL     1      -1.478  12.438  22.957  0.00  0.00    +0.000 A 
ATOM     24  C   UNL     1      -0.654  13.039  22.008  0.00  0.00    +0.000 A 
ATOM     25  C   UNL     1       0.283  12.274  21.313  0.00  0.00    +0.000 A 
ENDBRANCH  19  20
ENDBRANCH   8  19
TORSDOF 3
ENDMDL
MODEL 6
REMARK VINA RESULT:      -6.4      2.362      8.925
REMARK  Name = 
REMARK  6 active torsions:
REMARK  status: ('A' for Active; 'I' for Inactive)
REMARK    1  A    between atoms: C_1  and  C_2
REMARK    2  A    between atoms: C_5  and  C_6
REMARK    3  A    between atoms: C_11  and  C_12
REMARK    4  A    between atoms: N_13  and  C_14
REMARK    5  A    between atoms: C_14  and  C_15
REMARK    6  A    between atoms: C_23  and  C_24
REMARK                            x       y       z     vdW  Elec       q    Type
REMARK                         _______ _______ _______ _____ _____    ______ ____
ROOT
ATOM      1  C   UNL     1       0.057  11.507  19.118  0.00  0.00    +0.000 C 
ATOM      2  O   UNL     1      -0.043  12.049  18.019  0.00  0.00    +0.000 OA
ATOM      3  N   UNL     1       0.432  10.149  19.248  0.00  0.00    +0.000 N 
ATOM      4  C   UNL     1       0.494   9.420  20.517  0.00  0.00    +0.000 C 
ATOM      5  C   UNL     1       1.606   8.398  20.692  0.00  0.00    +0.000 C 
ATOM      6  C   UNL     1       1.490   7.209  19.732  0.00  0.00    +0.000 C 
ATOM      7  C   UNL     1       1.863   5.917  20.482  0.00  0.00    +0.000 C 
ATOM      8  N   UNL     1       2.224   7.416  18.466  0.00  0.00    +0.000 NA
ATOM      9  C   UNL     1       1.958   8.731  17.825  0.00  0.00    +0.000 C 
ATOM     10  C   UNL     1       0.556   9.354  18.007  0.00  0.00    +0.000 C 
ENDROOT
BRANCH   1  15
ATOM     11  C   UNL     1      -1.142  14.329  23.930  0.00  0.00    +0.000 C 
ATOM     12  C   UNL     1      -0.832  13.669  22.625  0.00  0.00    +0.000 A 
ATOM     13  N   UNL     1      -1.844  13.123  21.939  0.00  0.00    +0.000 NA
ATOM     14  C   UNL     1      -1.510  12.508  20.786  0.00  0.00    +0.000 A 
ATOM     15  C   UNL     1      -0.220  12.344  20.318  0.00  0.00    +0.000 A 
ATOM     16  C   UNL     1       0.739  13.061  21.021  0.00  0.00    +0.000 A 
ATOM     17  C   UNL     1       2.171  13.218  20.603  0.00  0.00    +0.000 C 
ATOM     18  N   UNL     1       0.443  13.690  22.196  0.00  0.00    +0.000 NA
ENDBRANCH   1  15
BRANCH   8  19
ATOM     19  C   UNL     1       3.680   7.183  18.606  0.00  0.00    +0.000 C 
BRANCH  19  20
ATOM     20  C   UNL     1       4.288   6.230  17.601  0.00  0.00    +0.000 A 
ATOM     21  C   UNL     1       4.159   4.844  17.770  0.00  0.00    +0.000 A 
ATOM     22  C   UNL     1       4.666   3.965  16.814  0.00  0.00    +0.000 A 
ATOM     23  C   UNL     1       5.311   4.464  15.683  0.00  0.00    +0.000 A 
ATOM     24  C   UNL     1       5.456   5.839  15.510  0.00  0.00    +0.000 A 
ATOM     25  C   UNL     1       4.945   6.720  16.464  0.00  0.00    +0.000 A 
ENDBRANCH  19  20
ENDBRANCH   8  19
TORSDOF 3
ENDMDL
MODEL 7
REMARK VINA RESULT:      -6.3      4.206     10.574
REMARK  Name = 
REMARK  6 active torsions:
REMARK  status: ('A' for Active; 'I' for Inactive)
REMARK    1  A    between atoms: C_1  and  C_2
REMARK    2  A    between atoms: C_5  and  C_6
REMARK    3  A    between atoms: C_11  and  C_12
REMARK    4  A    between atoms: N_13  and  C_14
REMARK    5  A    between atoms: C_14  and  C_15
REMARK    6  A    between atoms: C_23  and  C_24
REMARK                            x       y       z     vdW  Elec       q    Type
REMARK                         _______ _______ _______ _____ _____    ______ ____
ROOT
ATOM      1  C   UNL     1      -3.341  12.572  23.386  0.00  0.00    +0.000 C 
ATOM      2  O   UNL     1      -3.671  11.629  24.101  0.00  0.00    +0.000 OA
ATOM      3  N   UNL     1      -2.113  12.582  22.683  0.00  0.00    +0.000 N 
ATOM      4  C   UNL     1      -1.623  13.702  21.878  0.00  0.00    +0.000 C 
ATOM      5  C   UNL     1      -0.862  13.378  20.602  0.00  0.00    +0.000 C 
ATOM      6  C   UNL     1       0.467  12.659  20.857  0.00  0.00    +0.000 C 
ATOM      7  C   UNL     1       1.531  13.208  19.889  0.00  0.00    +0.000 C 
ATOM      8  N   UNL     1       0.337  11.188  20.854  0.00  0.00    +0.000 NA
ATOM      9  C   UNL     1      -0.786  10.681  21.686  0.00  0.00    +0.000 C 
ATOM     10  C   UNL     1      -1.165  11.479  22.954  0.00  0.00    +0.000 C 
ENDROOT
BRANCH   1  15
ATOM     11  C   UNL     1      -7.336  16.635  23.069  0.00  0.00    +0.000 C 
ATOM     12  C   UNL     1      -6.235  15.624  23.102  0.00  0.00    +0.000 A 
ATOM     13  N   UNL     1      -6.261  14.636  22.200  0.00  0.00    +0.000 NA
ATOM     14  C   UNL     1      -5.267  13.728  22.292  0.00  0.00    +0.000 A 
ATOM     15  C   UNL     1      -4.296  13.710  23.275  0.00  0.00    +0.000 A 
ATOM     16  C   UNL     1      -4.270  14.846  24.073  0.00  0.00    +0.000 A 
ATOM     17  C   UNL     1      -3.198  15.167  25.072  0.00  0.00    +0.000 C 
ATOM     18  N   UNL     1      -5.260  15.783  24.016  0.00  0.00    +0.000 NA
ENDBRANCH   1  15
BRANCH   8  19
ATOM     19  C   UNL     1       0.275  10.623  19.486  0.00  0.00    +0.000 C 
BRANCH  19  20
ATOM     20  C   UNL     1       1.176   9.436  19.228  0.00  0.00    +0.000 A 
ATOM     21  C   UNL     1       1.321   8.431  20.195  0.00  0.00    +0.000 A 
ATOM     22  C   UNL     1       2.103   7.307  19.936  0.00  0.00    +0.000 A 
ATOM     23  C   UNL     1       2.753   7.180  18.707  0.00  0.00    +0.000 A 
ATOM     24  C   UNL     1       2.627   8.178  17.744  0.00  0.00    +0.000 A 
ATOM     25  C   UNL     1       1.840   9.301  18.000  0.00  0.00    +0.000 A 
ENDBRANCH  19  20
ENDBRANCH   8  19
TORSDOF 3
ENDMDL
MODEL 8
REMARK VINA RESULT:      -6.3      2.179      8.740
REMARK  Name = 
REMARK  6 active torsions:
REMARK  status: ('A' for Active; 'I' for Inactive)
REMARK    1  A    between atoms: C_1  and  C_2
REMARK    2  A    between atoms: C_5  and  C_6
REMARK    3  A    between atoms: C_11  and  C_12
REMARK    4  A    between atoms: N_13  and  C_14
REMARK    5  A    between atoms: C_14  and  C_15
REMARK    6  A    between atoms: C_23  and  C_24
REMARK                            x       y       z     vdW  Elec       q    Type
REMARK                         _______ _______ _______ _____ _____    ______ ____
ROOT
ATOM      1  C   UNL     1       1.218  10.709  18.954  0.00  0.00    +0.000 C 
ATOM      2  O   UNL     1       1.603  11.281  17.936  0.00  0.00    +0.000 OA
ATOM      3  N   UNL     1       1.341   9.309  19.115  0.00  0.00    +0.000 N 
ATOM      4  C   UNL     1       0.834   8.555  20.263  0.00  0.00    +0.000 C 
ATOM      5  C   UNL     1       1.661   7.379  20.758  0.00  0.00    +0.000 C 
ATOM      6  C   UNL     1       1.759   6.238  19.739  0.00  0.00    +0.000 C 
ATOM      7  C   UNL     1       1.658   4.892  20.479  0.00  0.00    +0.000 C 
ATOM      8  N   UNL     1       2.930   6.360  18.847  0.00  0.00    +0.000 NA
ATOM      9  C   UNL     1       3.091   7.711  18.248  0.00  0.00    +0.000 C 
ATOM     10  C   UNL     1       1.814   8.529  17.950  0.00  0.00    +0.000 C 
ENDROOT
BRANCH   1  15
ATOM     11  C   UNL     1      -1.063  13.571  23.332  0.00  0.00    +0.000 C 
ATOM     12  C   UNL     1      -0.494  12.888  22.130  0.00  0.00    +0.000 A 
ATOM     13  N   UNL     1      -1.233  11.945  21.533  0.00  0.00    +0.000 NA
ATOM     14  C   UNL     1      -0.663  11.332  20.475  0.00  0.00    +0.000 A 
ATOM     15  C   UNL     1       0.625  11.554  20.027  0.00  0.00    +0.000 A 
ATOM     16  C   UNL     1       1.256  12.642  20.618  0.00  0.00    +0.000 A 
ATOM     17  C   UNL     1       2.567  13.218  20.173  0.00  0.00    +0.000 C 
ATOM     18  N   UNL     1       0.716  13.284  21.694  0.00  0.00    +0.000 NA
ENDBRANCH   1  15
BRANCH   8  19
ATOM     19  C   UNL     1       4.187   5.915  19.490  0.00  0.00    +0.000 C 
BRANCH  19  20
ATOM     20  C   UNL     1       5.251   5.391  18.552  0.00  0.00    +0.000 A 
ATOM     21  C   UNL     1       4.891   4.789  17.337  0.00  0.00    +0.000 A 
ATOM     22  C   UNL     1       5.872   4.359  16.444  0.00  0.00    +0.000 A 
ATOM     23  C   UNL     1       7.221   4.524  16.759  0.00  0.00    +0.000 A 
ATOM     24  C   UNL     1       7.589   5.110  17.968  0.00  0.00    +0.000 A 
ATOM     25  C   UNL     1       6.610   5.544  18.861  0.00  0.00    +0.000 A 
ENDBRANCH  19  20
ENDBRANCH   8  19
TORSDOF 3
ENDMDL
MODEL 9
REMARK VINA RESULT:      -6.2      2.155      8.822
REMARK  Name = 
REMARK  6 active torsions:
REMARK  status: ('A' for Active; 'I' for Inactive)
REMARK    1  A    between atoms: C_1  and  C_2
REMARK    2  A    between atoms: C_5  and  C_6
REMARK    3  A    between atoms: C_11  and  C_12
REMARK    4  A    between atoms: N_13  and  C_14
REMARK    5  A    between atoms: C_14  and  C_15
REMARK    6  A    between atoms: C_23  and  C_24
REMARK                            x       y       z     vdW  Elec       q    Type
REMARK                         _______ _______ _______ _____ _____    ______ ____
ROOT
ATOM      1  C   UNL     1       0.866  10.809  18.978  0.00  0.00    +0.000 C 
ATOM      2  O   UNL     1       1.092  11.377  17.911  0.00  0.00    +0.000 OA
ATOM      3  N   UNL     1       1.105   9.425  19.152  0.00  0.00    +0.000 N 
ATOM      4  C   UNL     1       0.785   8.671  20.365  0.00  0.00    +0.000 C 
ATOM      5  C   UNL     1       1.744   7.569  20.786  0.00  0.00    +0.000 C 
ATOM      6  C   UNL     1       1.808   6.409  19.786  0.00  0.00    +0.000 C 
ATOM      7  C   UNL     1       1.887   5.080  20.560  0.00  0.00    +0.000 C 
ATOM      8  N   UNL     1       2.860   6.586  18.764  0.00  0.00    +0.000 NA
ATOM      9  C   UNL     1       2.857   7.928  18.124  0.00  0.00    +0.000 C 
ATOM     10  C   UNL     1       1.499   8.647  17.957  0.00  0.00    +0.000 C 
ENDROOT
BRANCH   1  15
ATOM     11  C   UNL     1      -1.201  13.610  23.500  0.00  0.00    +0.000 C 
ATOM     12  C   UNL     1      -0.681  12.948  22.264  0.00  0.00    +0.000 A 
ATOM     13  N   UNL     1      -1.493  12.107  21.612  0.00  0.00    +0.000 NA
ATOM     14  C   UNL     1      -0.969  11.506  20.524  0.00  0.00    +0.000 A 
ATOM     15  C   UNL     1       0.338  11.641  20.094  0.00  0.00    +0.000 A 
ATOM     16  C   UNL     1       1.054  12.636  20.747  0.00  0.00    +0.000 A 
ATOM     17  C   UNL     1       2.414  13.120  20.341  0.00  0.00    +0.000 C 
ATOM     18  N   UNL     1       0.562  13.261  21.856  0.00  0.00    +0.000 NA
ENDBRANCH   1  15
BRANCH   8  19
ATOM     19  C   UNL     1       4.210   6.247  19.269  0.00  0.00    +0.000 C 
BRANCH  19  20
ATOM     20  C   UNL     1       5.153   5.640  18.255  0.00  0.00    +0.000 A 
ATOM     21  C   UNL     1       6.533   5.602  18.503  0.00  0.00    +0.000 A 
ATOM     22  C   UNL     1       7.397   4.989  17.597  0.00  0.00    +0.000 A 
ATOM     23  C   UNL     1       6.890   4.412  16.432  0.00  0.00    +0.000 A 
ATOM     24  C   UNL     1       5.522   4.455  16.169  0.00  0.00    +0.000 A 
ATOM     25  C   UNL     1       4.656   5.064  17.077  0.00  0.00    +0.000 A 
ENDBRANCH  19  20
ENDBRANCH   8  19
TORSDOF 3
ENDMDL
