MODEL 1
REMARK VINA RESULT:      -7.6      0.000      0.000
REMARK  Name = 
REMARK  5 active torsions:
REMARK  status: ('A' for Active; 'I' for Inactive)
REMARK    1  A    between atoms: C_2  and  C_17
REMARK    2  A    between atoms: N_3  and  C_4
REMARK    3  A    between atoms: C_4  and  C_5
REMARK    4  A    between atoms: C_4  and  C_12
REMARK    5  A    between atoms: C_22  and  C_24
REMARK                            x       y       z     vdW  Elec       q    Type
REMARK                         _______ _______ _______ _____ _____    ______ ____
ROOT
ATOM      1  O   UNL     1       1.322   8.631  20.534  0.00  0.00    +0.000 OA
ATOM      2  C   UNL     1       1.559   8.643  19.328  0.00  0.00    +0.000 C 
ATOM      3  N   UNL     1       2.358   7.711  18.706  0.00  0.00    +0.000 N 
ATOM      4  H   UNL     1       2.321   7.670  17.695  0.00  0.00    +0.000 HD
ENDROOT
BRANCH   2   5
ATOM      5  C   UNL     1       0.878   9.688  18.435  0.00  0.00    +0.000 C 
ATOM      6  C   UNL     1       1.854  10.356  17.465  0.00  0.00    +0.000 C 
ATOM      7  C   UNL     1       2.644  11.504  18.090  0.00  0.00    +0.000 C 
ATOM      8  C   UNL     1       1.768  12.460  18.897  0.00  0.00    +0.000 C 
ATOM      9  N   UNL     1       0.901  11.736  19.830  0.00  0.00    +0.000 N 
ATOM     10  C   UNL     1       0.595  12.364  21.048  0.00  0.00    +0.000 C 
ATOM     11  O   UNL     1       1.092  13.450  21.343  0.00  0.00    +0.000 OA
ATOM     12  C   UNL     1       0.052  10.729  19.183  0.00  0.00    +0.000 C 
BRANCH  10  13
ATOM     13  C   UNL     1      -0.309  11.718  21.993  0.00  0.00    +0.000 A 
ATOM     14  C   UNL     1      -1.512  12.275  22.530  0.00  0.00    +0.000 A 
ATOM     15  C   UNL     1      -2.057  11.327  23.363  0.00  0.00    +0.000 A 
ATOM     16  O   UNL     1      -1.244  10.247  23.437  0.00  0.00    +0.000 OA
ATOM     17  C   UNL     1      -0.186  10.499  22.631  0.00  0.00    +0.000 A 
ENDBRANCH  10  13
ENDBRANCH   2   5
BRANCH   3  18
ATOM     18  C   UNL     1       3.014   6.576  19.386  0.00  0.00    +0.000 C 
BRANCH  18  19
ATOM     19  C   UNL     1       2.218   5.282  19.207  0.00  0.00    +0.000 A 
ATOM     20  C   UNL     1       1.698   4.573  20.308  0.00  0.00    +0.000 A 
ATOM     21  C   UNL     1       1.008   3.373  20.135  0.00  0.00    +0.000 A 
ATOM     22  C   UNL     1       0.845   2.851  18.855  0.00  0.00    +0.000 A 
ATOM     23  F   UNL     1       0.205   1.685  18.695  0.00  0.00    +0.000 F 
ATOM     24  C   UNL     1       1.349   3.520  17.752  0.00  0.00    +0.000 A 
ATOM     25  C   UNL     1       2.022   4.736  17.924  0.00  0.00    +0.000 A 
ENDBRANCH  18  19
BRANCH  18  26
ATOM     26  C   UNL     1       4.504   6.494  19.002  0.00  0.00    +0.000 C 
ATOM     27  C   UNL     1       5.146   5.135  19.293  0.00  0.00    +0.000 C 
ATOM     28  C   UNL     1       6.516   5.288  18.654  0.00  0.00    +0.000 C 
ATOM     29  C   UNL     1       6.275   6.138  17.405  0.00  0.00    +0.000 C 
ATOM     30  C   UNL     1       4.833   6.649  17.514  0.00  0.00    +0.000 C 
ENDBRANCH  18  26
ENDBRANCH   3  18
TORSDOF 5
ENDMDL
MODEL 2
REMARK VINA RESULT:      -7.5      2.281      4.804
REMARK  Name = 
REMARK  5 active torsions:
REMARK  status: ('A' for Active; 'I' for Inactive)
REMARK    1  A    between atoms: C_2  and  C_17
REMARK    2  A    between atoms: N_3  and  C_4
REMARK    3  A    between atoms: C_4  and  C_5
REMARK    4  A    between atoms: C_4  and  C_12
REMARK    5  A    between atoms: C_22  and  C_24
REMARK                            x       y       z     vdW  Elec       q    Type
REMARK                         _______ _______ _______ _____ _____    ______ ____
ROOT
ATOM      1  O   UNL     1       1.708   8.637  19.063  0.00  0.00    +0.000 OA
ATOM      2  C   UNL     1       1.830   8.016  20.116  0.00  0.00    +0.000 C 
ATOM      3  N   UNL     1       2.213   6.695  20.174  0.00  0.00    +0.000 N 
ATOM      4  H   UNL     1       2.494   6.334  21.077  0.00  0.00    +0.000 HD
ENDROOT
BRANCH   2   5
ATOM      5  C   UNL     1       1.630   8.745  21.451  0.00  0.00    +0.000 C 
ATOM      6  C   UNL     1       0.414   8.232  22.223  0.00  0.00    +0.000 C 
ATOM      7  C   UNL     1      -0.905   8.852  21.765  0.00  0.00    +0.000 C 
ATOM      8  C   UNL     1      -0.825  10.368  21.604  0.00  0.00    +0.000 C 
ATOM      9  N   UNL     1       0.343  10.764  20.813  0.00  0.00    +0.000 N 
ATOM     10  C   UNL     1       0.220  11.906  20.004  0.00  0.00    +0.000 C 
ATOM     11  O   UNL     1      -0.850  12.507  19.915  0.00  0.00    +0.000 OA
ATOM     12  C   UNL     1       1.613  10.267  21.354  0.00  0.00    +0.000 C 
BRANCH  10  13
ATOM     13  C   UNL     1       1.366  12.382  19.239  0.00  0.00    +0.000 A 
ATOM     14  C   UNL     1       2.015  13.648  19.386  0.00  0.00    +0.000 A 
ATOM     15  C   UNL     1       3.050  13.676  18.483  0.00  0.00    +0.000 A 
ATOM     16  O   UNL     1       3.050  12.546  17.736  0.00  0.00    +0.000 OA
ATOM     17  C   UNL     1       2.022  11.786  18.180  0.00  0.00    +0.000 A 
ENDBRANCH  10  13
ENDBRANCH   2   5
BRANCH   3  18
ATOM     18  C   UNL     1       2.545   5.863  19.000  0.00  0.00    +0.000 C 
BRANCH  18  19
ATOM     19  C   UNL     1       3.990   6.083  18.550  0.00  0.00    +0.000 A 
ATOM     20  C   UNL     1       4.306   6.876  17.429  0.00  0.00    +0.000 A 
ATOM     21  C   UNL     1       5.625   7.036  17.004  0.00  0.00    +0.000 A 
ATOM     22  C   UNL     1       6.650   6.387  17.684  0.00  0.00    +0.000 A 
ATOM     23  F   UNL     1       7.913   6.522  17.258  0.00  0.00    +0.000 F 
ATOM     24  C   UNL     1       6.374   5.595  18.787  0.00  0.00    +0.000 A 
ATOM     25  C   UNL     1       5.052   5.452  19.226  0.00  0.00    +0.000 A 
ENDBRANCH  18  19
BRANCH  18  26
ATOM     26  C   UNL     1       2.142   4.394  19.238  0.00  0.00    +0.000 C 
ATOM     27  C   UNL     1       1.146   4.203  20.385  0.00  0.00    +0.000 C 
ATOM     28  C   UNL     1       0.799   2.729  20.260  0.00  0.00    +0.000 C 
ATOM     29  C   UNL     1       0.801   2.450  18.756  0.00  0.00    +0.000 C 
ATOM     30  C   UNL     1       1.394   3.700  18.095  0.00  0.00    +0.000 C 
ENDBRANCH  18  26
ENDBRANCH   3  18
TORSDOF 5
ENDMDL
MODEL 3
REMARK VINA RESULT:      -7.4      2.406      4.553
REMARK  Name = 
REMARK  5 active torsions:
REMARK  status: ('A' for Active; 'I' for Inactive)
REMARK    1  A    between atoms: C_2  and  C_17
REMARK    2  A    between atoms: N_3  and  C_4
REMARK    3  A    between atoms: C_4  and  C_5
REMARK    4  A    between atoms: C_4  and  C_12
REMARK    5  A    between atoms: C_22  and  C_24
REMARK                            x       y       z     vdW  Elec       q    Type
REMARK                         _______ _______ _______ _____ _____    ______ ____
ROOT
ATOM      1  O   UNL     1       0.731   9.076  19.591  0.00  0.00    +0.000 OA
ATOM      2  C   UNL     1       1.327   8.723  20.606  0.00  0.00    +0.000 C 
ATOM      3  N   UNL     1       1.892   7.477  20.753  0.00  0.00    +0.000 N 
ATOM      4  H   UNL     1       2.540   7.351  21.521  0.00  0.00    +0.000 HD
ENDROOT
BRANCH   2   5
ATOM      5  C   UNL     1       1.536   9.726  21.747  0.00  0.00    +0.000 C 
ATOM      6  C   UNL     1       1.140   9.155  23.110  0.00  0.00    +0.000 C 
ATOM      7  C   UNL     1      -0.358   9.246  23.396  0.00  0.00    +0.000 C 
ATOM      8  C   UNL     1      -0.946  10.615  23.066  0.00  0.00    +0.000 C 
ATOM      9  N   UNL     1      -0.553  11.060  21.726  0.00  0.00    +0.000 N 
ATOM     10  C   UNL     1      -1.471  11.845  21.009  0.00  0.00    +0.000 C 
ATOM     11  O   UNL     1      -2.587  12.090  21.466  0.00  0.00    +0.000 OA
ATOM     12  C   UNL     1       0.900  11.094  21.522  0.00  0.00    +0.000 C 
BRANCH  10  13
ATOM     13  C   UNL     1      -1.113  12.366  19.695  0.00  0.00    +0.000 A 
ATOM     14  C   UNL     1      -0.358  13.551  19.431  0.00  0.00    +0.000 A 
ATOM     15  C   UNL     1      -0.243  13.658  18.066  0.00  0.00    +0.000 A 
ATOM     16  O   UNL     1      -0.930  12.661  17.459  0.00  0.00    +0.000 OA
ATOM     17  C   UNL     1      -1.470  11.904  18.443  0.00  0.00    +0.000 A 
ENDBRANCH  10  13
ENDBRANCH   2   5
BRANCH   3  18
ATOM     18  C   UNL     1       1.879   6.419  19.724  0.00  0.00    +0.000 C 
BRANCH  18  19
ATOM     19  C   UNL     1       3.213   6.349  18.977  0.00  0.00    +0.000 A 
ATOM     20  C   UNL     1       3.424   7.042  17.769  0.00  0.00    +0.000 A 
ATOM     21  C   UNL     1       4.630   6.939  17.076  0.00  0.00    +0.000 A 
ATOM     22  C   UNL     1       5.641   6.122  17.574  0.00  0.00    +0.000 A 
ATOM     23  F   UNL     1       6.789   6.005  16.892  0.00  0.00    +0.000 F 
ATOM     24  C   UNL     1       5.464   5.423  18.757  0.00  0.00    +0.000 A 
ATOM     25  C   UNL     1       4.261   5.544  19.463  0.00  0.00    +0.000 A 
ENDBRANCH  18  19
BRANCH  18  26
ATOM     26  C   UNL     1       1.382   5.085  20.315  0.00  0.00    +0.000 C 
ATOM     27  C   UNL     1       1.297   3.948  19.294  0.00  0.00    +0.000 C 
ATOM     28  C   UNL     1       0.975   2.753  20.176  0.00  0.00    +0.000 C 
ATOM     29  C   UNL     1       1.746   3.003  21.474  0.00  0.00    +0.000 C 
ATOM     30  C   UNL     1       2.271   4.440  21.384  0.00  0.00    +0.000 C 
ENDBRANCH  18  26
ENDBRANCH   3  18
TORSDOF 5
ENDMDL
MODEL 4
REMARK VINA RESULT:      -7.3      0.444      1.180
REMARK  Name = 
REMARK  5 active torsions:
REMARK  status: ('A' for Active; 'I' for Inactive)
REMARK    1  A    between atoms: C_2  and  C_17
REMARK    2  A    between atoms: N_3  and  C_4
REMARK    3  A    between atoms: C_4  and  C_5
REMARK    4  A    between atoms: C_4  and  C_12
REMARK    5  A    between atoms: C_22  and  C_24
REMARK                            x       y       z     vdW  Elec       q    Type
REMARK                         _______ _______ _______ _____ _____    ______ ____
ROOT
ATOM      1  O   UNL     1       1.516   8.521  20.363  0.00  0.00    +0.000 OA
ATOM      2  C   UNL     1       1.735   8.614  19.157  0.00  0.00    +0.000 C 
ATOM      3  N   UNL     1       2.576   7.765  18.475  0.00  0.00    +0.000 N 
ATOM      4  H   UNL     1       2.527   7.778  17.464  0.00  0.00    +0.000 HD
ENDROOT
BRANCH   2   5
ATOM      5  C   UNL     1       0.983   9.666  18.332  0.00  0.00    +0.000 C 
ATOM      6  C   UNL     1       1.898  10.411  17.359  0.00  0.00    +0.000 C 
ATOM      7  C   UNL     1       2.664  11.564  18.005  0.00  0.00    +0.000 C 
ATOM      8  C   UNL     1       1.780  12.450  18.880  0.00  0.00    +0.000 C 
ATOM      9  N   UNL     1       0.975  11.654  19.810  0.00  0.00    +0.000 N 
ATOM     10  C   UNL     1       0.687  12.220  21.063  0.00  0.00    +0.000 C 
ATOM     11  O   UNL     1       1.151  13.312  21.387  0.00  0.00    +0.000 OA
ATOM     12  C   UNL     1       0.143  10.642  19.150  0.00  0.00    +0.000 C 
BRANCH  10  13
ATOM     13  C   UNL     1      -0.158  11.500  22.010  0.00  0.00    +0.000 A 
ATOM     14  C   UNL     1       0.079  10.190  22.530  0.00  0.00    +0.000 A 
ATOM     15  C   UNL     1      -0.951   9.908  23.395  0.00  0.00    +0.000 A 
ATOM     16  O   UNL     1      -1.849  10.922  23.398  0.00  0.00    +0.000 OA
ATOM     17  C   UNL     1      -1.378  11.863  22.546  0.00  0.00    +0.000 A 
ENDBRANCH  10  13
ENDBRANCH   2   5
BRANCH   3  18
ATOM     18  C   UNL     1       3.305   6.634  19.083  0.00  0.00    +0.000 C 
BRANCH  18  19
ATOM     19  C   UNL     1       2.480   5.346  19.033  0.00  0.00    +0.000 A 
ATOM     20  C   UNL     1       2.121   4.743  17.812  0.00  0.00    +0.000 A 
ATOM     21  C   UNL     1       1.334   3.591  17.779  0.00  0.00    +0.000 A 
ATOM     22  C   UNL     1       0.877   3.035  18.969  0.00  0.00    +0.000 A 
ATOM     23  F   UNL     1       0.100   1.944  18.932  0.00  0.00    +0.000 F 
ATOM     24  C   UNL     1       1.208   3.607  20.187  0.00  0.00    +0.000 A 
ATOM     25  C   UNL     1       2.016   4.750  20.221  0.00  0.00    +0.000 A 
ENDBRANCH  18  19
BRANCH  18  26
ATOM     26  C   UNL     1       4.732   6.528  18.508  0.00  0.00    +0.000 C 
ATOM     27  C   UNL     1       5.431   5.204  18.824  0.00  0.00    +0.000 C 
ATOM     28  C   UNL     1       6.698   5.309  17.993  0.00  0.00    +0.000 C 
ATOM     29  C   UNL     1       6.276   6.047  16.722  0.00  0.00    +0.000 C 
ATOM     30  C   UNL     1       4.854   6.557  16.981  0.00  0.00    +0.000 C 
ENDBRANCH  18  26
ENDBRANCH   3  18
TORSDOF 5
ENDMDL
MODEL 5
REMARK VINA RESULT:      -7.3      2.143      4.639
REMARK  Name = 
REMARK  5 active torsions:
REMARK  status: ('A' for Active; 'I' for Inactive)
REMARK    1  A    between atoms: C_2  and  C_17
REMARK    2  A    between atoms: N_3  and  C_4
REMARK    3  A    between atoms: C_4  and  C_5
REMARK    4  A    between atoms: C_4  and  C_12
REMARK    5  A    between atoms: C_22  and  C_24
REMARK                            x       y       z     vdW  Elec       q    Type
REMARK                         _______ _______ _______ _____ _____    ______ ____
ROOT
ATOM      1  O   UNL     1       0.116   8.549  20.339  0.00  0.00    +0.000 OA
ATOM      2  C   UNL     1       1.025   8.307  21.129  0.00  0.00    +0.000 C 
ATOM      3  N   UNL     1       1.874   7.232  20.998  0.00  0.00    +0.000 N 
ATOM      4  H   UNL     1       2.715   7.234  21.562  0.00  0.00    +0.000 HD
ENDROOT
BRANCH   2   5
ATOM      5  C   UNL     1       1.303   9.281  22.282  0.00  0.00    +0.000 C 
ATOM      6  C   UNL     1       0.226   9.225  23.367  0.00  0.00    +0.000 C 
ATOM      7  C   UNL     1      -1.008  10.066  23.045  0.00  0.00    +0.000 C 
ATOM      8  C   UNL     1      -0.660  11.464  22.539  0.00  0.00    +0.000 C 
ATOM      9  N   UNL     1       0.342  11.416  21.472  0.00  0.00    +0.000 N 
ATOM     10  C   UNL     1       0.267  12.397  20.469  0.00  0.00    +0.000 C 
ATOM     11  O   UNL     1      -0.647  13.221  20.456  0.00  0.00    +0.000 OA
ATOM     12  C   UNL     1       1.575  10.719  21.855  0.00  0.00    +0.000 C 
BRANCH  10  13
ATOM     13  C   UNL     1       1.271  12.436  19.412  0.00  0.00    +0.000 A 
ATOM     14  C   UNL     1       2.079  13.559  19.053  0.00  0.00    +0.000 A 
ATOM     15  C   UNL     1       2.894  13.155  18.023  0.00  0.00    +0.000 A 
ATOM     16  O   UNL     1       2.603  11.881  17.669  0.00  0.00    +0.000 OA
ATOM     17  C   UNL     1       1.612  11.464  18.491  0.00  0.00    +0.000 A 
ENDBRANCH  10  13
ENDBRANCH   2   5
BRANCH   3  18
ATOM     18  C   UNL     1       1.823   6.248  19.897  0.00  0.00    +0.000 C 
BRANCH  18  19
ATOM     19  C   UNL     1       3.131   6.229  19.105  0.00  0.00    +0.000 A 
ATOM     20  C   UNL     1       4.251   5.493  19.540  0.00  0.00    +0.000 A 
ATOM     21  C   UNL     1       5.452   5.516  18.830  0.00  0.00    +0.000 A 
ATOM     22  C   UNL     1       5.557   6.291  17.680  0.00  0.00    +0.000 A 
ATOM     23  F   UNL     1       6.719   6.331  17.015  0.00  0.00    +0.000 F 
ATOM     24  C   UNL     1       4.476   7.031  17.227  0.00  0.00    +0.000 A 
ATOM     25  C   UNL     1       3.264   6.991  17.929  0.00  0.00    +0.000 A 
ENDBRANCH  18  19
BRANCH  18  26
ATOM     26  C   UNL     1       1.338   4.877  20.409  0.00  0.00    +0.000 C 
ATOM     27  C   UNL     1       1.305   3.790  19.332  0.00  0.00    +0.000 C 
ATOM     28  C   UNL     1       0.986   2.548  20.147  0.00  0.00    +0.000 C 
ATOM     29  C   UNL     1       1.717   2.749  21.475  0.00  0.00    +0.000 C 
ATOM     30  C   UNL     1       2.212   4.200  21.470  0.00  0.00    +0.000 C 
ENDBRANCH  18  26
ENDBRANCH   3  18
TORSDOF 5
ENDMDL
MODEL 6
REMARK VINA RESULT:      -7.3      0.705      1.230
REMARK  Name = 
REMARK  5 active torsions:
REMARK  status: ('A' for Active; 'I' for Inactive)
REMARK    1  A    between atoms: C_2  and  C_17
REMARK    2  A    between atoms: N_3  and  C_4
REMARK    3  A    between atoms: C_4  and  C_5
REMARK    4  A    between atoms: C_4  and  C_12
REMARK    5  A    between atoms: C_22  and  C_24
REMARK                            x       y       z     vdW  Elec       q    Type
REMARK                         _______ _______ _______ _____ _____    ______ ____
ROOT
ATOM      1  O   UNL     1       1.806   8.197  20.228  0.00  0.00    +0.000 OA
ATOM      2  C   UNL     1       1.913   8.259  19.006  0.00  0.00    +0.000 C 
ATOM      3  N   UNL     1       2.655   7.367  18.266  0.00  0.00    +0.000 N 
ATOM      4  H   UNL     1       2.511   7.364  17.264  0.00  0.00    +0.000 HD
ENDROOT
BRANCH   2   5
ATOM      5  C   UNL     1       1.125   9.324  18.232  0.00  0.00    +0.000 C 
ATOM      6  C   UNL     1       1.999  10.095  17.241  0.00  0.00    +0.000 C 
ATOM      7  C   UNL     1       2.784  11.238  17.882  0.00  0.00    +0.000 C 
ATOM      8  C   UNL     1       1.930  12.101  18.808  0.00  0.00    +0.000 C 
ATOM      9  N   UNL     1       1.165  11.281  19.752  0.00  0.00    +0.000 N 
ATOM     10  C   UNL     1       0.923  11.819  21.027  0.00  0.00    +0.000 C 
ATOM     11  O   UNL     1       1.395  12.907  21.355  0.00  0.00    +0.000 OA
ATOM     12  C   UNL     1       0.314  10.279  19.102  0.00  0.00    +0.000 C 
BRANCH  10  13
ATOM     13  C   UNL     1       0.118  11.075  21.989  0.00  0.00    +0.000 A 
ATOM     14  C   UNL     1       0.425   9.790  22.536  0.00  0.00    +0.000 A 
ATOM     15  C   UNL     1      -0.588   9.472  23.408  0.00  0.00    +0.000 A 
ATOM     16  O   UNL     1      -1.539  10.437  23.392  0.00  0.00    +0.000 OA
ATOM     17  C   UNL     1      -1.119  11.383  22.520  0.00  0.00    +0.000 A 
ENDBRANCH  10  13
ENDBRANCH   2   5
BRANCH   3  18
ATOM     18  C   UNL     1       3.396   6.219  18.827  0.00  0.00    +0.000 C 
BRANCH  18  19
ATOM     19  C   UNL     1       2.524   4.963  18.879  0.00  0.00    +0.000 A 
ATOM     20  C   UNL     1       1.710   4.671  19.991  0.00  0.00    +0.000 A 
ATOM     21  C   UNL     1       0.951   3.502  20.044  0.00  0.00    +0.000 A 
ATOM     22  C   UNL     1       1.010   2.594  18.991  0.00  0.00    +0.000 A 
ATOM     23  F   UNL     1       0.300   1.460  19.057  0.00  0.00    +0.000 F 
ATOM     24  C   UNL     1       1.806   2.848  17.885  0.00  0.00    +0.000 A 
ATOM     25  C   UNL     1       2.551   4.032  17.823  0.00  0.00    +0.000 A 
ENDBRANCH  18  19
BRANCH  18  26
ATOM     26  C   UNL     1       4.758   6.051  18.126  0.00  0.00    +0.000 C 
ATOM     27  C   UNL     1       5.359   7.364  17.616  0.00  0.00    +0.000 C 
ATOM     28  C   UNL     1       6.741   6.924  17.162  0.00  0.00    +0.000 C 
ATOM     29  C   UNL     1       7.160   5.845  18.162  0.00  0.00    +0.000 C 
ATOM     30  C   UNL     1       5.910   5.530  18.992  0.00  0.00    +0.000 C 
ENDBRANCH  18  26
ENDBRANCH   3  18
TORSDOF 5
ENDMDL
MODEL 7
REMARK VINA RESULT:      -7.2      3.404      6.688
REMARK  Name = 
REMARK  5 active torsions:
REMARK  status: ('A' for Active; 'I' for Inactive)
REMARK    1  A    between atoms: C_2  and  C_17
REMARK    2  A    between atoms: N_3  and  C_4
REMARK    3  A    between atoms: C_4  and  C_5
REMARK    4  A    between atoms: C_4  and  C_12
REMARK    5  A    between atoms: C_22  and  C_24
REMARK                            x       y       z     vdW  Elec       q    Type
REMARK                         _______ _______ _______ _____ _____    ______ ____
ROOT
ATOM      1  O   UNL     1       2.210  12.895  18.815  0.00  0.00    +0.000 OA
ATOM      2  C   UNL     1       1.477  12.715  19.785  0.00  0.00    +0.000 C 
ATOM      3  N   UNL     1       0.511  11.737  19.830  0.00  0.00    +0.000 N 
ATOM      4  H   UNL     1       0.110  11.523  20.735  0.00  0.00    +0.000 HD
ENDROOT
BRANCH   2   5
ATOM      5  C   UNL     1       1.683  13.554  21.053  0.00  0.00    +0.000 C 
ATOM      6  C   UNL     1       0.385  14.195  21.548  0.00  0.00    +0.000 C 
ATOM      7  C   UNL     1       0.035  15.496  20.827  0.00  0.00    +0.000 C 
ATOM      8  C   UNL     1       1.224  16.444  20.696  0.00  0.00    +0.000 C 
ATOM      9  N   UNL     1       2.406  15.754  20.172  0.00  0.00    +0.000 N 
ATOM     10  C   UNL     1       3.282  16.496  19.363  0.00  0.00    +0.000 C 
ATOM     11  O   UNL     1       3.027  17.660  19.055  0.00  0.00    +0.000 OA
ATOM     12  C   UNL     1       2.803  14.585  20.965  0.00  0.00    +0.000 C 
BRANCH  10  13
ATOM     13  C   UNL     1       4.505  15.882  18.860  0.00  0.00    +0.000 A 
ATOM     14  C   UNL     1       5.825  16.082  19.369  0.00  0.00    +0.000 A 
ATOM     15  C   UNL     1       6.670  15.304  18.615  0.00  0.00    +0.000 A 
ATOM     16  O   UNL     1       5.979  14.686  17.628  0.00  0.00    +0.000 OA
ATOM     17  C   UNL     1       4.685  15.057  17.767  0.00  0.00    +0.000 A 
ENDBRANCH  10  13
ENDBRANCH   2   5
BRANCH   3  18
ATOM     18  C   UNL     1       0.238  10.772  18.746  0.00  0.00    +0.000 C 
BRANCH  18  19
ATOM     19  C   UNL     1       1.031   9.477  18.938  0.00  0.00    +0.000 A 
ATOM     20  C   UNL     1       1.073   8.810  20.178  0.00  0.00    +0.000 A 
ATOM     21  C   UNL     1       1.832   7.653  20.351  0.00  0.00    +0.000 A 
ATOM     22  C   UNL     1       2.578   7.154  19.288  0.00  0.00    +0.000 A 
ATOM     23  F   UNL     1       3.327   6.057  19.466  0.00  0.00    +0.000 F 
ATOM     24  C   UNL     1       2.563   7.789  18.057  0.00  0.00    +0.000 A 
ATOM     25  C   UNL     1       1.784   8.939  17.877  0.00  0.00    +0.000 A 
ENDBRANCH  18  19
BRANCH  18  26
ATOM     26  C   UNL     1      -1.279  10.594  18.539  0.00  0.00    +0.000 C 
ATOM     27  C   UNL     1      -2.045  11.913  18.404  0.00  0.00    +0.000 C 
ATOM     28  C   UNL     1      -3.437  11.434  18.028  0.00  0.00    +0.000 C 
ATOM     29  C   UNL     1      -3.206  10.208  17.142  0.00  0.00    +0.000 C 
ATOM     30  C   UNL     1      -1.712   9.883  17.253  0.00  0.00    +0.000 C 
ENDBRANCH  18  26
ENDBRANCH   3  18
TORSDOF 5
ENDMDL
MODEL 8
REMARK VINA RESULT:      -7.2      2.184      4.619
REMARK  Name = 
REMARK  5 active torsions:
REMARK  status: ('A' for Active; 'I' for Inactive)
REMARK    1  A    between atoms: C_2  and  C_17
REMARK    2  A    between atoms: N_3  and  C_4
REMARK    3  A    between atoms: C_4  and  C_5
REMARK    4  A    between atoms: C_4  and  C_12
REMARK    5  A    between atoms: C_22  and  C_24
REMARK                            x       y       z     vdW  Elec       q    Type
REMARK                         _______ _______ _______ _____ _____    ______ ____
ROOT
ATOM      1  O   UNL     1       1.354   8.912  19.186  0.00  0.00    +0.000 OA
ATOM      2  C   UNL     1       1.671   8.273  20.187  0.00  0.00    +0.000 C 
ATOM      3  N   UNL     1       2.150   6.984  20.139  0.00  0.00    +0.000 N 
ATOM      4  H   UNL     1       2.584   6.620  20.978  0.00  0.00    +0.000 HD
ENDROOT
BRANCH   2   5
ATOM      5  C   UNL     1       1.616   8.949  21.562  0.00  0.00    +0.000 C 
ATOM      6  C   UNL     1       0.426   8.477  22.401  0.00  0.00    +0.000 C 
ATOM      7  C   UNL     1      -0.878   9.200  22.069  0.00  0.00    +0.000 C 
ATOM      8  C   UNL     1      -0.709  10.714  21.968  0.00  0.00    +0.000 C 
ATOM      9  N   UNL     1       0.423  11.073  21.110  0.00  0.00    +0.000 N 
ATOM     10  C   UNL     1       0.318  12.258  20.363  0.00  0.00    +0.000 C 
ATOM     11  O   UNL     1      -0.713  12.928  20.380  0.00  0.00    +0.000 OA
ATOM     12  C   UNL     1       1.693  10.472  21.532  0.00  0.00    +0.000 C 
BRANCH  10  13
ATOM     13  C   UNL     1       1.436  12.697  19.535  0.00  0.00    +0.000 A 
ATOM     14  C   UNL     1       2.188  13.902  19.699  0.00  0.00    +0.000 A 
ATOM     15  C   UNL     1       3.151  13.911  18.719  0.00  0.00    +0.000 A 
ATOM     16  O   UNL     1       3.009  12.831  17.914  0.00  0.00    +0.000 OA
ATOM     17  C   UNL     1       1.963  12.121  18.396  0.00  0.00    +0.000 A 
ENDBRANCH  10  13
ENDBRANCH   2   5
BRANCH   3  18
ATOM     18  C   UNL     1       2.366   6.211  18.899  0.00  0.00    +0.000 C 
BRANCH  18  19
ATOM     19  C   UNL     1       3.856   6.075  18.578  0.00  0.00    +0.000 A 
ATOM     20  C   UNL     1       4.740   5.392  19.436  0.00  0.00    +0.000 A 
ATOM     21  C   UNL     1       6.103   5.309  19.153  0.00  0.00    +0.000 A 
ATOM     22  C   UNL     1       6.608   5.927  18.012  0.00  0.00    +0.000 A 
ATOM     23  F   UNL     1       7.922   5.868  17.757  0.00  0.00    +0.000 F 
ATOM     24  C   UNL     1       5.766   6.612  17.151  0.00  0.00    +0.000 A 
ATOM     25  C   UNL     1       4.394   6.676  17.424  0.00  0.00    +0.000 A 
ENDBRANCH  18  19
BRANCH  18  26
ATOM     26  C   UNL     1       1.572   4.890  18.932  0.00  0.00    +0.000 C 
ATOM     27  C   UNL     1       2.206   3.766  18.109  0.00  0.00    +0.000 C 
ATOM     28  C   UNL     1       1.337   2.575  18.476  0.00  0.00    +0.000 C 
ATOM     29  C   UNL     1       0.984   2.786  19.950  0.00  0.00    +0.000 C 
ATOM     30  C   UNL     1       1.447   4.205  20.297  0.00  0.00    +0.000 C 
ENDBRANCH  18  26
ENDBRANCH   3  18
TORSDOF 5
ENDMDL
MODEL 9
REMARK VINA RESULT:      -7.2      3.529      6.872
REMARK  Name = 
REMARK  5 active torsions:
REMARK  status: ('A' for Active; 'I' for Inactive)
REMARK    1  A    between atoms: C_2  and  C_17
REMARK    2  A    between atoms: N_3  and  C_4
REMARK    3  A    between atoms: C_4  and  C_5
REMARK    4  A    between atoms: C_4  and  C_12
REMARK    5  A    between atoms: C_22  and  C_24
REMARK                            x       y       z     vdW  Elec       q    Type
REMARK                         _______ _______ _______ _____ _____    ______ ____
ROOT
ATOM      1  O   UNL     1       1.529  13.183  18.445  0.00  0.00    +0.000 OA
ATOM      2  C   UNL     1       0.749  13.013  19.380  0.00  0.00    +0.000 C 
ATOM      3  N   UNL     1      -0.105  11.938  19.464  0.00  0.00    +0.000 N 
ATOM      4  H   UNL     1      -0.547  11.767  20.359  0.00  0.00    +0.000 HD
ENDROOT
BRANCH   2   5
ATOM      5  C   UNL     1       0.764  13.989  20.563  0.00  0.00    +0.000 C 
ATOM      6  C   UNL     1      -0.609  14.608  20.830  0.00  0.00    +0.000 C 
ATOM      7  C   UNL     1      -0.923  15.805  19.935  0.00  0.00    +0.000 C 
ATOM      8  C   UNL     1       0.233  16.797  19.841  0.00  0.00    +0.000 C 
ATOM      9  N   UNL     1       1.498  16.122  19.536  0.00  0.00    +0.000 N 
ATOM     10  C   UNL     1       2.434  16.823  18.758  0.00  0.00    +0.000 C 
ATOM     11  O   UNL     1       2.171  17.932  18.297  0.00  0.00    +0.000 OA
ATOM     12  C   UNL     1       1.844  15.065  20.493  0.00  0.00    +0.000 C 
BRANCH  10  13
ATOM     13  C   UNL     1       3.734  16.226  18.471  0.00  0.00    +0.000 A 
ATOM     14  C   UNL     1       4.988  16.618  19.033  0.00  0.00    +0.000 A 
ATOM     15  C   UNL     1       5.944  15.787  18.502  0.00  0.00    +0.000 A 
ATOM     16  O   UNL     1       5.385  14.948  17.598  0.00  0.00    +0.000 OA
ATOM     17  C   UNL     1       4.062  15.235  17.567  0.00  0.00    +0.000 A 
ENDBRANCH  10  13
ENDBRANCH   2   5
BRANCH   3  18
ATOM     18  C   UNL     1      -0.186  10.847  18.472  0.00  0.00    +0.000 C 
BRANCH  18  19
ATOM     19  C   UNL     1       0.720   9.675  18.854  0.00  0.00    +0.000 A 
ATOM     20  C   UNL     1       1.531   9.023  17.904  0.00  0.00    +0.000 A 
ATOM     21  C   UNL     1       2.322   7.930  18.257  0.00  0.00    +0.000 A 
ATOM     22  C   UNL     1       2.299   7.457  19.565  0.00  0.00    +0.000 A 
ATOM     23  F   UNL     1       3.040   6.391  19.894  0.00  0.00    +0.000 F 
ATOM     24  C   UNL     1       1.508   8.072  20.523  0.00  0.00    +0.000 A 
ATOM     25  C   UNL     1       0.730   9.183  20.174  0.00  0.00    +0.000 A 
ENDBRANCH  18  19
BRANCH  18  26
ATOM     26  C   UNL     1      -1.655  10.480  18.180  0.00  0.00    +0.000 C 
ATOM     27  C   UNL     1      -2.641  11.625  18.429  0.00  0.00    +0.000 C 
ATOM     28  C   UNL     1      -3.938  11.048  17.888  0.00  0.00    +0.000 C 
ATOM     29  C   UNL     1      -3.522  10.207  16.680  0.00  0.00    +0.000 C 
ATOM     30  C   UNL     1      -1.992  10.128  16.727  0.00  0.00    +0.000 C 
ENDBRANCH  18  26
ENDBRANCH   3  18
TORSDOF 5
ENDMDL
