MODEL 1
REMARK VINA RESULT:      -8.0      0.000      0.000
REMARK  Name = 
REMARK  4 active torsions:
REMARK  status: ('A' for Active; 'I' for Inactive)
REMARK    1  A    between atoms: N_2  and  C_4
REMARK    2  A    between atoms: C_6  and  N_7
REMARK    3  A    between atoms: C_15  and  O_16
REMARK    4  A    between atoms: C_17  and  O_18
REMARK                            x       y       z     vdW  Elec       q    Type
REMARK                         _______ _______ _______ _____ _____    ______ ____
ROOT
ATOM      1  C   UNL     1       6.507   5.956  17.620  0.00  0.00    +0.000 A 
ATOM      2  C   UNL     1       5.630   5.577  18.649  0.00  0.00    +0.000 A 
ATOM      3  C   UNL     1       4.755   4.516  18.431  0.00  0.00    +0.000 A 
ATOM      4  C   UNL     1       4.763   3.890  17.175  0.00  0.00    +0.000 A 
ATOM      5  C   UNL     1       5.627   4.287  16.153  0.00  0.00    +0.000 A 
ATOM      6  N   UNL     1       5.555   3.634  14.975  0.00  0.00    +0.000 NA
ATOM      7  C   UNL     1       6.419   4.043  14.034  0.00  0.00    +0.000 A 
ATOM      8  C   UNL     1       7.342   5.054  14.235  0.00  0.00    +0.000 A 
ATOM      9  N   UNL     1       7.426   5.712  15.400  0.00  0.00    +0.000 NA
ATOM     10  C   UNL     1       6.552   5.345  16.372  0.00  0.00    +0.000 A 
ENDROOT
BRANCH   3  11
ATOM     11  N   UNL     1       3.891   4.067  19.473  0.00  0.00    +0.000 N 
ATOM     12  C   UNL     1       3.791   2.788  19.977  0.00  0.00    +0.000 A 
ATOM     13  C   UNL     1       2.803   2.827  20.932  0.00  0.00    +0.000 A 
ATOM     14  N   UNL     1       2.296   4.088  21.049  0.00  0.00    +0.000 NA
ATOM     15  C   UNL     1       2.963   4.807  20.173  0.00  0.00    +0.000 A 
ENDBRANCH   3  11
BRANCH   1  17
ATOM     16  O   UNL     1       8.243   6.833  18.814  0.00  0.00    +0.000 OA
ATOM     17  N   UNL     1       7.427   7.031  17.904  0.00  0.00    +0.000 N 
ATOM     18  O   UNL     1       7.255   8.101  17.305  0.00  0.00    +0.000 OA
ENDBRANCH   1  17
BRANCH   7  19
ATOM     19  O   UNL     1       6.327   3.395  12.844  0.00  0.00    +0.000 OA
ATOM     20  H   UNL     1       5.596   3.887  12.425  0.00  0.00    +0.000 HD
ENDBRANCH   7  19
BRANCH   8  21
ATOM     21  O   UNL     1       8.210   5.437  13.257  0.00  0.00    +0.000 OA
ATOM     22  H   UNL     1       8.539   4.609  12.862  0.00  0.00    +0.000 HD
ENDBRANCH   8  21
TORSDOF 4
ENDMDL
MODEL 2
REMARK VINA RESULT:      -7.9      0.439      1.076
REMARK  Name = 
REMARK  4 active torsions:
REMARK  status: ('A' for Active; 'I' for Inactive)
REMARK    1  A    between atoms: N_2  and  C_4
REMARK    2  A    between atoms: C_6  and  N_7
REMARK    3  A    between atoms: C_15  and  O_16
REMARK    4  A    between atoms: C_17  and  O_18
REMARK                            x       y       z     vdW  Elec       q    Type
REMARK                         _______ _______ _______ _____ _____    ______ ____
ROOT
ATOM      1  C   UNL     1       6.457   5.933  17.676  0.00  0.00    +0.000 A 
ATOM      2  C   UNL     1       5.570   5.550  18.695  0.00  0.00    +0.000 A 
ATOM      3  C   UNL     1       4.697   4.490  18.464  0.00  0.00    +0.000 A 
ATOM      4  C   UNL     1       4.718   3.869  17.205  0.00  0.00    +0.000 A 
ATOM      5  C   UNL     1       5.591   4.271  16.193  0.00  0.00    +0.000 A 
ATOM      6  N   UNL     1       5.531   3.622  15.012  0.00  0.00    +0.000 NA
ATOM      7  C   UNL     1       6.404   4.036  14.081  0.00  0.00    +0.000 A 
ATOM      8  C   UNL     1       7.324   5.045  14.294  0.00  0.00    +0.000 A 
ATOM      9  N   UNL     1       7.396   5.699  15.463  0.00  0.00    +0.000 NA
ATOM     10  C   UNL     1       6.514   5.328  16.425  0.00  0.00    +0.000 A 
ENDROOT
BRANCH   3  11
ATOM     11  N   UNL     1       3.824   4.036  19.495  0.00  0.00    +0.000 N 
ATOM     12  C   UNL     1       2.859   4.771  20.151  0.00  0.00    +0.000 A 
ATOM     13  C   UNL     1       2.304   3.929  21.085  0.00  0.00    +0.000 A 
ATOM     14  N   UNL     1       2.879   2.695  21.024  0.00  0.00    +0.000 NA
ATOM     15  C   UNL     1       3.777   2.783  20.067  0.00  0.00    +0.000 A 
ENDBRANCH   3  11
BRANCH   1  17
ATOM     16  O   UNL     1       7.256   8.036  17.293  0.00  0.00    +0.000 OA
ATOM     17  N   UNL     1       7.374   7.008  17.972  0.00  0.00    +0.000 N 
ATOM     18  O   UNL     1       8.276   6.778  18.789  0.00  0.00    +0.000 OA
ENDBRANCH   1  17
BRANCH   7  19
ATOM     19  O   UNL     1       6.323   3.392  12.887  0.00  0.00    +0.000 OA
ATOM     20  H   UNL     1       7.265   3.210  12.714  0.00  0.00    +0.000 HD
ENDBRANCH   7  19
BRANCH   8  21
ATOM     21  O   UNL     1       8.202   5.433  13.326  0.00  0.00    +0.000 OA
ATOM     22  H   UNL     1       8.217   4.702  12.682  0.00  0.00    +0.000 HD
ENDBRANCH   8  21
TORSDOF 4
ENDMDL
MODEL 3
REMARK VINA RESULT:      -7.7      0.971      1.235
REMARK  Name = 
REMARK  4 active torsions:
REMARK  status: ('A' for Active; 'I' for Inactive)
REMARK    1  A    between atoms: N_2  and  C_4
REMARK    2  A    between atoms: C_6  and  N_7
REMARK    3  A    between atoms: C_15  and  O_16
REMARK    4  A    between atoms: C_17  and  O_18
REMARK                            x       y       z     vdW  Elec       q    Type
REMARK                         _______ _______ _______ _____ _____    ______ ____
ROOT
ATOM      1  C   UNL     1       6.530   5.226  18.371  0.00  0.00    +0.000 A 
ATOM      2  C   UNL     1       5.553   4.889  19.321  0.00  0.00    +0.000 A 
ATOM      3  C   UNL     1       4.416   4.204  18.904  0.00  0.00    +0.000 A 
ATOM      4  C   UNL     1       4.277   3.909  17.539  0.00  0.00    +0.000 A 
ATOM      5  C   UNL     1       5.246   4.265  16.599  0.00  0.00    +0.000 A 
ATOM      6  N   UNL     1       5.020   3.949  15.308  0.00  0.00    +0.000 NA
ATOM      7  C   UNL     1       5.991   4.298  14.450  0.00  0.00    +0.000 A 
ATOM      8  C   UNL     1       7.160   4.926  14.837  0.00  0.00    +0.000 A 
ATOM      9  N   UNL     1       7.399   5.246  16.117  0.00  0.00    +0.000 NA
ATOM     10  C   UNL     1       6.431   4.933  17.015  0.00  0.00    +0.000 A 
ENDROOT
BRANCH   3  11
ATOM     11  N   UNL     1       3.431   3.795  19.850  0.00  0.00    +0.000 N 
ATOM     12  C   UNL     1       2.260   4.450  20.168  0.00  0.00    +0.000 A 
ATOM     13  C   UNL     1       1.659   3.706  21.155  0.00  0.00    +0.000 A 
ATOM     14  N   UNL     1       2.408   2.606  21.452  0.00  0.00    +0.000 NA
ATOM     15  C   UNL     1       3.454   2.680  20.659  0.00  0.00    +0.000 A 
ENDBRANCH   3  11
BRANCH   1  17
ATOM     16  O   UNL     1       8.369   5.302  19.720  0.00  0.00    +0.000 OA
ATOM     17  N   UNL     1       7.714   5.896  18.854  0.00  0.00    +0.000 N 
ATOM     18  O   UNL     1       7.916   7.052  18.458  0.00  0.00    +0.000 OA
ENDBRANCH   1  17
BRANCH   7  19
ATOM     19  O   UNL     1       5.747   3.996  13.148  0.00  0.00    +0.000 OA
ATOM     20  H   UNL     1       5.481   4.869  12.805  0.00  0.00    +0.000 HD
ENDBRANCH   7  19
BRANCH   8  21
ATOM     21  O   UNL     1       8.129   5.258  13.937  0.00  0.00    +0.000 OA
ATOM     22  H   UNL     1       8.724   5.867  14.410  0.00  0.00    +0.000 HD
ENDBRANCH   8  21
TORSDOF 4
ENDMDL
MODEL 4
REMARK VINA RESULT:      -7.4      1.087      1.355
REMARK  Name = 
REMARK  4 active torsions:
REMARK  status: ('A' for Active; 'I' for Inactive)
REMARK    1  A    between atoms: N_2  and  C_4
REMARK    2  A    between atoms: C_6  and  N_7
REMARK    3  A    between atoms: C_15  and  O_16
REMARK    4  A    between atoms: C_17  and  O_18
REMARK                            x       y       z     vdW  Elec       q    Type
REMARK                         _______ _______ _______ _____ _____    ______ ____
ROOT
ATOM      1  C   UNL     1       6.337   5.132  17.903  0.00  0.00    +0.000 A 
ATOM      2  C   UNL     1       5.291   4.663  18.714  0.00  0.00    +0.000 A 
ATOM      3  C   UNL     1       4.283   3.897  18.136  0.00  0.00    +0.000 A 
ATOM      4  C   UNL     1       4.337   3.653  16.755  0.00  0.00    +0.000 A 
ATOM      5  C   UNL     1       5.372   4.140  15.954  0.00  0.00    +0.000 A 
ATOM      6  N   UNL     1       5.334   3.864  14.635  0.00  0.00    +0.000 NA
ATOM      7  C   UNL     1       6.361   4.340  13.916  0.00  0.00    +0.000 A 
ATOM      8  C   UNL     1       7.410   5.055  14.465  0.00  0.00    +0.000 A 
ATOM      9  N   UNL     1       7.462   5.336  15.775  0.00  0.00    +0.000 NA
ATOM     10  C   UNL     1       6.429   4.894  16.536  0.00  0.00    +0.000 A 
ENDROOT
BRANCH   3  11
ATOM     11  N   UNL     1       3.237   3.356  18.939  0.00  0.00    +0.000 N 
ATOM     12  C   UNL     1       3.214   3.249  20.314  0.00  0.00    +0.000 A 
ATOM     13  C   UNL     1       2.029   2.630  20.631  0.00  0.00    +0.000 A 
ATOM     14  N   UNL     1       1.309   2.361  19.505  0.00  0.00    +0.000 NA
ATOM     15  C   UNL     1       2.047   2.806  18.513  0.00  0.00    +0.000 A 
ENDBRANCH   3  11
BRANCH   1  17
ATOM     16  O   UNL     1       7.507   7.069  18.204  0.00  0.00    +0.000 OA
ATOM     17  N   UNL     1       7.384   5.886  18.550  0.00  0.00    +0.000 N 
ATOM     18  O   UNL     1       8.148   5.269  19.304  0.00  0.00    +0.000 OA
ENDBRANCH   1  17
BRANCH   7  19
ATOM     19  O   UNL     1       6.305   4.077  12.584  0.00  0.00    +0.000 OA
ATOM     20  H   UNL     1       5.341   4.062  12.442  0.00  0.00    +0.000 HD
ENDBRANCH   7  19
BRANCH   8  21
ATOM     21  O   UNL     1       8.441   5.516  13.703  0.00  0.00    +0.000 OA
ATOM     22  H   UNL     1       8.931   6.134  14.276  0.00  0.00    +0.000 HD
ENDBRANCH   8  21
TORSDOF 4
ENDMDL
MODEL 5
REMARK VINA RESULT:      -7.3      3.823      4.847
REMARK  Name = 
REMARK  4 active torsions:
REMARK  status: ('A' for Active; 'I' for Inactive)
REMARK    1  A    between atoms: N_2  and  C_4
REMARK    2  A    between atoms: C_6  and  N_7
REMARK    3  A    between atoms: C_15  and  O_16
REMARK    4  A    between atoms: C_17  and  O_18
REMARK                            x       y       z     vdW  Elec       q    Type
REMARK                         _______ _______ _______ _____ _____    ______ ____
ROOT
ATOM      1  C   UNL     1       2.894   4.930  18.025  0.00  0.00    +0.000 A 
ATOM      2  C   UNL     1       2.215   6.043  18.548  0.00  0.00    +0.000 A 
ATOM      3  C   UNL     1       2.683   7.319  18.249  0.00  0.00    +0.000 A 
ATOM      4  C   UNL     1       3.839   7.439  17.461  0.00  0.00    +0.000 A 
ATOM      5  C   UNL     1       4.517   6.326  16.961  0.00  0.00    +0.000 A 
ATOM      6  N   UNL     1       5.625   6.539  16.223  0.00  0.00    +0.000 NA
ATOM      7  C   UNL     1       6.226   5.437  15.753  0.00  0.00    +0.000 A 
ATOM      8  C   UNL     1       5.757   4.156  15.980  0.00  0.00    +0.000 A 
ATOM      9  N   UNL     1       4.656   3.928  16.712  0.00  0.00    +0.000 NA
ATOM     10  C   UNL     1       4.030   5.016  17.228  0.00  0.00    +0.000 A 
ENDROOT
BRANCH   3  11
ATOM     11  N   UNL     1       1.986   8.472  18.715  0.00  0.00    +0.000 N 
ATOM     12  C   UNL     1       1.744   9.636  18.018  0.00  0.00    +0.000 A 
ATOM     13  C   UNL     1       1.080  10.471  18.884  0.00  0.00    +0.000 A 
ATOM     14  N   UNL     1       0.887   9.862  20.089  0.00  0.00    +0.000 NA
ATOM     15  C   UNL     1       1.432   8.673  19.961  0.00  0.00    +0.000 A 
ENDBRANCH   3  11
BRANCH   1  17
ATOM     16  O   UNL     1       1.409   3.247  17.613  0.00  0.00    +0.000 OA
ATOM     17  N   UNL     1       2.349   3.627  18.323  0.00  0.00    +0.000 N 
ATOM     18  O   UNL     1       2.777   3.047  19.330  0.00  0.00    +0.000 OA
ENDBRANCH   1  17
BRANCH   7  19
ATOM     19  O   UNL     1       7.354   5.658  15.028  0.00  0.00    +0.000 OA
ATOM     20  H   UNL     1       7.968   5.944  15.729  0.00  0.00    +0.000 HD
ENDBRANCH   7  19
BRANCH   8  21
ATOM     21  O   UNL     1       6.391   3.059  15.479  0.00  0.00    +0.000 OA
ATOM     22  H   UNL     1       5.698   2.541  15.030  0.00  0.00    +0.000 HD
ENDBRANCH   8  21
TORSDOF 4
ENDMDL
MODEL 6
REMARK VINA RESULT:      -7.3      3.843      4.791
REMARK  Name = 
REMARK  4 active torsions:
REMARK  status: ('A' for Active; 'I' for Inactive)
REMARK    1  A    between atoms: N_2  and  C_4
REMARK    2  A    between atoms: C_6  and  N_7
REMARK    3  A    between atoms: C_15  and  O_16
REMARK    4  A    between atoms: C_17  and  O_18
REMARK                            x       y       z     vdW  Elec       q    Type
REMARK                         _______ _______ _______ _____ _____    ______ ____
ROOT
ATOM      1  C   UNL     1       2.897   4.940  18.040  0.00  0.00    +0.000 A 
ATOM      2  C   UNL     1       2.220   6.054  18.562  0.00  0.00    +0.000 A 
ATOM      3  C   UNL     1       2.686   7.329  18.256  0.00  0.00    +0.000 A 
ATOM      4  C   UNL     1       3.838   7.447  17.464  0.00  0.00    +0.000 A 
ATOM      5  C   UNL     1       4.515   6.333  16.965  0.00  0.00    +0.000 A 
ATOM      6  N   UNL     1       5.620   6.544  16.222  0.00  0.00    +0.000 NA
ATOM      7  C   UNL     1       6.221   5.440  15.754  0.00  0.00    +0.000 A 
ATOM      8  C   UNL     1       5.753   4.161  15.988  0.00  0.00    +0.000 A 
ATOM      9  N   UNL     1       4.655   3.934  16.724  0.00  0.00    +0.000 NA
ATOM     10  C   UNL     1       4.030   5.024  17.239  0.00  0.00    +0.000 A 
ENDROOT
BRANCH   3  11
ATOM     11  N   UNL     1       1.989   8.483  18.721  0.00  0.00    +0.000 N 
ATOM     12  C   UNL     1       1.417   8.666  19.962  0.00  0.00    +0.000 A 
ATOM     13  C   UNL     1       0.827   9.907  19.934  0.00  0.00    +0.000 A 
ATOM     14  N   UNL     1       1.024  10.507  18.726  0.00  0.00    +0.000 NA
ATOM     15  C   UNL     1       1.721   9.642  18.024  0.00  0.00    +0.000 A 
ENDBRANCH   3  11
BRANCH   1  17
ATOM     16  O   UNL     1       2.854   3.045  19.312  0.00  0.00    +0.000 OA
ATOM     17  N   UNL     1       2.354   3.638  18.346  0.00  0.00    +0.000 N 
ATOM     18  O   UNL     1       1.525   3.166  17.556  0.00  0.00    +0.000 OA
ENDBRANCH   1  17
BRANCH   7  19
ATOM     19  O   UNL     1       7.345   5.660  15.024  0.00  0.00    +0.000 OA
ATOM     20  H   UNL     1       7.019   5.471  14.125  0.00  0.00    +0.000 HD
ENDBRANCH   7  19
BRANCH   8  21
ATOM     21  O   UNL     1       6.386   3.062  15.488  0.00  0.00    +0.000 OA
ATOM     22  H   UNL     1       7.296   3.107  15.833  0.00  0.00    +0.000 HD
ENDBRANCH   8  21
TORSDOF 4
ENDMDL
MODEL 7
REMARK VINA RESULT:      -7.1      2.524      5.783
REMARK  Name = 
REMARK  4 active torsions:
REMARK  status: ('A' for Active; 'I' for Inactive)
REMARK    1  A    between atoms: N_2  and  C_4
REMARK    2  A    between atoms: C_6  and  N_7
REMARK    3  A    between atoms: C_15  and  O_16
REMARK    4  A    between atoms: C_17  and  O_18
REMARK                            x       y       z     vdW  Elec       q    Type
REMARK                         _______ _______ _______ _____ _____    ______ ____
ROOT
ATOM      1  C   UNL     1       6.379   5.352  17.933  0.00  0.00    +0.000 A 
ATOM      2  C   UNL     1       6.892   5.141  16.643  0.00  0.00    +0.000 A 
ATOM      3  C   UNL     1       6.046   4.649  15.654  0.00  0.00    +0.000 A 
ATOM      4  C   UNL     1       4.718   4.351  15.998  0.00  0.00    +0.000 A 
ATOM      5  C   UNL     1       4.223   4.547  17.289  0.00  0.00    +0.000 A 
ATOM      6  N   UNL     1       2.937   4.221  17.528  0.00  0.00    +0.000 NA
ATOM      7  C   UNL     1       2.507   4.446  18.778  0.00  0.00    +0.000 A 
ATOM      8  C   UNL     1       3.302   4.988  19.771  0.00  0.00    +0.000 A 
ATOM      9  N   UNL     1       4.583   5.318  19.548  0.00  0.00    +0.000 NA
ATOM     10  C   UNL     1       5.065   5.083  18.301  0.00  0.00    +0.000 A 
ENDROOT
BRANCH   3  11
ATOM     11  N   UNL     1       6.518   4.477  14.320  0.00  0.00    +0.000 N 
ATOM     12  C   UNL     1       7.545   5.162  13.706  0.00  0.00    +0.000 A 
ATOM     13  C   UNL     1       7.607   4.688  12.418  0.00  0.00    +0.000 A 
ATOM     14  N   UNL     1       6.666   3.723  12.213  0.00  0.00    +0.000 NA
ATOM     15  C   UNL     1       6.034   3.614  13.361  0.00  0.00    +0.000 A 
ENDBRANCH   3  11
BRANCH   1  17
ATOM     16  O   UNL     1       7.929   6.901  18.572  0.00  0.00    +0.000 OA
ATOM     17  N   UNL     1       7.279   5.905  18.917  0.00  0.00    +0.000 N 
ATOM     18  O   UNL     1       7.421   5.278  19.976  0.00  0.00    +0.000 OA
ENDBRANCH   1  17
BRANCH   7  19
ATOM     19  O   UNL     1       1.217   4.096  19.018  0.00  0.00    +0.000 OA
ATOM     20  H   UNL     1       1.291   3.735  19.921  0.00  0.00    +0.000 HD
ENDBRANCH   7  19
BRANCH   8  21
ATOM     21  O   UNL     1       2.829   5.211  21.030  0.00  0.00    +0.000 OA
ATOM     22  H   UNL     1       2.764   4.331  21.442  0.00  0.00    +0.000 HD
ENDBRANCH   8  21
TORSDOF 4
ENDMDL
MODEL 8
REMARK VINA RESULT:      -7.0      3.676      4.682
REMARK  Name = 
REMARK  4 active torsions:
REMARK  status: ('A' for Active; 'I' for Inactive)
REMARK    1  A    between atoms: N_2  and  C_4
REMARK    2  A    between atoms: C_6  and  N_7
REMARK    3  A    between atoms: C_15  and  O_16
REMARK    4  A    between atoms: C_17  and  O_18
REMARK                            x       y       z     vdW  Elec       q    Type
REMARK                         _______ _______ _______ _____ _____    ______ ____
ROOT
ATOM      1  C   UNL     1       3.076   4.669  18.719  0.00  0.00    +0.000 A 
ATOM      2  C   UNL     1       2.384   5.724  19.335  0.00  0.00    +0.000 A 
ATOM      3  C   UNL     1       2.587   7.022  18.876  0.00  0.00    +0.000 A 
ATOM      4  C   UNL     1       3.506   7.226  17.835  0.00  0.00    +0.000 A 
ATOM      5  C   UNL     1       4.203   6.172  17.241  0.00  0.00    +0.000 A 
ATOM      6  N   UNL     1       5.073   6.467  16.254  0.00  0.00    +0.000 NA
ATOM      7  C   UNL     1       5.702   5.416  15.707  0.00  0.00    +0.000 A 
ATOM      8  C   UNL     1       5.482   4.108  16.097  0.00  0.00    +0.000 A 
ATOM      9  N   UNL     1       4.619   3.800  17.076  0.00  0.00    +0.000 NA
ATOM     10  C   UNL     1       3.979   4.836  17.674  0.00  0.00    +0.000 A 
ENDROOT
BRANCH   3  11
ATOM     11  N   UNL     1       1.858   8.110  19.440  0.00  0.00    +0.000 N 
ATOM     12  C   UNL     1       1.433   8.239  20.745  0.00  0.00    +0.000 A 
ATOM     13  C   UNL     1       0.739   9.424  20.808  0.00  0.00    +0.000 A 
ATOM     14  N   UNL     1       0.732  10.043  19.593  0.00  0.00    +0.000 NA
ATOM     15  C   UNL     1       1.407   9.243  18.798  0.00  0.00    +0.000 A 
ENDBRANCH   3  11
BRANCH   1  17
ATOM     16  O   UNL     1       1.837   2.753  18.683  0.00  0.00    +0.000 OA
ATOM     17  N   UNL     1       2.803   3.335  19.196  0.00  0.00    +0.000 N 
ATOM     18  O   UNL     1       3.470   2.924  20.155  0.00  0.00    +0.000 OA
ENDBRANCH   1  17
BRANCH   7  19
ATOM     19  O   UNL     1       6.594   5.722  14.728  0.00  0.00    +0.000 OA
ATOM     20  H   UNL     1       7.386   5.255  15.052  0.00  0.00    +0.000 HD
ENDBRANCH   7  19
BRANCH   8  21
ATOM     21  O   UNL     1       6.134   3.064  15.512  0.00  0.00    +0.000 OA
ATOM     22  H   UNL     1       6.347   3.364  14.610  0.00  0.00    +0.000 HD
ENDBRANCH   8  21
TORSDOF 4
ENDMDL
MODEL 9
REMARK VINA RESULT:      -7.0      3.911      5.768
REMARK  Name = 
REMARK  4 active torsions:
REMARK  status: ('A' for Active; 'I' for Inactive)
REMARK    1  A    between atoms: N_2  and  C_4
REMARK    2  A    between atoms: C_6  and  N_7
REMARK    3  A    between atoms: C_15  and  O_16
REMARK    4  A    between atoms: C_17  and  O_18
REMARK                            x       y       z     vdW  Elec       q    Type
REMARK                         _______ _______ _______ _____ _____    ______ ____
ROOT
ATOM      1  C   UNL     1       4.140   5.791  17.996  0.00  0.00    +0.000 A 
ATOM      2  C   UNL     1       3.447   7.010  17.944  0.00  0.00    +0.000 A 
ATOM      3  C   UNL     1       2.491   7.284  18.918  0.00  0.00    +0.000 A 
ATOM      4  C   UNL     1       2.235   6.309  19.895  0.00  0.00    +0.000 A 
ATOM      5  C   UNL     1       2.918   5.092  19.927  0.00  0.00    +0.000 A 
ATOM      6  N   UNL     1       2.597   4.213  20.898  0.00  0.00    +0.000 NA
ATOM      7  C   UNL     1       3.295   3.068  20.893  0.00  0.00    +0.000 A 
ATOM      8  C   UNL     1       4.292   2.786  19.977  0.00  0.00    +0.000 A 
ATOM      9  N   UNL     1       4.623   3.651  19.007  0.00  0.00    +0.000 NA
ATOM     10  C   UNL     1       3.923   4.813  18.961  0.00  0.00    +0.000 A 
ENDROOT
BRANCH   3  11
ATOM     11  N   UNL     1       1.809   8.536  18.929  0.00  0.00    +0.000 N 
ATOM     12  C   UNL     1       1.739   9.454  17.904  0.00  0.00    +0.000 A 
ATOM     13  C   UNL     1       1.015  10.517  18.388  0.00  0.00    +0.000 A 
ATOM     14  N   UNL     1       0.620  10.285  19.672  0.00  0.00    +0.000 NA
ATOM     15  C   UNL     1       1.101   9.099  19.969  0.00  0.00    +0.000 A 
ENDBRANCH   3  11
BRANCH   1  17
ATOM     16  O   UNL     1       6.254   6.099  17.192  0.00  0.00    +0.000 OA
ATOM     17  N   UNL     1       5.154   5.566  16.993  0.00  0.00    +0.000 N 
ATOM     18  O   UNL     1       4.814   4.968  15.963  0.00  0.00    +0.000 OA
ENDBRANCH   1  17
BRANCH   7  19
ATOM     19  O   UNL     1       2.951   2.178  21.861  0.00  0.00    +0.000 OA
ATOM     20  H   UNL     1       2.100   2.550  22.157  0.00  0.00    +0.000 HD
ENDBRANCH   7  19
BRANCH   8  21
ATOM     21  O   UNL     1       4.986   1.614  20.009  0.00  0.00    +0.000 OA
ATOM     22  H   UNL     1       5.920   1.862  19.888  0.00  0.00    +0.000 HD
ENDBRANCH   8  21
TORSDOF 4
ENDMDL
