MODEL 1
REMARK VINA RESULT:      -8.2      0.000      0.000
REMARK  Name = 
REMARK  7 active torsions:
REMARK  status: ('A' for Active; 'I' for Inactive)
REMARK    1  A    between atoms: C_1  and  O_2
REMARK    2  A    between atoms: O_2  and  C_3
REMARK    3  A    between atoms: C_8  and  O_9
REMARK    4  A    between atoms: O_9  and  C_10
REMARK    5  A    between atoms: C_11  and  C_12
REMARK    6  A    between atoms: C_24  and  C_25
REMARK    7  A    between atoms: C_24  and  C_26
REMARK                            x       y       z     vdW  Elec       q    Type
REMARK                         _______ _______ _______ _____ _____    ______ ____
ROOT
ATOM      1  C   UNL     1       6.105   4.961  17.355  0.00  0.00    +0.000 A 
ATOM      2  C   UNL     1       5.311   4.060  18.071  0.00  0.00    +0.000 A 
ATOM      3  C   UNL     1       4.117   4.465  18.682  0.00  0.00    +0.000 A 
ATOM      4  C   UNL     1       3.753   5.810  18.660  0.00  0.00    +0.000 A 
ATOM      5  C   UNL     1       4.587   6.731  18.016  0.00  0.00    +0.000 A 
ATOM      6  C   UNL     1       5.764   6.321  17.362  0.00  0.00    +0.000 A 
ATOM      7  C   UNL     1       2.475   6.164  19.328  0.00  0.00    +0.000 C 
ATOM      8  N   UNL     1       1.648   5.311  19.813  0.00  0.00    +0.000 NA
ATOM      9  C   UNL     1       1.864   3.864  19.765  0.00  0.00    +0.000 C 
ATOM     10  C   UNL     1       0.831   3.299  18.788  0.00  0.00    +0.000 C 
ATOM     11  C   UNL     1       1.556   3.347  21.178  0.00  0.00    +0.000 C 
ATOM     12  C   UNL     1       3.282   3.429  19.371  0.00  0.00    +0.000 C 
ENDROOT
BRANCH   7  13
ATOM     13  C   UNL     1       2.093   7.587  19.439  0.00  0.00    +0.000 A 
ATOM     14  C   UNL     1       2.144   8.356  18.347  0.00  0.00    +0.000 A 
ATOM     15  C   UNL     1       1.693   9.730  18.512  0.00  0.00    +0.000 A 
ATOM     16  C   UNL     1       2.272  10.808  17.857  0.00  0.00    +0.000 A 
ATOM     17  C   UNL     1       1.836  12.102  18.158  0.00  0.00    +0.000 A 
ATOM     18  C   UNL     1       0.754  12.306  19.023  0.00  0.00    +0.000 A 
ATOM     19  C   UNL     1       0.164  11.227  19.673  0.00  0.00    +0.000 A 
ATOM     20  C   UNL     1       0.706   9.966  19.474  0.00  0.00    +0.000 A 
ATOM     21  O   UNL     1       0.374   8.961  20.392  0.00  0.00    +0.000 OA
ATOM     22  C   UNL     1       1.474   8.148  20.663  0.00  0.00    +0.000 A 
ATOM     23  O   UNL     1       1.842   7.872  21.794  0.00  0.00    +0.000 OA
ENDBRANCH   7  13
BRANCH   1  25
ATOM     24  C   UNL     1       7.079   4.397  15.271  0.00  0.00    +0.000 C 
ATOM     25  O   UNL     1       7.216   4.526  16.687  0.00  0.00    +0.000 OA
ENDBRANCH   1  25
BRANCH   6  26
ATOM     26  O   UNL     1       6.427   7.364  16.768  0.00  0.00    +0.000 OA
ATOM     27  C   UNL     1       7.527   7.950  17.452  0.00  0.00    +0.000 C 
ENDBRANCH   6  26
TORSDOF 3
ENDMDL
MODEL 2
REMARK VINA RESULT:      -8.0      1.897      6.692
REMARK  Name = 
REMARK  7 active torsions:
REMARK  status: ('A' for Active; 'I' for Inactive)
REMARK    1  A    between atoms: C_1  and  O_2
REMARK    2  A    between atoms: O_2  and  C_3
REMARK    3  A    between atoms: C_8  and  O_9
REMARK    4  A    between atoms: O_9  and  C_10
REMARK    5  A    between atoms: C_11  and  C_12
REMARK    6  A    between atoms: C_24  and  C_25
REMARK    7  A    between atoms: C_24  and  C_26
REMARK                            x       y       z     vdW  Elec       q    Type
REMARK                         _______ _______ _______ _____ _____    ______ ____
ROOT
ATOM      1  C   UNL     1       2.224   7.285  19.307  0.00  0.00    +0.000 A 
ATOM      2  C   UNL     1       2.031   5.967  19.732  0.00  0.00    +0.000 A 
ATOM      3  C   UNL     1       2.804   4.915  19.221  0.00  0.00    +0.000 A 
ATOM      4  C   UNL     1       3.720   5.165  18.200  0.00  0.00    +0.000 A 
ATOM      5  C   UNL     1       3.857   6.469  17.712  0.00  0.00    +0.000 A 
ATOM      6  C   UNL     1       3.115   7.536  18.255  0.00  0.00    +0.000 A 
ATOM      7  C   UNL     1       4.502   4.002  17.709  0.00  0.00    +0.000 C 
ATOM      8  N   UNL     1       4.469   2.831  18.233  0.00  0.00    +0.000 NA
ATOM      9  C   UNL     1       3.648   2.493  19.396  0.00  0.00    +0.000 C 
ATOM     10  C   UNL     1       4.613   2.249  20.559  0.00  0.00    +0.000 C 
ATOM     11  C   UNL     1       2.943   1.175  19.042  0.00  0.00    +0.000 C 
ATOM     12  C   UNL     1       2.591   3.540  19.776  0.00  0.00    +0.000 C 
ENDROOT
BRANCH   7  13
ATOM     13  C   UNL     1       5.403   4.181  16.552  0.00  0.00    +0.000 A 
ATOM     14  C   UNL     1       4.905   4.046  15.319  0.00  0.00    +0.000 A 
ATOM     15  C   UNL     1       5.832   4.300  14.226  0.00  0.00    +0.000 A 
ATOM     16  C   UNL     1       5.818   3.591  13.032  0.00  0.00    +0.000 A 
ATOM     17  C   UNL     1       6.812   3.837  12.081  0.00  0.00    +0.000 A 
ATOM     18  C   UNL     1       7.746   4.862  12.276  0.00  0.00    +0.000 A 
ATOM     19  C   UNL     1       7.757   5.582  13.467  0.00  0.00    +0.000 A 
ATOM     20  C   UNL     1       6.855   5.224  14.458  0.00  0.00    +0.000 A 
ATOM     21  O   UNL     1       7.106   5.673  15.760  0.00  0.00    +0.000 OA
ATOM     22  C   UNL     1       6.787   4.690  16.698  0.00  0.00    +0.000 A 
ATOM     23  O   UNL     1       7.546   4.341  17.588  0.00  0.00    +0.000 OA
ENDBRANCH   7  13
BRANCH   1  25
ATOM     24  C   UNL     1       1.170   8.119  21.257  0.00  0.00    +0.000 C 
ATOM     25  O   UNL     1       1.526   8.308  19.887  0.00  0.00    +0.000 OA
ENDBRANCH   1  25
BRANCH   6  26
ATOM     26  O   UNL     1       3.411   8.737  17.663  0.00  0.00    +0.000 OA
ATOM     27  C   UNL     1       2.420   9.756  17.655  0.00  0.00    +0.000 C 
ENDBRANCH   6  26
TORSDOF 3
ENDMDL
MODEL 3
REMARK VINA RESULT:      -7.9      3.619      8.551
REMARK  Name = 
REMARK  7 active torsions:
REMARK  status: ('A' for Active; 'I' for Inactive)
REMARK    1  A    between atoms: C_1  and  O_2
REMARK    2  A    between atoms: O_2  and  C_3
REMARK    3  A    between atoms: C_8  and  O_9
REMARK    4  A    between atoms: O_9  and  C_10
REMARK    5  A    between atoms: C_11  and  C_12
REMARK    6  A    between atoms: C_24  and  C_25
REMARK    7  A    between atoms: C_24  and  C_26
REMARK                            x       y       z     vdW  Elec       q    Type
REMARK                         _______ _______ _______ _____ _____    ______ ____
ROOT
ATOM      1  C   UNL     1      -3.988  11.338  17.630  0.00  0.00    +0.000 A 
ATOM      2  C   UNL     1      -3.750  12.031  18.821  0.00  0.00    +0.000 A 
ATOM      3  C   UNL     1      -2.509  11.969  19.467  0.00  0.00    +0.000 A 
ATOM      4  C   UNL     1      -1.514  11.127  18.970  0.00  0.00    +0.000 A 
ATOM      5  C   UNL     1      -1.776  10.367  17.825  0.00  0.00    +0.000 A 
ATOM      6  C   UNL     1      -3.006  10.462  17.147  0.00  0.00    +0.000 A 
ATOM      7  C   UNL     1      -0.226  11.113  19.708  0.00  0.00    +0.000 C 
ATOM      8  N   UNL     1       0.062  11.896  20.683  0.00  0.00    +0.000 NA
ATOM      9  C   UNL     1      -0.856  12.913  21.196  0.00  0.00    +0.000 C 
ATOM     10  C   UNL     1      -0.262  14.272  20.816  0.00  0.00    +0.000 C 
ATOM     11  C   UNL     1      -0.836  12.765  22.724  0.00  0.00    +0.000 C 
ATOM     12  C   UNL     1      -2.304  12.795  20.700  0.00  0.00    +0.000 C 
ENDROOT
BRANCH   7  13
ATOM     13  C   UNL     1       0.824  10.157  19.299  0.00  0.00    +0.000 A 
ATOM     14  C   UNL     1       0.748   8.893  19.725  0.00  0.00    +0.000 A 
ATOM     15  C   UNL     1       1.777   7.990  19.233  0.00  0.00    +0.000 A 
ATOM     16  C   UNL     1       2.328   6.969  19.996  0.00  0.00    +0.000 A 
ATOM     17  C   UNL     1       3.383   6.219  19.471  0.00  0.00    +0.000 A 
ATOM     18  C   UNL     1       3.810   6.415  18.151  0.00  0.00    +0.000 A 
ATOM     19  C   UNL     1       3.253   7.430  17.379  0.00  0.00    +0.000 A 
ATOM     20  C   UNL     1       2.309   8.259  17.967  0.00  0.00    +0.000 A 
ATOM     21  O   UNL     1       2.035   9.481  17.342  0.00  0.00    +0.000 OA
ATOM     22  C   UNL     1       1.850  10.494  18.283  0.00  0.00    +0.000 A 
ATOM     23  O   UNL     1       2.421  11.572  18.230  0.00  0.00    +0.000 OA
ENDBRANCH   7  13
BRANCH   1  25
ATOM     24  C   UNL     1      -6.310  11.781  17.780  0.00  0.00    +0.000 C 
ATOM     25  O   UNL     1      -5.173  11.489  16.966  0.00  0.00    +0.000 OA
ENDBRANCH   1  25
BRANCH   6  26
ATOM     26  O   UNL     1      -3.057   9.661  16.035  0.00  0.00    +0.000 OA
ATOM     27  C   UNL     1      -2.993  10.272  14.753  0.00  0.00    +0.000 C 
ENDBRANCH   6  26
TORSDOF 3
ENDMDL
MODEL 4
REMARK VINA RESULT:      -7.5      1.157      1.853
REMARK  Name = 
REMARK  7 active torsions:
REMARK  status: ('A' for Active; 'I' for Inactive)
REMARK    1  A    between atoms: C_1  and  O_2
REMARK    2  A    between atoms: O_2  and  C_3
REMARK    3  A    between atoms: C_8  and  O_9
REMARK    4  A    between atoms: O_9  and  C_10
REMARK    5  A    between atoms: C_11  and  C_12
REMARK    6  A    between atoms: C_24  and  C_25
REMARK    7  A    between atoms: C_24  and  C_26
REMARK                            x       y       z     vdW  Elec       q    Type
REMARK                         _______ _______ _______ _____ _____    ______ ____
ROOT
ATOM      1  C   UNL     1       6.098   4.967  17.630  0.00  0.00    +0.000 A 
ATOM      2  C   UNL     1       5.425   4.003  18.388  0.00  0.00    +0.000 A 
ATOM      3  C   UNL     1       4.197   4.283  19.000  0.00  0.00    +0.000 A 
ATOM      4  C   UNL     1       3.672   5.573  18.937  0.00  0.00    +0.000 A 
ATOM      5  C   UNL     1       4.383   6.564  18.250  0.00  0.00    +0.000 A 
ATOM      6  C   UNL     1       5.595   6.275  17.594  0.00  0.00    +0.000 A 
ATOM      7  C   UNL     1       2.367   5.795  19.609  0.00  0.00    +0.000 C 
ATOM      8  N   UNL     1       1.653   4.866  20.134  0.00  0.00    +0.000 NA
ATOM      9  C   UNL     1       2.042   3.455  20.134  0.00  0.00    +0.000 C 
ATOM     10  C   UNL     1       1.076   2.735  19.191  0.00  0.00    +0.000 C 
ATOM     11  C   UNL     1       1.812   2.956  21.568  0.00  0.00    +0.000 C 
ATOM     12  C   UNL     1       3.499   3.180  19.736  0.00  0.00    +0.000 C 
ENDROOT
BRANCH   7  13
ATOM     13  C   UNL     1       1.817   7.165  19.675  0.00  0.00    +0.000 A 
ATOM     14  C   UNL     1       1.519   7.683  20.870  0.00  0.00    +0.000 A 
ATOM     15  C   UNL     1       1.044   9.059  20.868  0.00  0.00    +0.000 A 
ATOM     16  C   UNL     1       0.069   9.532  21.736  0.00  0.00    +0.000 A 
ATOM     17  C   UNL     1      -0.395  10.842  21.591  0.00  0.00    +0.000 A 
ATOM     18  C   UNL     1       0.190  11.706  20.656  0.00  0.00    +0.000 A 
ATOM     19  C   UNL     1       1.174  11.238  19.792  0.00  0.00    +0.000 A 
ATOM     20  C   UNL     1       1.518   9.896  19.853  0.00  0.00    +0.000 A 
ATOM     21  O   UNL     1       2.207   9.348  18.764  0.00  0.00    +0.000 OA
ATOM     22  C   UNL     1       1.764   8.054  18.492  0.00  0.00    +0.000 A 
ATOM     23  O   UNL     1       1.436   7.678  17.377  0.00  0.00    +0.000 OA
ENDBRANCH   7  13
BRANCH   1  25
ATOM     24  C   UNL     1       7.099   4.368  15.569  0.00  0.00    +0.000 C 
ATOM     25  O   UNL     1       7.246   4.645  16.962  0.00  0.00    +0.000 OA
ENDBRANCH   1  25
BRANCH   6  26
ATOM     26  O   UNL     1       6.122   7.369  16.956  0.00  0.00    +0.000 OA
ATOM     27  C   UNL     1       7.345   7.912  17.433  0.00  0.00    +0.000 C 
ENDBRANCH   6  26
TORSDOF 3
ENDMDL
MODEL 5
REMARK VINA RESULT:      -7.4      2.358      4.568
REMARK  Name = 
REMARK  7 active torsions:
REMARK  status: ('A' for Active; 'I' for Inactive)
REMARK    1  A    between atoms: C_1  and  O_2
REMARK    2  A    between atoms: O_2  and  C_3
REMARK    3  A    between atoms: C_8  and  O_9
REMARK    4  A    between atoms: O_9  and  C_10
REMARK    5  A    between atoms: C_11  and  C_12
REMARK    6  A    between atoms: C_24  and  C_25
REMARK    7  A    between atoms: C_24  and  C_26
REMARK                            x       y       z     vdW  Elec       q    Type
REMARK                         _______ _______ _______ _____ _____    ______ ____
ROOT
ATOM      1  C   UNL     1       2.769   2.612  18.612  0.00  0.00    +0.000 A 
ATOM      2  C   UNL     1       3.602   3.207  17.660  0.00  0.00    +0.000 A 
ATOM      3  C   UNL     1       3.708   4.600  17.552  0.00  0.00    +0.000 A 
ATOM      4  C   UNL     1       2.900   5.417  18.341  0.00  0.00    +0.000 A 
ATOM      5  C   UNL     1       2.003   4.825  19.237  0.00  0.00    +0.000 A 
ATOM      6  C   UNL     1       1.926   3.426  19.382  0.00  0.00    +0.000 A 
ATOM      7  C   UNL     1       3.067   6.882  18.171  0.00  0.00    +0.000 C 
ATOM      8  N   UNL     1       3.970   7.430  17.443  0.00  0.00    +0.000 NA
ATOM      9  C   UNL     1       4.961   6.669  16.680  0.00  0.00    +0.000 C 
ATOM     10  C   UNL     1       6.314   6.911  17.354  0.00  0.00    +0.000 C 
ATOM     11  C   UNL     1       4.979   7.292  15.277  0.00  0.00    +0.000 C 
ATOM     12  C   UNL     1       4.675   5.166  16.557  0.00  0.00    +0.000 C 
ENDROOT
BRANCH   7  13
ATOM     13  C   UNL     1       2.160   7.797  18.894  0.00  0.00    +0.000 A 
ATOM     14  C   UNL     1       2.017   7.653  20.215  0.00  0.00    +0.000 A 
ATOM     15  C   UNL     1       1.159   8.627  20.874  0.00  0.00    +0.000 A 
ATOM     16  C   UNL     1       0.328   8.316  21.941  0.00  0.00    +0.000 A 
ATOM     17  C   UNL     1      -0.534   9.295  22.442  0.00  0.00    +0.000 A 
ATOM     18  C   UNL     1      -0.484  10.606  21.952  0.00  0.00    +0.000 A 
ATOM     19  C   UNL     1       0.356  10.925  20.889  0.00  0.00    +0.000 A 
ATOM     20  C   UNL     1       1.096   9.906  20.310  0.00  0.00    +0.000 A 
ATOM     21  O   UNL     1       1.634  10.132  19.037  0.00  0.00    +0.000 OA
ATOM     22  C   UNL     1       1.553   8.985  18.248  0.00  0.00    +0.000 A 
ATOM     23  O   UNL     1       1.096   8.980  17.116  0.00  0.00    +0.000 OA
ENDBRANCH   7  13
BRANCH   1  25
ATOM     24  C   UNL     1       4.013   0.644  19.046  0.00  0.00    +0.000 C 
ATOM     25  O   UNL     1       2.752   1.253  18.766  0.00  0.00    +0.000 OA
ENDBRANCH   1  25
BRANCH   6  26
ATOM     26  O   UNL     1       1.010   3.044  20.328  0.00  0.00    +0.000 OA
ATOM     27  C   UNL     1       1.470   2.737  21.637  0.00  0.00    +0.000 C 
ENDBRANCH   6  26
TORSDOF 3
ENDMDL
MODEL 6
REMARK VINA RESULT:      -7.3      1.681      6.363
REMARK  Name = 
REMARK  7 active torsions:
REMARK  status: ('A' for Active; 'I' for Inactive)
REMARK    1  A    between atoms: C_1  and  O_2
REMARK    2  A    between atoms: O_2  and  C_3
REMARK    3  A    between atoms: C_8  and  O_9
REMARK    4  A    between atoms: O_9  and  C_10
REMARK    5  A    between atoms: C_11  and  C_12
REMARK    6  A    between atoms: C_24  and  C_25
REMARK    7  A    between atoms: C_24  and  C_26
REMARK                            x       y       z     vdW  Elec       q    Type
REMARK                         _______ _______ _______ _____ _____    ______ ____
ROOT
ATOM      1  C   UNL     1       1.431   7.748  20.038  0.00  0.00    +0.000 A 
ATOM      2  C   UNL     1       1.071   6.454  20.429  0.00  0.00    +0.000 A 
ATOM      3  C   UNL     1       1.782   5.333  19.983  0.00  0.00    +0.000 A 
ATOM      4  C   UNL     1       2.812   5.492  19.057  0.00  0.00    +0.000 A 
ATOM      5  C   UNL     1       3.122   6.777  18.598  0.00  0.00    +0.000 A 
ATOM      6  C   UNL     1       2.440   7.912  19.079  0.00  0.00    +0.000 A 
ATOM      7  C   UNL     1       3.520   4.259  18.629  0.00  0.00    +0.000 C 
ATOM      8  N   UNL     1       3.323   3.096  19.135  0.00  0.00    +0.000 NA
ATOM      9  C   UNL     1       2.364   2.839  20.211  0.00  0.00    +0.000 C 
ATOM     10  C   UNL     1       3.185   2.499  21.458  0.00  0.00    +0.000 C 
ATOM     11  C   UNL     1       1.571   1.597  19.777  0.00  0.00    +0.000 C 
ATOM     12  C   UNL     1       1.384   3.984  20.500  0.00  0.00    +0.000 C 
ENDROOT
BRANCH   7  13
ATOM     13  C   UNL     1       4.541   4.349  17.566  0.00  0.00    +0.000 A 
ATOM     14  C   UNL     1       4.153   4.270  16.290  0.00  0.00    +0.000 A 
ATOM     15  C   UNL     1       5.201   4.432  15.293  0.00  0.00    +0.000 A 
ATOM     16  C   UNL     1       5.230   3.732  14.094  0.00  0.00    +0.000 A 
ATOM     17  C   UNL     1       6.331   3.880  13.246  0.00  0.00    +0.000 A 
ATOM     18  C   UNL     1       7.340   4.805  13.542  0.00  0.00    +0.000 A 
ATOM     19  C   UNL     1       7.308   5.516  14.737  0.00  0.00    +0.000 A 
ATOM     20  C   UNL     1       6.285   5.248  15.633  0.00  0.00    +0.000 A 
ATOM     21  O   UNL     1       6.453   5.665  16.959  0.00  0.00    +0.000 OA
ATOM     22  C   UNL     1       5.949   4.716  17.849  0.00  0.00    +0.000 A 
ATOM     23  O   UNL     1       6.581   4.289  18.803  0.00  0.00    +0.000 OA
ENDBRANCH   7  13
BRANCH   1  25
ATOM     24  C   UNL     1       1.059   9.120  21.933  0.00  0.00    +0.000 C 
ATOM     25  O   UNL     1       0.785   8.834  20.560  0.00  0.00    +0.000 OA
ENDBRANCH   1  25
BRANCH   6  26
ATOM     26  O   UNL     1       2.908   9.079  18.532  0.00  0.00    +0.000 OA
ATOM     27  C   UNL     1       2.008   9.895  17.795  0.00  0.00    +0.000 C 
ENDBRANCH   6  26
TORSDOF 3
ENDMDL
MODEL 7
REMARK VINA RESULT:      -7.1      3.577      8.577
REMARK  Name = 
REMARK  7 active torsions:
REMARK  status: ('A' for Active; 'I' for Inactive)
REMARK    1  A    between atoms: C_1  and  O_2
REMARK    2  A    between atoms: O_2  and  C_3
REMARK    3  A    between atoms: C_8  and  O_9
REMARK    4  A    between atoms: O_9  and  C_10
REMARK    5  A    between atoms: C_11  and  C_12
REMARK    6  A    between atoms: C_24  and  C_25
REMARK    7  A    between atoms: C_24  and  C_26
REMARK                            x       y       z     vdW  Elec       q    Type
REMARK                         _______ _______ _______ _____ _____    ______ ____
ROOT
ATOM      1  C   UNL     1      -4.107  11.743  17.784  0.00  0.00    +0.000 A 
ATOM      2  C   UNL     1      -3.811  12.483  18.933  0.00  0.00    +0.000 A 
ATOM      3  C   UNL     1      -2.686  12.197  19.716  0.00  0.00    +0.000 A 
ATOM      4  C   UNL     1      -1.891  11.094  19.405  0.00  0.00    +0.000 A 
ATOM      5  C   UNL     1      -2.231  10.300  18.304  0.00  0.00    +0.000 A 
ATOM      6  C   UNL     1      -3.335  10.611  17.488  0.00  0.00    +0.000 A 
ATOM      7  C   UNL     1      -0.716  10.853  20.280  0.00  0.00    +0.000 C 
ATOM      8  N   UNL     1      -0.331  11.644  21.213  0.00  0.00    +0.000 NA
ATOM      9  C   UNL     1      -1.010  12.900  21.534  0.00  0.00    +0.000 C 
ATOM     10  C   UNL     1      -0.066  14.029  21.113  0.00  0.00    +0.000 C 
ATOM     11  C   UNL     1      -1.162  12.916  23.062  0.00  0.00    +0.000 C 
ATOM     12  C   UNL     1      -2.393  13.078  20.892  0.00  0.00    +0.000 C 
ENDROOT
BRANCH   7  13
ATOM     13  C   UNL     1       0.096   9.636  20.071  0.00  0.00    +0.000 A 
ATOM     14  C   UNL     1       1.003   9.627  19.091  0.00  0.00    +0.000 A 
ATOM     15  C   UNL     1       1.813   8.422  18.982  0.00  0.00    +0.000 A 
ATOM     16  C   UNL     1       2.233   7.889  17.771  0.00  0.00    +0.000 A 
ATOM     17  C   UNL     1       2.921   6.673  17.763  0.00  0.00    +0.000 A 
ATOM     18  C   UNL     1       3.284   6.052  18.965  0.00  0.00    +0.000 A 
ATOM     19  C   UNL     1       2.875   6.588  20.181  0.00  0.00    +0.000 A 
ATOM     20  C   UNL     1       2.068   7.716  20.163  0.00  0.00    +0.000 A 
ATOM     21  O   UNL     1       1.357   8.029  21.328  0.00  0.00    +0.000 OA
ATOM     22  C   UNL     1       0.080   8.500  21.023  0.00  0.00    +0.000 A 
ATOM     23  O   UNL     1      -0.937   8.068  21.543  0.00  0.00    +0.000 OA
ENDBRANCH   7  13
BRANCH   1  25
ATOM     24  C   UNL     1      -6.435  12.143  17.612  0.00  0.00    +0.000 C 
ATOM     25  O   UNL     1      -5.155  12.099  16.981  0.00  0.00    +0.000 OA
ENDBRANCH   1  25
BRANCH   6  26
ATOM     26  O   UNL     1      -3.484   9.731  16.446  0.00  0.00    +0.000 OA
ATOM     27  C   UNL     1      -2.922  10.067  15.185  0.00  0.00    +0.000 C 
ENDBRANCH   6  26
TORSDOF 3
ENDMDL
MODEL 8
REMARK VINA RESULT:      -7.0      6.017     11.513
REMARK  Name = 
REMARK  7 active torsions:
REMARK  status: ('A' for Active; 'I' for Inactive)
REMARK    1  A    between atoms: C_1  and  O_2
REMARK    2  A    between atoms: O_2  and  C_3
REMARK    3  A    between atoms: C_8  and  O_9
REMARK    4  A    between atoms: O_9  and  C_10
REMARK    5  A    between atoms: C_11  and  C_12
REMARK    6  A    between atoms: C_24  and  C_25
REMARK    7  A    between atoms: C_24  and  C_26
REMARK                            x       y       z     vdW  Elec       q    Type
REMARK                         _______ _______ _______ _____ _____    ______ ____
ROOT
ATOM      1  C   UNL     1      -6.097  14.034  22.944  0.00  0.00    +0.000 A 
ATOM      2  C   UNL     1      -5.377  14.787  23.877  0.00  0.00    +0.000 A 
ATOM      3  C   UNL     1      -3.982  14.698  23.966  0.00  0.00    +0.000 A 
ATOM      4  C   UNL     1      -3.297  13.774  23.178  0.00  0.00    +0.000 A 
ATOM      5  C   UNL     1      -4.022  12.958  22.302  0.00  0.00    +0.000 A 
ATOM      6  C   UNL     1      -5.419  13.077  22.176  0.00  0.00    +0.000 A 
ATOM      7  C   UNL     1      -1.821  13.736  23.328  0.00  0.00    +0.000 C 
ATOM      8  N   UNL     1      -1.141  14.561  24.036  0.00  0.00    +0.000 NA
ATOM      9  C   UNL     1      -1.745  15.658  24.795  0.00  0.00    +0.000 C 
ATOM     10  C   UNL     1      -1.325  16.955  24.099  0.00  0.00    +0.000 C 
ATOM     11  C   UNL     1      -1.106  15.605  26.190  0.00  0.00    +0.000 C 
ATOM     12  C   UNL     1      -3.271  15.588  24.940  0.00  0.00    +0.000 C 
ENDROOT
BRANCH   7  13
ATOM     13  C   UNL     1      -1.053  12.700  22.605  0.00  0.00    +0.000 A 
ATOM     14  C   UNL     1      -1.053  11.450  23.077  0.00  0.00    +0.000 A 
ATOM     15  C   UNL     1      -0.331  10.468  22.282  0.00  0.00    +0.000 A 
ATOM     16  C   UNL     1       0.389   9.417  22.834  0.00  0.00    +0.000 A 
ATOM     17  C   UNL     1       1.134   8.585  21.994  0.00  0.00    +0.000 A 
ATOM     18  C   UNL     1       1.069   8.735  20.604  0.00  0.00    +0.000 A 
ATOM     19  C   UNL     1       0.340   9.780  20.045  0.00  0.00    +0.000 A 
ATOM     20  C   UNL     1      -0.273  10.683  20.901  0.00  0.00    +0.000 A 
ATOM     21  O   UNL     1      -0.674  11.915  20.371  0.00  0.00    +0.000 OA
ATOM     22  C   UNL     1      -0.442  12.949  21.278  0.00  0.00    +0.000 A 
ATOM     23  O   UNL     1       0.142  13.981  20.985  0.00  0.00    +0.000 OA
ENDBRANCH   7  13
BRANCH   1  25
ATOM     24  C   UNL     1      -7.854  15.198  21.864  0.00  0.00    +0.000 C 
ATOM     25  O   UNL     1      -7.446  14.207  22.808  0.00  0.00    +0.000 OA
ENDBRANCH   1  25
BRANCH   6  26
ATOM     26  O   UNL     1      -5.940  12.212  21.248  0.00  0.00    +0.000 OA
ATOM     27  C   UNL     1      -5.743  12.494  19.868  0.00  0.00    +0.000 C 
ENDBRANCH   6  26
TORSDOF 3
ENDMDL
MODEL 9
REMARK VINA RESULT:      -7.0      4.316      9.341
REMARK  Name = 
REMARK  7 active torsions:
REMARK  status: ('A' for Active; 'I' for Inactive)
REMARK    1  A    between atoms: C_1  and  O_2
REMARK    2  A    between atoms: O_2  and  C_3
REMARK    3  A    between atoms: C_8  and  O_9
REMARK    4  A    between atoms: O_9  and  C_10
REMARK    5  A    between atoms: C_11  and  C_12
REMARK    6  A    between atoms: C_24  and  C_25
REMARK    7  A    between atoms: C_24  and  C_26
REMARK                            x       y       z     vdW  Elec       q    Type
REMARK                         _______ _______ _______ _____ _____    ______ ____
ROOT
ATOM      1  C   UNL     1      -5.165  12.207  17.876  0.00  0.00    +0.000 A 
ATOM      2  C   UNL     1      -5.071  12.711  19.176  0.00  0.00    +0.000 A 
ATOM      3  C   UNL     1      -3.888  12.600  19.918  0.00  0.00    +0.000 A 
ATOM      4  C   UNL     1      -2.809  11.890  19.394  0.00  0.00    +0.000 A 
ATOM      5  C   UNL     1      -2.927  11.311  18.126  0.00  0.00    +0.000 A 
ATOM      6  C   UNL     1      -4.097  11.460  17.358  0.00  0.00    +0.000 A 
ATOM      7  C   UNL     1      -1.590  11.814  20.238  0.00  0.00    +0.000 C 
ATOM      8  N   UNL     1      -1.432  12.443  21.345  0.00  0.00    +0.000 NA
ATOM      9  C   UNL     1      -2.447  13.327  21.920  0.00  0.00    +0.000 C 
ATOM     10  C   UNL     1      -1.900  14.752  21.812  0.00  0.00    +0.000 C 
ATOM     11  C   UNL     1      -2.551  12.939  23.402  0.00  0.00    +0.000 C 
ATOM     12  C   UNL     1      -3.838  13.228  21.278  0.00  0.00    +0.000 C 
ENDROOT
BRANCH   7  13
ATOM     13  C   UNL     1      -0.456  10.980  19.788  0.00  0.00    +0.000 A 
ATOM     14  C   UNL     1      -0.390   9.708  20.192  0.00  0.00    +0.000 A 
ATOM     15  C   UNL     1       0.716   8.926  19.658  0.00  0.00    +0.000 A 
ATOM     16  C   UNL     1       1.389   7.956  20.389  0.00  0.00    +0.000 A 
ATOM     17  C   UNL     1       2.504   7.330  19.826  0.00  0.00    +0.000 A 
ATOM     18  C   UNL     1       2.875   7.591  18.501  0.00  0.00    +0.000 A 
ATOM     19  C   UNL     1       2.196   8.555  17.762  0.00  0.00    +0.000 A 
ATOM     20  C   UNL     1       1.186   9.270  18.387  0.00  0.00    +0.000 A 
ATOM     21  O   UNL     1       0.770  10.468  17.791  0.00  0.00    +0.000 OA
ATOM     22  C   UNL     1       0.503  11.439  18.756  0.00  0.00    +0.000 A 
ATOM     23  O   UNL     1       0.958  12.572  18.710  0.00  0.00    +0.000 OA
ENDBRANCH   7  13
BRANCH   1  25
ATOM     24  C   UNL     1      -6.902  13.697  17.265  0.00  0.00    +0.000 C 
ATOM     25  O   UNL     1      -6.295  12.411  17.134  0.00  0.00    +0.000 OA
ENDBRANCH   1  25
BRANCH   6  26
ATOM     26  O   UNL     1      -4.007  10.845  16.136  0.00  0.00    +0.000 OA
ATOM     27  C   UNL     1      -2.719  10.517  15.632  0.00  0.00    +0.000 C 
ENDBRANCH   6  26
TORSDOF 3
ENDMDL
