MODEL 1
REMARK VINA RESULT:      -7.7      0.000      0.000
REMARK  Name = 
REMARK  8 active torsions:
REMARK  status: ('A' for Active; 'I' for Inactive)
REMARK    1  A    between atoms: C_1  and  C_2
REMARK    2  A    between atoms: C_2  and  C_4
REMARK    3  A    between atoms: C_8  and  N_9
REMARK    4  A    between atoms: C_13  and  C_14
REMARK    5  A    between atoms: C_14  and  C_15
REMARK    6  A    between atoms: C_15  and  C_16
REMARK    7  A    between atoms: C_17  and  C_18
REMARK    8  A    between atoms: C_21  and  C_22
REMARK                            x       y       z     vdW  Elec       q    Type
REMARK                         _______ _______ _______ _____ _____    ______ ____
ROOT
ATOM      1  N   UNL     1       3.290   3.550  20.196  0.00  0.00    +0.000 N 
ATOM      2  C   UNL     1       3.499   2.384  20.899  0.00  0.00    +0.000 A 
ATOM      3  N   UNL     1       2.699   2.320  21.933  0.00  0.00    +0.000 NA
ATOM      4  N   UNL     1       1.912   3.437  21.911  0.00  0.00    +0.000 NA
ATOM      5  C   UNL     1       2.232   4.167  20.856  0.00  0.00    +0.000 A 
ENDROOT
BRANCH   1  10
ATOM      6  C   UNL     1       6.054   5.029  18.176  0.00  0.00    +0.000 A 
ATOM      7  C   UNL     1       5.655   4.649  16.887  0.00  0.00    +0.000 A 
ATOM      8  C   UNL     1       4.462   3.952  16.693  0.00  0.00    +0.000 A 
ATOM      9  C   UNL     1       3.667   3.617  17.788  0.00  0.00    +0.000 A 
ATOM     10  C   UNL     1       4.067   3.974  19.086  0.00  0.00    +0.000 A 
ATOM     11  C   UNL     1       5.261   4.676  19.276  0.00  0.00    +0.000 A 
BRANCH   6  13
ATOM     12  C   UNL     1       7.520   7.076  17.572  0.00  0.00    +0.000 C 
ATOM     13  C   UNL     1       7.330   5.790  18.330  0.00  0.00    +0.000 C 
ATOM     14  O   UNL     1       8.208   5.360  19.080  0.00  0.00    +0.000 OA
ENDBRANCH   6  13
ENDBRANCH   1  10
BRANCH   5  15
ATOM     15  C   UNL     1       1.465   5.372  20.387  0.00  0.00    +0.000 C 
BRANCH  15  16
ATOM     16  C   UNL     1       2.153   6.688  20.781  0.00  0.00    +0.000 C 
BRANCH  16  17
ATOM     17  C   UNL     1       1.776   7.862  19.925  0.00  0.00    +0.000 A 
ATOM     18  C   UNL     1       0.951   8.982  20.246  0.00  0.00    +0.000 A 
ATOM     19  C   UNL     1       0.220   9.294  21.499  0.00  0.00    +0.000 C 
ATOM     20  N   UNL     1       0.893   9.862  19.240  0.00  0.00    +0.000 NA
ATOM     21  N   UNL     1       1.700   9.352  18.305  0.00  0.00    +0.000 N 
ATOM     22  C   UNL     1       2.246   8.149  18.652  0.00  0.00    +0.000 A 
ATOM     23  C   UNL     1       3.198   7.438  17.769  0.00  0.00    +0.000 C 
ATOM     24  H   UNL     1       1.848   9.890  17.457  0.00  0.00    +0.000 HD
ENDBRANCH  16  17
ENDBRANCH  15  16
ENDBRANCH   5  15
TORSDOF 5
ENDMDL
MODEL 2
REMARK VINA RESULT:      -7.7      0.225      1.706
REMARK  Name = 
REMARK  8 active torsions:
REMARK  status: ('A' for Active; 'I' for Inactive)
REMARK    1  A    between atoms: C_1  and  C_2
REMARK    2  A    between atoms: C_2  and  C_4
REMARK    3  A    between atoms: C_8  and  N_9
REMARK    4  A    between atoms: C_13  and  C_14
REMARK    5  A    between atoms: C_14  and  C_15
REMARK    6  A    between atoms: C_15  and  C_16
REMARK    7  A    between atoms: C_17  and  C_18
REMARK    8  A    between atoms: C_21  and  C_22
REMARK                            x       y       z     vdW  Elec       q    Type
REMARK                         _______ _______ _______ _____ _____    ______ ____
ROOT
ATOM      1  N   UNL     1       3.405   3.623  20.116  0.00  0.00    +0.000 N 
ATOM      2  C   UNL     1       3.657   2.447  20.787  0.00  0.00    +0.000 A 
ATOM      3  N   UNL     1       2.862   2.326  21.819  0.00  0.00    +0.000 NA
ATOM      4  N   UNL     1       2.035   3.414  21.828  0.00  0.00    +0.000 NA
ATOM      5  C   UNL     1       2.327   4.184  20.793  0.00  0.00    +0.000 A 
ENDROOT
BRANCH   1  10
ATOM      6  C   UNL     1       6.089   5.294  18.137  0.00  0.00    +0.000 A 
ATOM      7  C   UNL     1       5.730   4.898  16.841  0.00  0.00    +0.000 A 
ATOM      8  C   UNL     1       4.587   4.126  16.629  0.00  0.00    +0.000 A 
ATOM      9  C   UNL     1       3.804   3.732  17.713  0.00  0.00    +0.000 A 
ATOM     10  C   UNL     1       4.165   4.105  19.018  0.00  0.00    +0.000 A 
ATOM     11  C   UNL     1       5.309   4.882  19.225  0.00  0.00    +0.000 A 
BRANCH   6  13
ATOM     12  C   UNL     1       7.481   7.374  17.472  0.00  0.00    +0.000 C 
ATOM     13  C   UNL     1       7.311   6.135  18.311  0.00  0.00    +0.000 C 
ATOM     14  O   UNL     1       8.160   5.810  19.141  0.00  0.00    +0.000 OA
ENDBRANCH   6  13
ENDBRANCH   1  10
BRANCH   5  15
ATOM     15  C   UNL     1       1.516   5.372  20.356  0.00  0.00    +0.000 C 
BRANCH  15  16
ATOM     16  C   UNL     1       2.059   6.689  20.933  0.00  0.00    +0.000 C 
BRANCH  16  17
ATOM     17  C   UNL     1       1.741   7.902  20.107  0.00  0.00    +0.000 A 
ATOM     18  C   UNL     1       2.138   8.210  18.771  0.00  0.00    +0.000 A 
ATOM     19  C   UNL     1       2.988   7.438  17.831  0.00  0.00    +0.000 C 
ATOM     20  N   UNL     1       1.608   9.363  18.347  0.00  0.00    +0.000 NA
ATOM     21  N   UNL     1       0.844   9.771  19.366  0.00  0.00    +0.000 N 
ATOM     22  C   UNL     1       0.895   8.944  20.452  0.00  0.00    +0.000 A 
ATOM     23  C   UNL     1       0.090   9.201  21.668  0.00  0.00    +0.000 C 
ATOM     24  H   UNL     1       0.298  10.618  19.243  0.00  0.00    +0.000 HD
ENDBRANCH  16  17
ENDBRANCH  15  16
ENDBRANCH   5  15
TORSDOF 5
ENDMDL
MODEL 3
REMARK VINA RESULT:      -7.5      2.062      3.066
REMARK  Name = 
REMARK  8 active torsions:
REMARK  status: ('A' for Active; 'I' for Inactive)
REMARK    1  A    between atoms: C_1  and  C_2
REMARK    2  A    between atoms: C_2  and  C_4
REMARK    3  A    between atoms: C_8  and  N_9
REMARK    4  A    between atoms: C_13  and  C_14
REMARK    5  A    between atoms: C_14  and  C_15
REMARK    6  A    between atoms: C_15  and  C_16
REMARK    7  A    between atoms: C_17  and  C_18
REMARK    8  A    between atoms: C_21  and  C_22
REMARK                            x       y       z     vdW  Elec       q    Type
REMARK                         _______ _______ _______ _____ _____    ______ ____
ROOT
ATOM      1  N   UNL     1       3.560   3.111  17.987  0.00  0.00    +0.000 N 
ATOM      2  C   UNL     1       3.430   1.795  18.373  0.00  0.00    +0.000 A 
ATOM      3  N   UNL     1       2.196   1.539  18.727  0.00  0.00    +0.000 NA
ATOM      4  N   UNL     1       1.472   2.683  18.544  0.00  0.00    +0.000 NA
ATOM      5  C   UNL     1       2.270   3.624  18.068  0.00  0.00    +0.000 A 
ENDROOT
BRANCH   1  10
ATOM      6  C   UNL     1       6.367   4.533  15.987  0.00  0.00    +0.000 A 
ATOM      7  C   UNL     1       7.133   5.116  17.006  0.00  0.00    +0.000 A 
ATOM      8  C   UNL     1       6.743   4.996  18.340  0.00  0.00    +0.000 A 
ATOM      9  C   UNL     1       5.575   4.305  18.662  0.00  0.00    +0.000 A 
ATOM     10  C   UNL     1       4.789   3.735  17.648  0.00  0.00    +0.000 A 
ATOM     11  C   UNL     1       5.186   3.854  16.313  0.00  0.00    +0.000 A 
BRANCH   6  13
ATOM     12  C   UNL     1       6.185   3.854  13.494  0.00  0.00    +0.000 C 
ATOM     13  C   UNL     1       6.837   4.674  14.575  0.00  0.00    +0.000 C 
ATOM     14  O   UNL     1       7.746   5.462  14.313  0.00  0.00    +0.000 OA
ENDBRANCH   6  13
ENDBRANCH   1  10
BRANCH   5  15
ATOM     15  C   UNL     1       1.806   4.962  17.563  0.00  0.00    +0.000 C 
BRANCH  15  16
ATOM     16  C   UNL     1       2.762   6.096  17.961  0.00  0.00    +0.000 C 
BRANCH  16  17
ATOM     17  C   UNL     1       2.275   6.942  19.103  0.00  0.00    +0.000 A 
ATOM     18  C   UNL     1       1.847   8.304  19.096  0.00  0.00    +0.000 A 
ATOM     19  C   UNL     1       1.782   9.272  17.973  0.00  0.00    +0.000 C 
ATOM     20  N   UNL     1       1.424   8.699  20.302  0.00  0.00    +0.000 NA
ATOM     21  N   UNL     1       1.527   7.606  21.065  0.00  0.00    +0.000 N 
ATOM     22  C   UNL     1       2.044   6.527  20.406  0.00  0.00    +0.000 A 
ATOM     23  C   UNL     1       2.202   5.210  21.064  0.00  0.00    +0.000 C 
ATOM     24  H   UNL     1       1.208   7.664  22.026  0.00  0.00    +0.000 HD
ENDBRANCH  16  17
ENDBRANCH  15  16
ENDBRANCH   5  15
TORSDOF 5
ENDMDL
MODEL 4
REMARK VINA RESULT:      -7.3      2.950      5.965
REMARK  Name = 
REMARK  8 active torsions:
REMARK  status: ('A' for Active; 'I' for Inactive)
REMARK    1  A    between atoms: C_1  and  C_2
REMARK    2  A    between atoms: C_2  and  C_4
REMARK    3  A    between atoms: C_8  and  N_9
REMARK    4  A    between atoms: C_13  and  C_14
REMARK    5  A    between atoms: C_14  and  C_15
REMARK    6  A    between atoms: C_15  and  C_16
REMARK    7  A    between atoms: C_17  and  C_18
REMARK    8  A    between atoms: C_21  and  C_22
REMARK                            x       y       z     vdW  Elec       q    Type
REMARK                         _______ _______ _______ _____ _____    ______ ____
ROOT
ATOM      1  N   UNL     1       2.623   5.163  19.588  0.00  0.00    +0.000 N 
ATOM      2  C   UNL     1       2.600   4.501  20.796  0.00  0.00    +0.000 A 
ATOM      3  N   UNL     1       2.900   3.238  20.634  0.00  0.00    +0.000 NA
ATOM      4  N   UNL     1       3.167   3.047  19.308  0.00  0.00    +0.000 NA
ATOM      5  C   UNL     1       3.038   4.200  18.674  0.00  0.00    +0.000 A 
ENDROOT
BRANCH   1  10
ATOM      6  C   UNL     1       1.365   8.606  20.275  0.00  0.00    +0.000 A 
ATOM      7  C   UNL     1       1.649   9.227  19.051  0.00  0.00    +0.000 A 
ATOM      8  C   UNL     1       2.207   8.497  18.001  0.00  0.00    +0.000 A 
ATOM      9  C   UNL     1       2.499   7.145  18.173  0.00  0.00    +0.000 A 
ATOM     10  C   UNL     1       2.239   6.517  19.402  0.00  0.00    +0.000 A 
ATOM     11  C   UNL     1       1.676   7.251  20.450  0.00  0.00    +0.000 A 
BRANCH   6  13
ATOM     12  C   UNL     1      -0.377   8.848  22.176  0.00  0.00    +0.000 C 
ATOM     13  C   UNL     1       0.751   9.425  21.363  0.00  0.00    +0.000 C 
ATOM     14  O   UNL     1       1.178  10.559  21.586  0.00  0.00    +0.000 OA
ENDBRANCH   6  13
ENDBRANCH   1  10
BRANCH   5  15
ATOM     15  C   UNL     1       3.429   4.436  17.242  0.00  0.00    +0.000 C 
BRANCH  15  16
ATOM     16  C   UNL     1       4.719   3.692  16.863  0.00  0.00    +0.000 C 
BRANCH  16  17
ATOM     17  C   UNL     1       5.818   4.582  16.356  0.00  0.00    +0.000 A 
ATOM     18  C   UNL     1       6.657   5.479  17.083  0.00  0.00    +0.000 A 
ATOM     19  C   UNL     1       6.670   5.804  18.531  0.00  0.00    +0.000 C 
ATOM     20  N   UNL     1       7.567   6.060  16.293  0.00  0.00    +0.000 NA
ATOM     21  N   UNL     1       7.358   5.516  15.090  0.00  0.00    +0.000 N 
ATOM     22  C   UNL     1       6.315   4.634  15.063  0.00  0.00    +0.000 A 
ATOM     23  C   UNL     1       5.947   3.896  13.833  0.00  0.00    +0.000 C 
ATOM     24  H   UNL     1       7.980   5.780  14.333  0.00  0.00    +0.000 HD
ENDBRANCH  16  17
ENDBRANCH  15  16
ENDBRANCH   5  15
TORSDOF 5
ENDMDL
MODEL 5
REMARK VINA RESULT:      -7.3      2.072      3.031
REMARK  Name = 
REMARK  8 active torsions:
REMARK  status: ('A' for Active; 'I' for Inactive)
REMARK    1  A    between atoms: C_1  and  C_2
REMARK    2  A    between atoms: C_2  and  C_4
REMARK    3  A    between atoms: C_8  and  N_9
REMARK    4  A    between atoms: C_13  and  C_14
REMARK    5  A    between atoms: C_14  and  C_15
REMARK    6  A    between atoms: C_15  and  C_16
REMARK    7  A    between atoms: C_17  and  C_18
REMARK    8  A    between atoms: C_21  and  C_22
REMARK                            x       y       z     vdW  Elec       q    Type
REMARK                         _______ _______ _______ _____ _____    ______ ____
ROOT
ATOM      1  N   UNL     1       3.646   3.187  17.943  0.00  0.00    +0.000 N 
ATOM      2  C   UNL     1       3.493   1.890  18.380  0.00  0.00    +0.000 A 
ATOM      3  N   UNL     1       2.257   1.672  18.752  0.00  0.00    +0.000 NA
ATOM      4  N   UNL     1       1.554   2.823  18.531  0.00  0.00    +0.000 NA
ATOM      5  C   UNL     1       2.367   3.729  18.014  0.00  0.00    +0.000 A 
ENDROOT
BRANCH   1  10
ATOM      6  C   UNL     1       6.435   4.539  15.870  0.00  0.00    +0.000 A 
ATOM      7  C   UNL     1       7.253   5.081  16.871  0.00  0.00    +0.000 A 
ATOM      8  C   UNL     1       6.902   4.957  18.215  0.00  0.00    +0.000 A 
ATOM      9  C   UNL     1       5.722   4.301  18.567  0.00  0.00    +0.000 A 
ATOM     10  C   UNL     1       4.884   3.773  17.572  0.00  0.00    +0.000 A 
ATOM     11  C   UNL     1       5.242   3.896  16.226  0.00  0.00    +0.000 A 
BRANCH   6  13
ATOM     12  C   UNL     1       6.221   3.822  13.390  0.00  0.00    +0.000 C 
ATOM     13  C   UNL     1       6.864   4.682  14.446  0.00  0.00    +0.000 C 
ATOM     14  O   UNL     1       7.731   5.504  14.152  0.00  0.00    +0.000 OA
ENDBRANCH   6  13
ENDBRANCH   1  10
BRANCH   5  15
ATOM     15  C   UNL     1       1.925   5.056  17.462  0.00  0.00    +0.000 C 
BRANCH  15  16
ATOM     16  C   UNL     1       2.800   6.214  17.966  0.00  0.00    +0.000 C 
BRANCH  16  17
ATOM     17  C   UNL     1       2.163   7.044  19.044  0.00  0.00    +0.000 A 
ATOM     18  C   UNL     1       1.839   6.682  20.386  0.00  0.00    +0.000 A 
ATOM     19  C   UNL     1       2.017   5.387  21.088  0.00  0.00    +0.000 C 
ATOM     20  N   UNL     1       1.333   7.713  21.071  0.00  0.00    +0.000 NA
ATOM     21  N   UNL     1       1.372   8.735  20.211  0.00  0.00    +0.000 N 
ATOM     22  C   UNL     1       1.847   8.392  18.977  0.00  0.00    +0.000 A 
ATOM     23  C   UNL     1       2.006   9.391  17.895  0.00  0.00    +0.000 C 
ATOM     24  H   UNL     1       1.075   9.648  20.541  0.00  0.00    +0.000 HD
ENDBRANCH  16  17
ENDBRANCH  15  16
ENDBRANCH   5  15
TORSDOF 5
ENDMDL
MODEL 6
REMARK VINA RESULT:      -7.3      2.903      6.122
REMARK  Name = 
REMARK  8 active torsions:
REMARK  status: ('A' for Active; 'I' for Inactive)
REMARK    1  A    between atoms: C_1  and  C_2
REMARK    2  A    between atoms: C_2  and  C_4
REMARK    3  A    between atoms: C_8  and  N_9
REMARK    4  A    between atoms: C_13  and  C_14
REMARK    5  A    between atoms: C_14  and  C_15
REMARK    6  A    between atoms: C_15  and  C_16
REMARK    7  A    between atoms: C_17  and  C_18
REMARK    8  A    between atoms: C_21  and  C_22
REMARK                            x       y       z     vdW  Elec       q    Type
REMARK                         _______ _______ _______ _____ _____    ______ ____
ROOT
ATOM      1  N   UNL     1       2.638   5.148  19.621  0.00  0.00    +0.000 N 
ATOM      2  C   UNL     1       2.601   4.473  20.821  0.00  0.00    +0.000 A 
ATOM      3  N   UNL     1       2.932   3.218  20.654  0.00  0.00    +0.000 NA
ATOM      4  N   UNL     1       3.234   3.047  19.332  0.00  0.00    +0.000 NA
ATOM      5  C   UNL     1       3.094   4.205  18.707  0.00  0.00    +0.000 A 
ENDROOT
BRANCH   1  10
ATOM      6  C   UNL     1       1.406   8.594  20.340  0.00  0.00    +0.000 A 
ATOM      7  C   UNL     1       1.592   9.194  19.086  0.00  0.00    +0.000 A 
ATOM      8  C   UNL     1       2.076   8.450  18.011  0.00  0.00    +0.000 A 
ATOM      9  C   UNL     1       2.391   7.102  18.185  0.00  0.00    +0.000 A 
ATOM     10  C   UNL     1       2.230   6.496  19.440  0.00  0.00    +0.000 A 
ATOM     11  C   UNL     1       1.741   7.245  20.515  0.00  0.00    +0.000 A 
BRANCH   6  13
ATOM     12  C   UNL     1      -0.347  10.286  21.218  0.00  0.00    +0.000 C 
ATOM     13  C   UNL     1       0.868   9.429  21.456  0.00  0.00    +0.000 C 
ATOM     14  O   UNL     1       1.419   9.401  22.556  0.00  0.00    +0.000 OA
ENDBRANCH   6  13
ENDBRANCH   1  10
BRANCH   5  15
ATOM     15  C   UNL     1       3.514   4.464  17.287  0.00  0.00    +0.000 C 
BRANCH  15  16
ATOM     16  C   UNL     1       4.745   3.637  16.886  0.00  0.00    +0.000 C 
BRANCH  16  17
ATOM     17  C   UNL     1       5.894   4.452  16.366  0.00  0.00    +0.000 A 
ATOM     18  C   UNL     1       6.381   4.573  15.030  0.00  0.00    +0.000 A 
ATOM     19  C   UNL     1       5.909   3.916  13.785  0.00  0.00    +0.000 C 
ATOM     20  N   UNL     1       7.392   5.444  14.944  0.00  0.00    +0.000 NA
ATOM     21  N   UNL     1       7.528   5.918  16.187  0.00  0.00    +0.000 N 
ATOM     22  C   UNL     1       6.668   5.351  17.085  0.00  0.00    +0.000 A 
ATOM     23  C   UNL     1       6.633   5.768  18.505  0.00  0.00    +0.000 C 
ATOM     24  H   UNL     1       8.218   6.644  16.348  0.00  0.00    +0.000 HD
ENDBRANCH  16  17
ENDBRANCH  15  16
ENDBRANCH   5  15
TORSDOF 5
ENDMDL
MODEL 7
REMARK VINA RESULT:      -7.2      2.442      4.919
REMARK  Name = 
REMARK  8 active torsions:
REMARK  status: ('A' for Active; 'I' for Inactive)
REMARK    1  A    between atoms: C_1  and  C_2
REMARK    2  A    between atoms: C_2  and  C_4
REMARK    3  A    between atoms: C_8  and  N_9
REMARK    4  A    between atoms: C_13  and  C_14
REMARK    5  A    between atoms: C_14  and  C_15
REMARK    6  A    between atoms: C_15  and  C_16
REMARK    7  A    between atoms: C_17  and  C_18
REMARK    8  A    between atoms: C_21  and  C_22
REMARK                            x       y       z     vdW  Elec       q    Type
REMARK                         _______ _______ _______ _____ _____    ______ ____
ROOT
ATOM      1  N   UNL     1       3.784   6.640  18.261  0.00  0.00    +0.000 N 
ATOM      2  C   UNL     1       3.271   7.722  17.580  0.00  0.00    +0.000 A 
ATOM      3  N   UNL     1       2.152   8.123  18.129  0.00  0.00    +0.000 NA
ATOM      4  N   UNL     1       1.923   7.328  19.217  0.00  0.00    +0.000 NA
ATOM      5  C   UNL     1       2.911   6.456  19.328  0.00  0.00    +0.000 A 
ENDROOT
BRANCH   1  10
ATOM      6  C   UNL     1       6.398   5.062  16.120  0.00  0.00    +0.000 A 
ATOM      7  C   UNL     1       7.276   4.586  17.104  0.00  0.00    +0.000 A 
ATOM      8  C   UNL     1       6.977   4.749  18.456  0.00  0.00    +0.000 A 
ATOM      9  C   UNL     1       5.805   5.403  18.835  0.00  0.00    +0.000 A 
ATOM     10  C   UNL     1       4.928   5.902  17.858  0.00  0.00    +0.000 A 
ATOM     11  C   UNL     1       5.230   5.733  16.504  0.00  0.00    +0.000 A 
BRANCH   6  13
ATOM     12  C   UNL     1       5.914   3.920  13.846  0.00  0.00    +0.000 C 
ATOM     13  C   UNL     1       6.754   4.847  14.685  0.00  0.00    +0.000 C 
ATOM     14  O   UNL     1       7.724   5.434  14.204  0.00  0.00    +0.000 OA
ENDBRANCH   6  13
ENDBRANCH   1  10
BRANCH   5  15
ATOM     15  C   UNL     1       3.113   5.539  20.502  0.00  0.00    +0.000 C 
BRANCH  15  16
ATOM     16  C   UNL     1       2.256   4.268  20.400  0.00  0.00    +0.000 C 
BRANCH  16  17
ATOM     17  C   UNL     1       2.686   3.318  19.319  0.00  0.00    +0.000 A 
ATOM     18  C   UNL     1       2.251   3.241  17.962  0.00  0.00    +0.000 A 
ATOM     19  C   UNL     1       1.240   4.056  17.242  0.00  0.00    +0.000 C 
ATOM     20  N   UNL     1       2.909   2.297  17.281  0.00  0.00    +0.000 NA
ATOM     21  N   UNL     1       3.787   1.805  18.160  0.00  0.00    +0.000 N 
ATOM     22  C   UNL     1       3.692   2.367  19.401  0.00  0.00    +0.000 A 
ATOM     23  C   UNL     1       4.603   1.986  20.504  0.00  0.00    +0.000 C 
ATOM     24  H   UNL     1       4.437   1.095  17.837  0.00  0.00    +0.000 HD
ENDBRANCH  16  17
ENDBRANCH  15  16
ENDBRANCH   5  15
TORSDOF 5
ENDMDL
MODEL 8
REMARK VINA RESULT:      -7.1      2.943      6.020
REMARK  Name = 
REMARK  8 active torsions:
REMARK  status: ('A' for Active; 'I' for Inactive)
REMARK    1  A    between atoms: C_1  and  C_2
REMARK    2  A    between atoms: C_2  and  C_4
REMARK    3  A    between atoms: C_8  and  N_9
REMARK    4  A    between atoms: C_13  and  C_14
REMARK    5  A    between atoms: C_14  and  C_15
REMARK    6  A    between atoms: C_15  and  C_16
REMARK    7  A    between atoms: C_17  and  C_18
REMARK    8  A    between atoms: C_21  and  C_22
REMARK                            x       y       z     vdW  Elec       q    Type
REMARK                         _______ _______ _______ _____ _____    ______ ____
ROOT
ATOM      1  N   UNL     1       2.355   5.339  18.421  0.00  0.00    +0.000 N 
ATOM      2  C   UNL     1       1.466   4.459  17.846  0.00  0.00    +0.000 A 
ATOM      3  N   UNL     1       2.055   3.322  17.574  0.00  0.00    +0.000 NA
ATOM      4  N   UNL     1       3.348   3.418  18.004  0.00  0.00    +0.000 NA
ATOM      5  C   UNL     1       3.533   4.611  18.545  0.00  0.00    +0.000 A 
ENDROOT
BRANCH   1  10
ATOM      6  C   UNL     1       1.450   8.403  20.344  0.00  0.00    +0.000 A 
ATOM      7  C   UNL     1       1.651   9.385  19.364  0.00  0.00    +0.000 A 
ATOM      8  C   UNL     1       2.038   9.026  18.073  0.00  0.00    +0.000 A 
ATOM      9  C   UNL     1       2.240   7.682  17.757  0.00  0.00    +0.000 A 
ATOM     10  C   UNL     1       2.061   6.692  18.736  0.00  0.00    +0.000 A 
ATOM     11  C   UNL     1       1.670   7.057  20.028  0.00  0.00    +0.000 A 
BRANCH   6  13
ATOM     12  C   UNL     1      -0.418   8.656  22.121  0.00  0.00    +0.000 C 
ATOM     13  C   UNL     1       1.018   8.837  21.707  0.00  0.00    +0.000 C 
ATOM     14  O   UNL     1       1.842   9.331  22.478  0.00  0.00    +0.000 OA
ENDBRANCH   6  13
ENDBRANCH   1  10
BRANCH   5  15
ATOM     15  C   UNL     1       4.767   5.026  19.297  0.00  0.00    +0.000 C 
BRANCH  15  16
ATOM     16  C   UNL     1       6.042   4.401  18.710  0.00  0.00    +0.000 C 
BRANCH  16  17
ATOM     17  C   UNL     1       6.603   5.141  17.529  0.00  0.00    +0.000 A 
ATOM     18  C   UNL     1       7.452   6.288  17.506  0.00  0.00    +0.000 A 
ATOM     19  C   UNL     1       8.001   7.085  18.631  0.00  0.00    +0.000 C 
ATOM     20  N   UNL     1       7.795   6.629  16.259  0.00  0.00    +0.000 NA
ATOM     21  N   UNL     1       7.224   5.696  15.491  0.00  0.00    +0.000 N 
ATOM     22  C   UNL     1       6.486   4.786  16.194  0.00  0.00    +0.000 A 
ATOM     23  C   UNL     1       5.805   3.651  15.530  0.00  0.00    +0.000 C 
ATOM     24  H   UNL     1       7.396   5.731  14.491  0.00  0.00    +0.000 HD
ENDBRANCH  16  17
ENDBRANCH  15  16
ENDBRANCH   5  15
TORSDOF 5
ENDMDL
MODEL 9
REMARK VINA RESULT:      -7.1      2.244      3.472
REMARK  Name = 
REMARK  8 active torsions:
REMARK  status: ('A' for Active; 'I' for Inactive)
REMARK    1  A    between atoms: C_1  and  C_2
REMARK    2  A    between atoms: C_2  and  C_4
REMARK    3  A    between atoms: C_8  and  N_9
REMARK    4  A    between atoms: C_13  and  C_14
REMARK    5  A    between atoms: C_14  and  C_15
REMARK    6  A    between atoms: C_15  and  C_16
REMARK    7  A    between atoms: C_17  and  C_18
REMARK    8  A    between atoms: C_21  and  C_22
REMARK                            x       y       z     vdW  Elec       q    Type
REMARK                         _______ _______ _______ _____ _____    ______ ____
ROOT
ATOM      1  N   UNL     1       4.737   3.305  18.814  0.00  0.00    +0.000 N 
ATOM      2  C   UNL     1       5.049   2.608  19.960  0.00  0.00    +0.000 A 
ATOM      3  N   UNL     1       4.010   1.937  20.388  0.00  0.00    +0.000 NA
ATOM      4  N   UNL     1       2.992   2.151  19.503  0.00  0.00    +0.000 NA
ATOM      5  C   UNL     1       3.423   2.943  18.535  0.00  0.00    +0.000 A 
ENDROOT
BRANCH   1  10
ATOM      6  C   UNL     1       6.681   5.033  16.142  0.00  0.00    +0.000 A 
ATOM      7  C   UNL     1       7.198   6.116  16.866  0.00  0.00    +0.000 A 
ATOM      8  C   UNL     1       6.939   6.242  18.231  0.00  0.00    +0.000 A 
ATOM      9  C   UNL     1       6.149   5.291  18.878  0.00  0.00    +0.000 A 
ATOM     10  C   UNL     1       5.609   4.214  18.159  0.00  0.00    +0.000 A 
ATOM     11  C   UNL     1       5.874   4.090  16.791  0.00  0.00    +0.000 A 
BRANCH   6  13
ATOM     12  C   UNL     1       6.203   4.001  13.815  0.00  0.00    +0.000 C 
ATOM     13  C   UNL     1       7.002   4.934  14.686  0.00  0.00    +0.000 C 
ATOM     14  O   UNL     1       7.910   5.619  14.215  0.00  0.00    +0.000 OA
ENDBRANCH   6  13
ENDBRANCH   1  10
BRANCH   5  15
ATOM     15  C   UNL     1       2.656   3.255  17.281  0.00  0.00    +0.000 C 
BRANCH  15  16
ATOM     16  C   UNL     1       1.647   4.396  17.487  0.00  0.00    +0.000 C 
BRANCH  16  17
ATOM     17  C   UNL     1       2.014   5.353  18.584  0.00  0.00    +0.000 A 
ATOM     18  C   UNL     1       2.732   6.584  18.501  0.00  0.00    +0.000 A 
ATOM     19  C   UNL     1       3.334   7.254  17.322  0.00  0.00    +0.000 C 
ATOM     20  N   UNL     1       2.814   7.194  19.689  0.00  0.00    +0.000 NA
ATOM     21  N   UNL     1       2.123   6.403  20.516  0.00  0.00    +0.000 N 
ATOM     22  C   UNL     1       1.632   5.279  19.914  0.00  0.00    +0.000 A 
ATOM     23  C   UNL     1       0.806   4.295  20.651  0.00  0.00    +0.000 C 
ATOM     24  H   UNL     1       2.010   6.703  21.479  0.00  0.00    +0.000 HD
ENDBRANCH  16  17
ENDBRANCH  15  16
ENDBRANCH   5  15
TORSDOF 5
ENDMDL
