MODEL 1
REMARK VINA RESULT:      -8.2      0.000      0.000
REMARK  Name = 
REMARK  6 active torsions:
REMARK  status: ('A' for Active; 'I' for Inactive)
REMARK    1  A    between atoms: C_1  and  N_2
REMARK    2  A    between atoms: N_2  and  C_3
REMARK    3  A    between atoms: N_2  and  S_14
REMARK    4  A    between atoms: C_3  and  C_4
REMARK    5  A    between atoms: N_6  and  C_7
REMARK    6  A    between atoms: S_14  and  C_17
REMARK                            x       y       z     vdW  Elec       q    Type
REMARK                         _______ _______ _______ _____ _____    ______ ____
ROOT
ATOM      1  C   UNL     1       7.787   7.325  17.896  0.00  0.00    +0.000 C 
ATOM      2  N   UNL     1       6.562   6.483  18.007  0.00  0.00    +0.000 NA
ENDROOT
BRANCH   2   3
ATOM      3  S   UNL     1       6.895   4.796  17.870  0.00  0.00    +0.000 S 
ATOM      4  O   UNL     1       8.307   4.594  18.109  0.00  0.00    +0.000 OA
ATOM      5  O   UNL     1       5.890   4.088  18.633  0.00  0.00    +0.000 OA
BRANCH   3   6
ATOM      6  C   UNL     1       6.614   4.500  16.141  0.00  0.00    +0.000 A 
ATOM      7  C   UNL     1       5.499   3.739  15.768  0.00  0.00    +0.000 A 
ATOM      8  C   UNL     1       5.272   3.474  14.419  0.00  0.00    +0.000 A 
ATOM      9  C   UNL     1       6.152   3.977  13.464  0.00  0.00    +0.000 A 
ATOM     10  F   UNL     1       5.938   3.711  12.169  0.00  0.00    +0.000 F 
ATOM     11  C   UNL     1       7.252   4.750  13.831  0.00  0.00    +0.000 A 
ATOM     12  C   UNL     1       7.487   5.021  15.180  0.00  0.00    +0.000 A 
ENDBRANCH   3   6
ENDBRANCH   2   3
BRANCH   2  13
ATOM     13  C   UNL     1       5.507   6.901  17.022  0.00  0.00    +0.000 C 
BRANCH  13  14
ATOM     14  C   UNL     1       4.089   6.876  17.574  0.00  0.00    +0.000 C 
ATOM     15  O   UNL     1       3.390   7.884  17.611  0.00  0.00    +0.000 OA
ATOM     16  N   UNL     1       3.646   5.639  17.997  0.00  0.00    +0.000 N 
ATOM     17  H   UNL     1       4.245   4.846  17.791  0.00  0.00    +0.000 HD
BRANCH  16  18
ATOM     18  C   UNL     1       2.299   5.416  18.521  0.00  0.00    +0.000 C 
ATOM     19  C   UNL     1       1.546   4.399  17.654  0.00  0.00    +0.000 C 
ATOM     20  C   UNL     1       1.872   2.939  17.961  0.00  0.00    +0.000 C 
ATOM     21  C   UNL     1       0.974   2.345  19.045  0.00  0.00    +0.000 C 
ATOM     22  C   UNL     1       1.199   2.881  20.457  0.00  0.00    +0.000 C 
ATOM     23  C   UNL     1       1.149   4.401  20.603  0.00  0.00    +0.000 C 
ATOM     24  C   UNL     1       2.381   5.088  20.019  0.00  0.00    +0.000 C 
ENDBRANCH  16  18
ENDBRANCH  13  14
ENDBRANCH   2  13
TORSDOF 5
ENDMDL
MODEL 2
REMARK VINA RESULT:      -8.2      0.117      1.021
REMARK  Name = 
REMARK  6 active torsions:
REMARK  status: ('A' for Active; 'I' for Inactive)
REMARK    1  A    between atoms: C_1  and  N_2
REMARK    2  A    between atoms: N_2  and  C_3
REMARK    3  A    between atoms: N_2  and  S_14
REMARK    4  A    between atoms: C_3  and  C_4
REMARK    5  A    between atoms: N_6  and  C_7
REMARK    6  A    between atoms: S_14  and  C_17
REMARK                            x       y       z     vdW  Elec       q    Type
REMARK                         _______ _______ _______ _____ _____    ______ ____
ROOT
ATOM      1  C   UNL     1       7.746   7.319  17.776  0.00  0.00    +0.000 C 
ATOM      2  N   UNL     1       6.532   6.472  17.955  0.00  0.00    +0.000 NA
ENDROOT
BRANCH   2   3
ATOM      3  S   UNL     1       6.872   4.785  17.841  0.00  0.00    +0.000 S 
ATOM      4  O   UNL     1       8.283   4.590  18.094  0.00  0.00    +0.000 OA
ATOM      5  O   UNL     1       5.863   4.083  18.605  0.00  0.00    +0.000 OA
BRANCH   3   6
ATOM      6  C   UNL     1       6.605   4.467  16.114  0.00  0.00    +0.000 A 
ATOM      7  C   UNL     1       7.524   4.982  15.192  0.00  0.00    +0.000 A 
ATOM      8  C   UNL     1       7.321   4.766  13.830  0.00  0.00    +0.000 A 
ATOM      9  C   UNL     1       6.214   4.034  13.410  0.00  0.00    +0.000 A 
ATOM     10  F   UNL     1       6.016   3.838  12.099  0.00  0.00    +0.000 F 
ATOM     11  C   UNL     1       5.308   3.505  14.326  0.00  0.00    +0.000 A 
ATOM     12  C   UNL     1       5.503   3.716  15.691  0.00  0.00    +0.000 A 
ENDBRANCH   3   6
ENDBRANCH   2   3
BRANCH   2  13
ATOM     13  C   UNL     1       5.435   6.861  17.005  0.00  0.00    +0.000 C 
BRANCH  13  14
ATOM     14  C   UNL     1       4.039   6.819  17.608  0.00  0.00    +0.000 C 
ATOM     15  O   UNL     1       3.390   7.841  17.813  0.00  0.00    +0.000 OA
ATOM     16  N   UNL     1       3.554   5.555  17.875  0.00  0.00    +0.000 N 
ATOM     17  H   UNL     1       4.106   4.774  17.537  0.00  0.00    +0.000 HD
BRANCH  16  18
ATOM     18  C   UNL     1       2.217   5.317  18.421  0.00  0.00    +0.000 C 
ATOM     19  C   UNL     1       1.503   4.213  17.632  0.00  0.00    +0.000 C 
ATOM     20  C   UNL     1       1.887   2.792  18.040  0.00  0.00    +0.000 C 
ATOM     21  C   UNL     1       1.015   2.243  19.168  0.00  0.00    +0.000 C 
ATOM     22  C   UNL     1       1.222   2.885  20.537  0.00  0.00    +0.000 C 
ATOM     23  C   UNL     1       1.113   4.409  20.576  0.00  0.00    +0.000 C 
ATOM     24  C   UNL     1       2.316   5.100  19.938  0.00  0.00    +0.000 C 
ENDBRANCH  16  18
ENDBRANCH  13  14
ENDBRANCH   2  13
TORSDOF 5
ENDMDL
MODEL 3
REMARK VINA RESULT:      -7.3      1.839      2.658
REMARK  Name = 
REMARK  6 active torsions:
REMARK  status: ('A' for Active; 'I' for Inactive)
REMARK    1  A    between atoms: C_1  and  N_2
REMARK    2  A    between atoms: N_2  and  C_3
REMARK    3  A    between atoms: N_2  and  S_14
REMARK    4  A    between atoms: C_3  and  C_4
REMARK    5  A    between atoms: N_6  and  C_7
REMARK    6  A    between atoms: S_14  and  C_17
REMARK                            x       y       z     vdW  Elec       q    Type
REMARK                         _______ _______ _______ _____ _____    ______ ____
ROOT
ATOM      1  C   UNL     1       7.164   7.016  17.388  0.00  0.00    +0.000 C 
ATOM      2  N   UNL     1       7.042   5.744  16.620  0.00  0.00    +0.000 NA
ENDROOT
BRANCH   2   3
ATOM      3  S   UNL     1       5.601   5.667  15.677  0.00  0.00    +0.000 S 
ATOM      4  O   UNL     1       4.674   4.777  16.340  0.00  0.00    +0.000 OA
ATOM      5  O   UNL     1       5.232   7.022  15.331  0.00  0.00    +0.000 OA
BRANCH   3   6
ATOM      6  C   UNL     1       6.160   4.835  14.210  0.00  0.00    +0.000 A 
ATOM      7  C   UNL     1       5.341   3.846  13.652  0.00  0.00    +0.000 A 
ATOM      8  C   UNL     1       5.771   3.163  12.515  0.00  0.00    +0.000 A 
ATOM      9  C   UNL     1       7.003   3.482  11.949  0.00  0.00    +0.000 A 
ATOM     10  F   UNL     1       7.418   2.815  10.864  0.00  0.00    +0.000 F 
ATOM     11  C   UNL     1       7.812   4.478  12.492  0.00  0.00    +0.000 A 
ATOM     12  C   UNL     1       7.389   5.167  13.630  0.00  0.00    +0.000 A 
ENDBRANCH   3   6
ENDBRANCH   2   3
BRANCH   2  13
ATOM     13  C   UNL     1       7.161   4.541  17.513  0.00  0.00    +0.000 C 
BRANCH  13  14
ATOM     14  C   UNL     1       6.434   4.673  18.844  0.00  0.00    +0.000 C 
ATOM     15  O   UNL     1       6.884   5.348  19.765  0.00  0.00    +0.000 OA
ATOM     16  N   UNL     1       5.227   4.008  18.920  0.00  0.00    +0.000 N 
ATOM     17  H   UNL     1       4.875   3.601  18.059  0.00  0.00    +0.000 HD
BRANCH  16  18
ATOM     18  C   UNL     1       4.371   4.051  20.105  0.00  0.00    +0.000 C 
ATOM     19  C   UNL     1       3.315   5.154  19.966  0.00  0.00    +0.000 C 
ATOM     20  C   UNL     1       2.093   4.761  19.139  0.00  0.00    +0.000 C 
ATOM     21  C   UNL     1       0.990   4.118  19.977  0.00  0.00    +0.000 C 
ATOM     22  C   UNL     1       1.297   2.725  20.518  0.00  0.00    +0.000 C 
ATOM     23  C   UNL     1       2.602   2.592  21.300  0.00  0.00    +0.000 C 
ATOM     24  C   UNL     1       3.834   2.643  20.400  0.00  0.00    +0.000 C 
ENDBRANCH  16  18
ENDBRANCH  13  14
ENDBRANCH   2  13
TORSDOF 5
ENDMDL
MODEL 4
REMARK VINA RESULT:      -7.2      1.042      1.562
REMARK  Name = 
REMARK  6 active torsions:
REMARK  status: ('A' for Active; 'I' for Inactive)
REMARK    1  A    between atoms: C_1  and  N_2
REMARK    2  A    between atoms: N_2  and  C_3
REMARK    3  A    between atoms: N_2  and  S_14
REMARK    4  A    between atoms: C_3  and  C_4
REMARK    5  A    between atoms: N_6  and  C_7
REMARK    6  A    between atoms: S_14  and  C_17
REMARK                            x       y       z     vdW  Elec       q    Type
REMARK                         _______ _______ _______ _____ _____    ______ ____
ROOT
ATOM      1  C   UNL     1       6.606   5.522  19.123  0.00  0.00    +0.000 C 
ATOM      2  N   UNL     1       6.180   5.567  17.695  0.00  0.00    +0.000 NA
ENDROOT
BRANCH   2   3
ATOM      3  S   UNL     1       7.496   5.364  16.598  0.00  0.00    +0.000 S 
ATOM      4  O   UNL     1       7.994   6.675  16.244  0.00  0.00    +0.000 OA
ATOM      5  O   UNL     1       8.367   4.346  17.144  0.00  0.00    +0.000 OA
BRANCH   3   6
ATOM      6  C   UNL     1       6.683   4.710  15.160  0.00  0.00    +0.000 A 
ATOM      7  C   UNL     1       7.347   4.783  13.929  0.00  0.00    +0.000 A 
ATOM      8  C   UNL     1       6.718   4.299  12.783  0.00  0.00    +0.000 A 
ATOM      9  C   UNL     1       5.446   3.743  12.883  0.00  0.00    +0.000 A 
ATOM     10  F   UNL     1       4.840   3.289  11.778  0.00  0.00    +0.000 F 
ATOM     11  C   UNL     1       4.790   3.653  14.109  0.00  0.00    +0.000 A 
ATOM     12  C   UNL     1       5.412   4.135  15.262  0.00  0.00    +0.000 A 
ENDBRANCH   3   6
ENDBRANCH   2   3
BRANCH   2  13
ATOM     13  C   UNL     1       5.412   6.820  17.382  0.00  0.00    +0.000 C 
BRANCH  13  14
ATOM     14  C   UNL     1       3.934   6.754  17.738  0.00  0.00    +0.000 C 
ATOM     15  O   UNL     1       3.179   7.703  17.549  0.00  0.00    +0.000 OA
ATOM     16  N   UNL     1       3.509   5.547  18.255  0.00  0.00    +0.000 N 
ATOM     17  H   UNL     1       4.176   4.783  18.236  0.00  0.00    +0.000 HD
BRANCH  16  18
ATOM     18  C   UNL     1       2.116   5.287  18.620  0.00  0.00    +0.000 C 
ATOM     19  C   UNL     1       1.490   4.269  17.659  0.00  0.00    +0.000 C 
ATOM     20  C   UNL     1       1.813   2.811  17.982  0.00  0.00    +0.000 C 
ATOM     21  C   UNL     1       0.811   2.181  18.948  0.00  0.00    +0.000 C 
ATOM     22  C   UNL     1       0.861   2.699  20.383  0.00  0.00    +0.000 C 
ATOM     23  C   UNL     1       0.761   4.215  20.543  0.00  0.00    +0.000 C 
ATOM     24  C   UNL     1       2.036   4.937  20.112  0.00  0.00    +0.000 C 
ENDBRANCH  16  18
ENDBRANCH  13  14
ENDBRANCH   2  13
TORSDOF 5
ENDMDL
MODEL 5
REMARK VINA RESULT:      -7.1      1.161      1.772
REMARK  Name = 
REMARK  6 active torsions:
REMARK  status: ('A' for Active; 'I' for Inactive)
REMARK    1  A    between atoms: C_1  and  N_2
REMARK    2  A    between atoms: N_2  and  C_3
REMARK    3  A    between atoms: N_2  and  S_14
REMARK    4  A    between atoms: C_3  and  C_4
REMARK    5  A    between atoms: N_6  and  C_7
REMARK    6  A    between atoms: S_14  and  C_17
REMARK                            x       y       z     vdW  Elec       q    Type
REMARK                         _______ _______ _______ _____ _____    ______ ____
ROOT
ATOM      1  C   UNL     1       4.970   6.870  15.376  0.00  0.00    +0.000 C 
ATOM      2  N   UNL     1       6.039   6.545  16.363  0.00  0.00    +0.000 NA
ENDROOT
BRANCH   2   3
ATOM      3  S   UNL     1       6.489   4.880  16.338  0.00  0.00    +0.000 S 
ATOM      4  O   UNL     1       7.777   4.751  16.983  0.00  0.00    +0.000 OA
ATOM      5  O   UNL     1       5.345   4.110  16.774  0.00  0.00    +0.000 OA
BRANCH   3   6
ATOM      6  C   UNL     1       6.746   4.590  14.604  0.00  0.00    +0.000 A 
ATOM      7  C   UNL     1       7.723   5.342  13.940  0.00  0.00    +0.000 A 
ATOM      8  C   UNL     1       7.924   5.148  12.575  0.00  0.00    +0.000 A 
ATOM      9  C   UNL     1       7.157   4.205  11.896  0.00  0.00    +0.000 A 
ATOM     10  F   UNL     1       7.346   4.030  10.581  0.00  0.00    +0.000 F 
ATOM     11  C   UNL     1       6.197   3.443  12.557  0.00  0.00    +0.000 A 
ATOM     12  C   UNL     1       5.989   3.630  13.924  0.00  0.00    +0.000 A 
ENDBRANCH   3   6
ENDBRANCH   2   3
BRANCH   2  13
ATOM     13  C   UNL     1       5.664   6.976  17.753  0.00  0.00    +0.000 C 
BRANCH  13  14
ATOM     14  C   UNL     1       4.177   6.877  18.060  0.00  0.00    +0.000 C 
ATOM     15  O   UNL     1       3.402   7.797  17.818  0.00  0.00    +0.000 OA
ATOM     16  N   UNL     1       3.769   5.673  18.599  0.00  0.00    +0.000 N 
ATOM     17  H   UNL     1       4.458   4.929  18.625  0.00  0.00    +0.000 HD
BRANCH  16  18
ATOM     18  C   UNL     1       2.372   5.382  18.923  0.00  0.00    +0.000 C 
ATOM     19  C   UNL     1       1.725   4.547  17.813  0.00  0.00    +0.000 C 
ATOM     20  C   UNL     1       2.020   3.051  17.891  0.00  0.00    +0.000 C 
ATOM     21  C   UNL     1       1.009   2.290  18.747  0.00  0.00    +0.000 C 
ATOM     22  C   UNL     1       1.073   2.565  20.247  0.00  0.00    +0.000 C 
ATOM     23  C   UNL     1       1.002   4.036  20.654  0.00  0.00    +0.000 C 
ATOM     24  C   UNL     1       2.289   4.795  20.339  0.00  0.00    +0.000 C 
ENDBRANCH  16  18
ENDBRANCH  13  14
ENDBRANCH   2  13
TORSDOF 5
ENDMDL
MODEL 6
REMARK VINA RESULT:      -7.1      1.146      1.457
REMARK  Name = 
REMARK  6 active torsions:
REMARK  status: ('A' for Active; 'I' for Inactive)
REMARK    1  A    between atoms: C_1  and  N_2
REMARK    2  A    between atoms: N_2  and  C_3
REMARK    3  A    between atoms: N_2  and  S_14
REMARK    4  A    between atoms: C_3  and  C_4
REMARK    5  A    between atoms: N_6  and  C_7
REMARK    6  A    between atoms: S_14  and  C_17
REMARK                            x       y       z     vdW  Elec       q    Type
REMARK                         _______ _______ _______ _____ _____    ______ ____
ROOT
ATOM      1  C   UNL     1       4.874   6.875  15.356  0.00  0.00    +0.000 C 
ATOM      2  N   UNL     1       5.965   6.614  16.338  0.00  0.00    +0.000 NA
ENDROOT
BRANCH   2   3
ATOM      3  S   UNL     1       6.478   4.967  16.348  0.00  0.00    +0.000 S 
ATOM      4  O   UNL     1       7.774   4.902  16.986  0.00  0.00    +0.000 OA
ATOM      5  O   UNL     1       5.365   4.166  16.810  0.00  0.00    +0.000 OA
BRANCH   3   6
ATOM      6  C   UNL     1       6.733   4.647  14.619  0.00  0.00    +0.000 A 
ATOM      7  C   UNL     1       5.934   3.681  13.995  0.00  0.00    +0.000 A 
ATOM      8  C   UNL     1       6.134   3.396  12.646  0.00  0.00    +0.000 A 
ATOM      9  C   UNL     1       7.118   4.081  11.939  0.00  0.00    +0.000 A 
ATOM     10  F   UNL     1       7.315   3.797  10.645  0.00  0.00    +0.000 F 
ATOM     11  C   UNL     1       7.903   5.055  12.553  0.00  0.00    +0.000 A 
ATOM     12  C   UNL     1       7.710   5.348  13.903  0.00  0.00    +0.000 A 
ENDBRANCH   3   6
ENDBRANCH   2   3
BRANCH   2  13
ATOM     13  C   UNL     1       5.589   7.064  17.721  0.00  0.00    +0.000 C 
BRANCH  13  14
ATOM     14  C   UNL     1       4.105   6.943  18.039  0.00  0.00    +0.000 C 
ATOM     15  O   UNL     1       3.321   7.866  17.837  0.00  0.00    +0.000 OA
ATOM     16  N   UNL     1       3.710   5.718  18.536  0.00  0.00    +0.000 N 
ATOM     17  H   UNL     1       4.405   4.978  18.528  0.00  0.00    +0.000 HD
BRANCH  16  18
ATOM     18  C   UNL     1       2.319   5.405  18.862  0.00  0.00    +0.000 C 
ATOM     19  C   UNL     1       1.700   4.515  17.778  0.00  0.00    +0.000 C 
ATOM     20  C   UNL     1       2.031   3.030  17.912  0.00  0.00    +0.000 C 
ATOM     21  C   UNL     1       1.033   2.275  18.789  0.00  0.00    +0.000 C 
ATOM     22  C   UNL     1       1.079   2.605  20.278  0.00  0.00    +0.000 C 
ATOM     23  C   UNL     1       0.969   4.087  20.631  0.00  0.00    +0.000 C 
ATOM     24  C   UNL     1       2.240   4.866  20.298  0.00  0.00    +0.000 C 
ENDBRANCH  16  18
ENDBRANCH  13  14
ENDBRANCH   2  13
TORSDOF 5
ENDMDL
MODEL 7
REMARK VINA RESULT:      -6.9      1.671      2.209
REMARK  Name = 
REMARK  6 active torsions:
REMARK  status: ('A' for Active; 'I' for Inactive)
REMARK    1  A    between atoms: C_1  and  N_2
REMARK    2  A    between atoms: N_2  and  C_3
REMARK    3  A    between atoms: N_2  and  S_14
REMARK    4  A    between atoms: C_3  and  C_4
REMARK    5  A    between atoms: N_6  and  C_7
REMARK    6  A    between atoms: S_14  and  C_17
REMARK                            x       y       z     vdW  Elec       q    Type
REMARK                         _______ _______ _______ _____ _____    ______ ____
ROOT
ATOM      1  C   UNL     1       5.048   6.667  16.195  0.00  0.00    +0.000 C 
ATOM      2  N   UNL     1       6.412   6.237  16.615  0.00  0.00    +0.000 NA
ENDROOT
BRANCH   2   3
ATOM      3  S   UNL     1       6.721   4.573  16.286  0.00  0.00    +0.000 S 
ATOM      4  O   UNL     1       8.007   4.232  16.853  0.00  0.00    +0.000 OA
ATOM      5  O   UNL     1       5.525   3.831  16.624  0.00  0.00    +0.000 OA
BRANCH   3   6
ATOM      6  C   UNL     1       6.914   4.572  14.520  0.00  0.00    +0.000 A 
ATOM      7  C   UNL     1       6.144   3.678  13.766  0.00  0.00    +0.000 A 
ATOM      8  C   UNL     1       6.297   3.643  12.381  0.00  0.00    +0.000 A 
ATOM      9  C   UNL     1       7.206   4.503  11.770  0.00  0.00    +0.000 A 
ATOM     10  F   UNL     1       7.358   4.459  10.440  0.00  0.00    +0.000 F 
ATOM     11  C   UNL     1       7.960   5.406  12.516  0.00  0.00    +0.000 A 
ATOM     12  C   UNL     1       7.813   5.448  13.903  0.00  0.00    +0.000 A 
ENDBRANCH   3   6
ENDBRANCH   2   3
BRANCH   2  13
ATOM     13  C   UNL     1       6.677   6.554  18.060  0.00  0.00    +0.000 C 
BRANCH  13  14
ATOM     14  C   UNL     1       5.951   5.647  19.044  0.00  0.00    +0.000 C 
ATOM     15  O   UNL     1       6.549   5.040  19.928  0.00  0.00    +0.000 OA
ATOM     16  N   UNL     1       4.582   5.587  18.885  0.00  0.00    +0.000 N 
ATOM     17  H   UNL     1       4.171   6.236  18.221  0.00  0.00    +0.000 HD
BRANCH  16  18
ATOM     18  C   UNL     1       3.715   4.798  19.761  0.00  0.00    +0.000 C 
ATOM     19  C   UNL     1       2.242   5.145  19.514  0.00  0.00    +0.000 C 
ATOM     20  C   UNL     1       1.617   4.438  18.313  0.00  0.00    +0.000 C 
ATOM     21  C   UNL     1       1.008   3.084  18.672  0.00  0.00    +0.000 C 
ATOM     22  C   UNL     1       2.004   1.984  19.030  0.00  0.00    +0.000 C 
ATOM     23  C   UNL     1       3.013   2.336  20.122  0.00  0.00    +0.000 C 
ATOM     24  C   UNL     1       4.084   3.313  19.639  0.00  0.00    +0.000 C 
ENDBRANCH  16  18
ENDBRANCH  13  14
ENDBRANCH   2  13
TORSDOF 5
ENDMDL
MODEL 8
REMARK VINA RESULT:      -6.9      1.490      1.983
REMARK  Name = 
REMARK  6 active torsions:
REMARK  status: ('A' for Active; 'I' for Inactive)
REMARK    1  A    between atoms: C_1  and  N_2
REMARK    2  A    between atoms: N_2  and  C_3
REMARK    3  A    between atoms: N_2  and  S_14
REMARK    4  A    between atoms: C_3  and  C_4
REMARK    5  A    between atoms: N_6  and  C_7
REMARK    6  A    between atoms: S_14  and  C_17
REMARK                            x       y       z     vdW  Elec       q    Type
REMARK                         _______ _______ _______ _____ _____    ______ ____
ROOT
ATOM      1  C   UNL     1       8.313   4.847  18.307  0.00  0.00    +0.000 C 
ATOM      2  N   UNL     1       6.878   5.138  18.026  0.00  0.00    +0.000 NA
ENDROOT
BRANCH   2   3
ATOM      3  S   UNL     1       6.665   6.321  16.790  0.00  0.00    +0.000 S 
ATOM      4  O   UNL     1       5.416   7.008  17.034  0.00  0.00    +0.000 OA
ATOM      5  O   UNL     1       7.911   7.043  16.655  0.00  0.00    +0.000 OA
BRANCH   3   6
ATOM      6  C   UNL     1       6.429   5.313  15.346  0.00  0.00    +0.000 A 
ATOM      7  C   UNL     1       5.223   4.615  15.210  0.00  0.00    +0.000 A 
ATOM      8  C   UNL     1       5.026   3.799  14.098  0.00  0.00    +0.000 A 
ATOM      9  C   UNL     1       6.028   3.698  13.136  0.00  0.00    +0.000 A 
ATOM     10  F   UNL     1       5.840   2.904  12.074  0.00  0.00    +0.000 F 
ATOM     11  C   UNL     1       7.222   4.405  13.260  0.00  0.00    +0.000 A 
ATOM     12  C   UNL     1       7.428   5.225  14.370  0.00  0.00    +0.000 A 
ENDBRANCH   3   6
ENDBRANCH   2   3
BRANCH   2  13
ATOM     13  C   UNL     1       6.134   5.526  19.272  0.00  0.00    +0.000 C 
BRANCH  13  14
ATOM     14  C   UNL     1       4.734   4.938  19.375  0.00  0.00    +0.000 C 
ATOM     15  O   UNL     1       4.544   3.772  19.708  0.00  0.00    +0.000 OA
ATOM     16  N   UNL     1       3.707   5.817  19.100  0.00  0.00    +0.000 N 
ATOM     17  H   UNL     1       3.962   6.792  18.978  0.00  0.00    +0.000 HD
BRANCH  16  18
ATOM     18  C   UNL     1       2.296   5.441  19.185  0.00  0.00    +0.000 C 
ATOM     19  C   UNL     1       1.846   4.745  17.895  0.00  0.00    +0.000 C 
ATOM     20  C   UNL     1       2.203   3.262  17.817  0.00  0.00    +0.000 C 
ATOM     21  C   UNL     1       1.126   2.359  18.416  0.00  0.00    +0.000 C 
ATOM     22  C   UNL     1       0.973   2.429  19.933  0.00  0.00    +0.000 C 
ATOM     23  C   UNL     1       0.774   3.827  20.514  0.00  0.00    +0.000 C 
ATOM     24  C   UNL     1       2.052   4.663  20.486  0.00  0.00    +0.000 C 
ENDBRANCH  16  18
ENDBRANCH  13  14
ENDBRANCH   2  13
TORSDOF 5
ENDMDL
MODEL 9
REMARK VINA RESULT:      -6.8      6.545      9.219
REMARK  Name = 
REMARK  6 active torsions:
REMARK  status: ('A' for Active; 'I' for Inactive)
REMARK    1  A    between atoms: C_1  and  N_2
REMARK    2  A    between atoms: N_2  and  C_3
REMARK    3  A    between atoms: N_2  and  S_14
REMARK    4  A    between atoms: C_3  and  C_4
REMARK    5  A    between atoms: N_6  and  C_7
REMARK    6  A    between atoms: S_14  and  C_17
REMARK                            x       y       z     vdW  Elec       q    Type
REMARK                         _______ _______ _______ _____ _____    ______ ____
ROOT
ATOM      1  C   UNL     1      -1.291  10.107  17.853  0.00  0.00    +0.000 C 
ATOM      2  N   UNL     1      -0.114  10.231  18.759  0.00  0.00    +0.000 NA
ENDROOT
BRANCH   2   3
ATOM      3  S   UNL     1       0.136  11.844  19.315  0.00  0.00    +0.000 S 
ATOM      4  O   UNL     1       1.503  11.957  19.775  0.00  0.00    +0.000 OA
ATOM      5  O   UNL     1      -0.402  12.740  18.315  0.00  0.00    +0.000 OA
BRANCH   3   6
ATOM      6  C   UNL     1      -0.903  11.906  20.755  0.00  0.00    +0.000 A 
ATOM      7  C   UNL     1      -0.506  11.197  21.895  0.00  0.00    +0.000 A 
ATOM      8  C   UNL     1      -1.317  11.212  23.028  0.00  0.00    +0.000 A 
ATOM      9  C   UNL     1      -2.505  11.938  23.010  0.00  0.00    +0.000 A 
ATOM     10  F   UNL     1      -3.289  11.940  24.097  0.00  0.00    +0.000 F 
ATOM     11  C   UNL     1      -2.895  12.659  21.883  0.00  0.00    +0.000 A 
ATOM     12  C   UNL     1      -2.088  12.651  20.745  0.00  0.00    +0.000 A 
ENDBRANCH   3   6
ENDBRANCH   2   3
BRANCH   2  13
ATOM     13  C   UNL     1       1.136   9.684  18.128  0.00  0.00    +0.000 C 
BRANCH  13  14
ATOM     14  C   UNL     1       1.775   8.536  18.895  0.00  0.00    +0.000 C 
ATOM     15  O   UNL     1       1.687   8.442  20.115  0.00  0.00    +0.000 OA
ATOM     16  N   UNL     1       2.427   7.602  18.115  0.00  0.00    +0.000 N 
ATOM     17  H   UNL     1       2.319   7.692  17.110  0.00  0.00    +0.000 HD
BRANCH  16  18
ATOM     18  C   UNL     1       3.068   6.411  18.673  0.00  0.00    +0.000 C 
ATOM     19  C   UNL     1       2.035   5.302  18.901  0.00  0.00    +0.000 C 
ATOM     20  C   UNL     1       1.690   4.491  17.654  0.00  0.00    +0.000 C 
ATOM     21  C   UNL     1       2.610   3.288  17.454  0.00  0.00    +0.000 C 
ATOM     22  C   UNL     1       4.049   3.613  17.064  0.00  0.00    +0.000 C 
ATOM     23  C   UNL     1       4.776   4.597  17.979  0.00  0.00    +0.000 C 
ATOM     24  C   UNL     1       4.280   6.032  17.810  0.00  0.00    +0.000 C 
ENDBRANCH  16  18
ENDBRANCH  13  14
ENDBRANCH   2  13
TORSDOF 5
ENDMDL
