MODEL 1
REMARK VINA RESULT:      -7.8      0.000      0.000
REMARK  Name = 
REMARK  7 active torsions:
REMARK  status: ('A' for Active; 'I' for Inactive)
REMARK    1  A    between atoms: C_1  and  O_2
REMARK    2  A    between atoms: O_2  and  C_3
REMARK    3  A    between atoms: C_8  and  C_9
REMARK    4  A    between atoms: N_12  and  C_13
REMARK    5  A    between atoms: C_21  and  C_22
REMARK    6  A    between atoms: C_27  and  O_28
REMARK    7  A    between atoms: O_28  and  C_29
REMARK                            x       y       z     vdW  Elec       q    Type
REMARK                         _______ _______ _______ _____ _____    ______ ____
ROOT
ATOM      1  C   UNL     1       0.606   7.562  21.300  0.00  0.00    +0.000 C 
ATOM      2  C   UNL     1       1.547   7.288  20.358  0.00  0.00    +0.000 C 
ATOM      3  C   UNL     1       2.294   8.324  19.522  0.00  0.00    +0.000 C 
ATOM      4  N   UNL     1       2.073   8.027  18.097  0.00  0.00    +0.000 NA
ATOM      5  C   UNL     1       2.533   9.107  17.231  0.00  0.00    +0.000 C 
ATOM      6  C   UNL     1       2.780   6.783  17.761  0.00  0.00    +0.000 C 
ATOM      7  C   UNL     1       2.672   5.730  18.835  0.00  0.00    +0.000 C 
ATOM      8  C   UNL     1       2.034   5.932  20.013  0.00  0.00    +0.000 C 
ATOM      9  N   UNL     1       1.986   4.874  20.892  0.00  0.00    +0.000 N 
ATOM     10  C   UNL     1       2.479   3.652  20.572  0.00  0.00    +0.000 C 
ATOM     11  N   UNL     1       2.244   2.704  21.514  0.00  0.00    +0.000 N 
ATOM     12  N   UNL     1       3.148   3.347  19.514  0.00  0.00    +0.000 NA
ATOM     13  C   UNL     1       3.407   4.425  18.546  0.00  0.00    +0.000 C 
ATOM     14  H   UNL     1       1.307   4.934  21.637  0.00  0.00    +0.000 HD
ATOM     15  H   UNL     1       2.445   3.014  22.457  0.00  0.00    +0.000 HD
ATOM     16  H   UNL     1       2.781   1.869  21.295  0.00  0.00    +0.000 HD
ENDROOT
BRANCH   1  22
ATOM     17  C   UNL     1      -0.431   9.835  20.736  0.00  0.00    +0.000 A 
ATOM     18  C   UNL     1      -0.874  11.106  21.159  0.00  0.00    +0.000 A 
ATOM     19  C   UNL     1      -1.000  11.409  22.510  0.00  0.00    +0.000 A 
ATOM     20  C   UNL     1      -0.605  10.473  23.452  0.00  0.00    +0.000 A 
ATOM     21  C   UNL     1      -0.053   9.255  23.041  0.00  0.00    +0.000 A 
ATOM     22  C   UNL     1       0.007   8.880  21.686  0.00  0.00    +0.000 A 
BRANCH  17  24
ATOM     23  C   UNL     1      -1.209  10.347  18.565  0.00  0.00    +0.000 C 
ATOM     24  O   UNL     1      -0.401   9.504  19.398  0.00  0.00    +0.000 OA
ENDBRANCH  17  24
ENDBRANCH   1  22
BRANCH  13  25
ATOM     25  C   UNL     1       4.928   4.638  18.394  0.00  0.00    +0.000 A 
ATOM     26  C   UNL     1       5.614   5.210  19.500  0.00  0.00    +0.000 A 
ATOM     27  C   UNL     1       6.964   5.560  19.448  0.00  0.00    +0.000 A 
ATOM     28  C   UNL     1       7.692   5.281  18.304  0.00  0.00    +0.000 A 
ATOM     29  C   UNL     1       7.058   4.683  17.217  0.00  0.00    +0.000 A 
ATOM     30  C   UNL     1       5.685   4.365  17.240  0.00  0.00    +0.000 A 
BRANCH  30  31
ATOM     31  O   UNL     1       5.249   3.927  16.020  0.00  0.00    +0.000 OA
ATOM     32  C   UNL     1       6.165   3.930  14.935  0.00  0.00    +0.000 C 
ENDBRANCH  30  31
ENDBRANCH  13  25
TORSDOF 4
ENDMDL
MODEL 2
REMARK VINA RESULT:      -7.6      2.973      8.560
REMARK  Name = 
REMARK  7 active torsions:
REMARK  status: ('A' for Active; 'I' for Inactive)
REMARK    1  A    between atoms: C_1  and  O_2
REMARK    2  A    between atoms: O_2  and  C_3
REMARK    3  A    between atoms: C_8  and  C_9
REMARK    4  A    between atoms: N_12  and  C_13
REMARK    5  A    between atoms: C_21  and  C_22
REMARK    6  A    between atoms: C_27  and  O_28
REMARK    7  A    between atoms: O_28  and  C_29
REMARK                            x       y       z     vdW  Elec       q    Type
REMARK                         _______ _______ _______ _____ _____    ______ ____
ROOT
ATOM      1  C   UNL     1       1.409   8.207  18.037  0.00  0.00    +0.000 C 
ATOM      2  C   UNL     1       0.947   9.147  18.905  0.00  0.00    +0.000 C 
ATOM      3  C   UNL     1       1.613   9.547  20.219  0.00  0.00    +0.000 C 
ATOM      4  N   UNL     1       0.648   9.355  21.314  0.00  0.00    +0.000 NA
ATOM      5  C   UNL     1       1.274   9.466  22.626  0.00  0.00    +0.000 C 
ATOM      6  C   UNL     1      -0.417  10.360  21.183  0.00  0.00    +0.000 C 
ATOM      7  C   UNL     1      -0.846  10.588  19.755  0.00  0.00    +0.000 C 
ATOM      8  C   UNL     1      -0.268   9.969  18.697  0.00  0.00    +0.000 C 
ATOM      9  N   UNL     1      -0.777  10.249  17.450  0.00  0.00    +0.000 N 
ATOM     10  C   UNL     1      -1.864  11.042  17.280  0.00  0.00    +0.000 C 
ATOM     11  N   UNL     1      -2.292  11.114  15.994  0.00  0.00    +0.000 N 
ATOM     12  N   UNL     1      -2.467  11.723  18.191  0.00  0.00    +0.000 NA
ATOM     13  C   UNL     1      -1.934  11.638  19.560  0.00  0.00    +0.000 C 
ATOM     14  H   UNL     1      -0.531   9.611  16.706  0.00  0.00    +0.000 HD
ATOM     15  H   UNL     1      -1.543  11.263  15.328  0.00  0.00    +0.000 HD
ATOM     16  H   UNL     1      -2.990  11.849  15.910  0.00  0.00    +0.000 HD
ENDROOT
BRANCH   1  22
ATOM     17  C   UNL     1       2.667   6.284  19.170  0.00  0.00    +0.000 A 
ATOM     18  C   UNL     1       3.850   5.531  19.325  0.00  0.00    +0.000 A 
ATOM     19  C   UNL     1       4.912   5.674  18.439  0.00  0.00    +0.000 A 
ATOM     20  C   UNL     1       4.834   6.631  17.439  0.00  0.00    +0.000 A 
ATOM     21  C   UNL     1       3.714   7.464  17.353  0.00  0.00    +0.000 A 
ATOM     22  C   UNL     1       2.585   7.288  18.174  0.00  0.00    +0.000 A 
BRANCH  17  24
ATOM     23  C   UNL     1       1.445   4.717  20.450  0.00  0.00    +0.000 C 
ATOM     24  O   UNL     1       1.578   6.070  19.990  0.00  0.00    +0.000 OA
ENDBRANCH  17  24
ENDBRANCH   1  22
BRANCH  13  25
ATOM     25  C   UNL     1      -1.483  13.035  20.035  0.00  0.00    +0.000 A 
ATOM     26  C   UNL     1      -2.247  13.645  21.068  0.00  0.00    +0.000 A 
ATOM     27  C   UNL     1      -2.015  14.949  21.504  0.00  0.00    +0.000 A 
ATOM     28  C   UNL     1      -0.958  15.665  20.968  0.00  0.00    +0.000 A 
ATOM     29  C   UNL     1      -0.165  15.080  19.983  0.00  0.00    +0.000 A 
ATOM     30  C   UNL     1      -0.416  13.780  19.501  0.00  0.00    +0.000 A 
BRANCH  30  31
ATOM     31  O   UNL     1       0.390  13.472  18.439  0.00  0.00    +0.000 OA
ATOM     32  C   UNL     1       1.734  13.096  18.698  0.00  0.00    +0.000 C 
ENDBRANCH  30  31
ENDBRANCH  13  25
TORSDOF 4
ENDMDL
MODEL 3
REMARK VINA RESULT:      -7.5      2.954      8.895
REMARK  Name = 
REMARK  7 active torsions:
REMARK  status: ('A' for Active; 'I' for Inactive)
REMARK    1  A    between atoms: C_1  and  O_2
REMARK    2  A    between atoms: O_2  and  C_3
REMARK    3  A    between atoms: C_8  and  C_9
REMARK    4  A    between atoms: N_12  and  C_13
REMARK    5  A    between atoms: C_21  and  C_22
REMARK    6  A    between atoms: C_27  and  O_28
REMARK    7  A    between atoms: O_28  and  C_29
REMARK                            x       y       z     vdW  Elec       q    Type
REMARK                         _______ _______ _______ _____ _____    ______ ____
ROOT
ATOM      1  C   UNL     1       1.462   8.342  17.992  0.00  0.00    +0.000 C 
ATOM      2  C   UNL     1       0.978   9.226  18.906  0.00  0.00    +0.000 C 
ATOM      3  C   UNL     1       1.624   9.556  20.250  0.00  0.00    +0.000 C 
ATOM      4  N   UNL     1       0.648   9.291  21.320  0.00  0.00    +0.000 NA
ATOM      5  C   UNL     1       1.257   9.333  22.644  0.00  0.00    +0.000 C 
ATOM      6  C   UNL     1      -0.426  10.291  21.233  0.00  0.00    +0.000 C 
ATOM      7  C   UNL     1      -0.840  10.597  19.815  0.00  0.00    +0.000 C 
ATOM      8  C   UNL     1      -0.243  10.046  18.731  0.00  0.00    +0.000 C 
ATOM      9  N   UNL     1      -0.740  10.392  17.496  0.00  0.00    +0.000 N 
ATOM     10  C   UNL     1      -1.833  11.182  17.358  0.00  0.00    +0.000 C 
ATOM     11  N   UNL     1      -2.246  11.324  16.073  0.00  0.00    +0.000 N 
ATOM     12  N   UNL     1      -2.456  11.803  18.299  0.00  0.00    +0.000 NA
ATOM     13  C   UNL     1      -1.938  11.645  19.668  0.00  0.00    +0.000 C 
ATOM     14  H   UNL     1      -0.478   9.801  16.720  0.00  0.00    +0.000 HD
ATOM     15  H   UNL     1      -1.492  11.518  15.426  0.00  0.00    +0.000 HD
ATOM     16  H   UNL     1      -2.952  12.055  16.022  0.00  0.00    +0.000 HD
ENDROOT
BRANCH   1  22
ATOM     17  C   UNL     1       2.752   6.406  19.065  0.00  0.00    +0.000 A 
ATOM     18  C   UNL     1       3.943   5.659  19.184  0.00  0.00    +0.000 A 
ATOM     19  C   UNL     1       4.988   5.828  18.284  0.00  0.00    +0.000 A 
ATOM     20  C   UNL     1       4.887   6.804  17.306  0.00  0.00    +0.000 A 
ATOM     21  C   UNL     1       3.760   7.630  17.255  0.00  0.00    +0.000 A 
ATOM     22  C   UNL     1       2.646   7.430  18.091  0.00  0.00    +0.000 A 
BRANCH  17  24
ATOM     23  C   UNL     1       1.784   4.957  20.661  0.00  0.00    +0.000 C 
ATOM     24  O   UNL     1       1.679   6.167  19.898  0.00  0.00    +0.000 OA
ENDBRANCH  17  24
ENDBRANCH   1  22
BRANCH  13  25
ATOM     25  C   UNL     1      -1.509  13.016  20.228  0.00  0.00    +0.000 A 
ATOM     26  C   UNL     1      -0.394  13.647  19.611  0.00  0.00    +0.000 A 
ATOM     27  C   UNL     1       0.164  14.830  20.096  0.00  0.00    +0.000 A 
ATOM     28  C   UNL     1      -0.424  15.462  21.177  0.00  0.00    +0.000 A 
ATOM     29  C   UNL     1      -1.544  14.891  21.779  0.00  0.00    +0.000 A 
ATOM     30  C   UNL     1      -2.090  13.673  21.328  0.00  0.00    +0.000 A 
BRANCH  30  31
ATOM     31  O   UNL     1      -3.086  13.231  22.155  0.00  0.00    +0.000 OA
ATOM     32  C   UNL     1      -2.734  12.399  23.250  0.00  0.00    +0.000 C 
ENDBRANCH  30  31
ENDBRANCH  13  25
TORSDOF 4
ENDMDL
MODEL 4
REMARK VINA RESULT:      -7.2      2.399      7.551
REMARK  Name = 
REMARK  7 active torsions:
REMARK  status: ('A' for Active; 'I' for Inactive)
REMARK    1  A    between atoms: C_1  and  O_2
REMARK    2  A    between atoms: O_2  and  C_3
REMARK    3  A    between atoms: C_8  and  C_9
REMARK    4  A    between atoms: N_12  and  C_13
REMARK    5  A    between atoms: C_21  and  C_22
REMARK    6  A    between atoms: C_27  and  O_28
REMARK    7  A    between atoms: O_28  and  C_29
REMARK                            x       y       z     vdW  Elec       q    Type
REMARK                         _______ _______ _______ _____ _____    ______ ____
ROOT
ATOM      1  C   UNL     1       1.938   5.621  20.706  0.00  0.00    +0.000 C 
ATOM      2  C   UNL     1       1.754   6.789  20.036  0.00  0.00    +0.000 C 
ATOM      3  C   UNL     1       1.859   6.972  18.524  0.00  0.00    +0.000 C 
ATOM      4  N   UNL     1       2.865   8.009  18.243  0.00  0.00    +0.000 NA
ATOM      5  C   UNL     1       3.215   8.069  16.829  0.00  0.00    +0.000 C 
ATOM      6  C   UNL     1       2.335   9.309  18.680  0.00  0.00    +0.000 C 
ATOM      7  C   UNL     1       1.589   9.236  19.989  0.00  0.00    +0.000 C 
ATOM      8  C   UNL     1       1.382   8.078  20.664  0.00  0.00    +0.000 C 
ATOM      9  N   UNL     1       0.710   8.160  21.861  0.00  0.00    +0.000 N 
ATOM     10  C   UNL     1       0.338   9.350  22.396  0.00  0.00    +0.000 C 
ATOM     11  N   UNL     1      -0.212   9.246  23.632  0.00  0.00    +0.000 N 
ATOM     12  N   UNL     1       0.431  10.506  21.836  0.00  0.00    +0.000 NA
ATOM     13  C   UNL     1       0.998  10.554  20.478  0.00  0.00    +0.000 C 
ATOM     14  H   UNL     1       0.780   7.363  22.476  0.00  0.00    +0.000 HD
ATOM     15  H   UNL     1      -0.902   8.508  23.705  0.00  0.00    +0.000 HD
ATOM     16  H   UNL     1      -0.620  10.138  23.898  0.00  0.00    +0.000 HD
ENDROOT
BRANCH   1  22
ATOM     17  C   UNL     1       3.658   4.040  19.653  0.00  0.00    +0.000 A 
ATOM     18  C   UNL     1       3.962   2.795  19.063  0.00  0.00    +0.000 A 
ATOM     19  C   UNL     1       3.048   1.748  19.087  0.00  0.00    +0.000 A 
ATOM     20  C   UNL     1       1.789   1.962  19.627  0.00  0.00    +0.000 A 
ATOM     21  C   UNL     1       1.438   3.228  20.107  0.00  0.00    +0.000 A 
ATOM     22  C   UNL     1       2.366   4.284  20.180  0.00  0.00    +0.000 A 
BRANCH  17  24
ATOM     23  C   UNL     1       5.364   5.211  18.512  0.00  0.00    +0.000 C 
ATOM     24  O   UNL     1       4.602   5.044  19.716  0.00  0.00    +0.000 OA
ENDBRANCH  17  24
ENDBRANCH   1  22
BRANCH  13  25
ATOM     25  C   UNL     1      -0.045  11.122  19.494  0.00  0.00    +0.000 A 
ATOM     26  C   UNL     1      -1.124  10.270  19.132  0.00  0.00    +0.000 A 
ATOM     27  C   UNL     1      -2.066  10.621  18.165  0.00  0.00    +0.000 A 
ATOM     28  C   UNL     1      -2.001  11.873  17.578  0.00  0.00    +0.000 A 
ATOM     29  C   UNL     1      -0.979  12.747  17.942  0.00  0.00    +0.000 A 
ATOM     30  C   UNL     1       0.006  12.389  18.884  0.00  0.00    +0.000 A 
BRANCH  30  31
ATOM     31  O   UNL     1       0.987  13.338  18.972  0.00  0.00    +0.000 OA
ATOM     32  C   UNL     1       2.163  13.170  18.195  0.00  0.00    +0.000 C 
ENDBRANCH  30  31
ENDBRANCH  13  25
TORSDOF 4
ENDMDL
MODEL 5
REMARK VINA RESULT:      -7.0      4.319      7.250
REMARK  Name = 
REMARK  7 active torsions:
REMARK  status: ('A' for Active; 'I' for Inactive)
REMARK    1  A    between atoms: C_1  and  O_2
REMARK    2  A    between atoms: O_2  and  C_3
REMARK    3  A    between atoms: C_8  and  C_9
REMARK    4  A    between atoms: N_12  and  C_13
REMARK    5  A    between atoms: C_21  and  C_22
REMARK    6  A    between atoms: C_27  and  O_28
REMARK    7  A    between atoms: O_28  and  C_29
REMARK                            x       y       z     vdW  Elec       q    Type
REMARK                         _______ _______ _______ _____ _____    ______ ____
ROOT
ATOM      1  C   UNL     1      -3.370  13.372  20.725  0.00  0.00    +0.000 C 
ATOM      2  C   UNL     1      -2.148  12.815  20.506  0.00  0.00    +0.000 C 
ATOM      3  C   UNL     1      -0.919  12.996  21.392  0.00  0.00    +0.000 C 
ATOM      4  N   UNL     1       0.177  13.539  20.573  0.00  0.00    +0.000 NA
ATOM      5  C   UNL     1       1.304  13.982  21.385  0.00  0.00    +0.000 C 
ATOM      6  C   UNL     1       0.619  12.501  19.631  0.00  0.00    +0.000 C 
ATOM      7  C   UNL     1      -0.522  11.712  19.039  0.00  0.00    +0.000 C 
ATOM      8  C   UNL     1      -1.819  11.906  19.384  0.00  0.00    +0.000 C 
ATOM      9  N   UNL     1      -2.762  11.135  18.744  0.00  0.00    +0.000 N 
ATOM     10  C   UNL     1      -2.431  10.275  17.750  0.00  0.00    +0.000 C 
ATOM     11  N   UNL     1      -3.501   9.685  17.159  0.00  0.00    +0.000 N 
ATOM     12  N   UNL     1      -1.241   9.965  17.366  0.00  0.00    +0.000 NA
ATOM     13  C   UNL     1      -0.118  10.606  18.071  0.00  0.00    +0.000 C 
ATOM     14  H   UNL     1      -3.720  11.448  18.804  0.00  0.00    +0.000 HD
ATOM     15  H   UNL     1      -4.184   9.335  17.820  0.00  0.00    +0.000 HD
ATOM     16  H   UNL     1      -3.181   8.935  16.551  0.00  0.00    +0.000 HD
ENDROOT
BRANCH   1  22
ATOM     17  C   UNL     1      -4.233  13.933  23.070  0.00  0.00    +0.000 A 
ATOM     18  C   UNL     1      -4.733  14.883  23.985  0.00  0.00    +0.000 A 
ATOM     19  C   UNL     1      -4.698  16.243  23.697  0.00  0.00    +0.000 A 
ATOM     20  C   UNL     1      -4.241  16.660  22.457  0.00  0.00    +0.000 A 
ATOM     21  C   UNL     1      -3.856  15.716  21.499  0.00  0.00    +0.000 A 
ATOM     22  C   UNL     1      -3.793  14.340  21.787  0.00  0.00    +0.000 A 
BRANCH  17  24
ATOM     23  C   UNL     1      -4.597  12.299  24.738  0.00  0.00    +0.000 C 
ATOM     24  O   UNL     1      -4.177  12.594  23.399  0.00  0.00    +0.000 OA
ENDBRANCH  17  24
ENDBRANCH   1  22
BRANCH  13  25
ATOM     25  C   UNL     1       0.756   9.531  18.750  0.00  0.00    +0.000 A 
ATOM     26  C   UNL     1       1.741   8.895  17.946  0.00  0.00    +0.000 A 
ATOM     27  C   UNL     1       2.514   7.830  18.407  0.00  0.00    +0.000 A 
ATOM     28  C   UNL     1       2.376   7.411  19.720  0.00  0.00    +0.000 A 
ATOM     29  C   UNL     1       1.448   8.041  20.546  0.00  0.00    +0.000 A 
ATOM     30  C   UNL     1       0.629   9.089  20.080  0.00  0.00    +0.000 A 
BRANCH  30  31
ATOM     31  O   UNL     1      -0.303   9.452  21.013  0.00  0.00    +0.000 OA
ATOM     32  C   UNL     1       0.031   9.324  22.387  0.00  0.00    +0.000 C 
ENDBRANCH  30  31
ENDBRANCH  13  25
TORSDOF 4
ENDMDL
MODEL 6
REMARK VINA RESULT:      -6.9      4.593      7.951
REMARK  Name = 
REMARK  7 active torsions:
REMARK  status: ('A' for Active; 'I' for Inactive)
REMARK    1  A    between atoms: C_1  and  O_2
REMARK    2  A    between atoms: O_2  and  C_3
REMARK    3  A    between atoms: C_8  and  C_9
REMARK    4  A    between atoms: N_12  and  C_13
REMARK    5  A    between atoms: C_21  and  C_22
REMARK    6  A    between atoms: C_27  and  O_28
REMARK    7  A    between atoms: O_28  and  C_29
REMARK                            x       y       z     vdW  Elec       q    Type
REMARK                         _______ _______ _______ _____ _____    ______ ____
ROOT
ATOM      1  C   UNL     1      -4.886  13.406  20.619  0.00  0.00    +0.000 C 
ATOM      2  C   UNL     1      -3.629  12.913  20.785  0.00  0.00    +0.000 C 
ATOM      3  C   UNL     1      -2.841  12.912  22.092  0.00  0.00    +0.000 C 
ATOM      4  N   UNL     1      -1.568  13.619  21.876  0.00  0.00    +0.000 NA
ATOM      5  C   UNL     1      -0.869  13.888  23.127  0.00  0.00    +0.000 C 
ATOM      6  C   UNL     1      -0.720  12.801  20.997  0.00  0.00    +0.000 C 
ATOM      7  C   UNL     1      -1.486  12.148  19.873  0.00  0.00    +0.000 C 
ATOM      8  C   UNL     1      -2.828  12.259  19.724  0.00  0.00    +0.000 C 
ATOM      9  N   UNL     1      -3.394  11.634  18.637  0.00  0.00    +0.000 N 
ATOM     10  C   UNL     1      -2.643  11.001  17.702  0.00  0.00    +0.000 C 
ATOM     11  N   UNL     1      -3.360  10.542  16.645  0.00  0.00    +0.000 N 
ATOM     12  N   UNL     1      -1.375  10.784  17.753  0.00  0.00    +0.000 NA
ATOM     13  C   UNL     1      -0.656  11.269  18.943  0.00  0.00    +0.000 C 
ATOM     14  H   UNL     1      -4.328  11.923  18.383  0.00  0.00    +0.000 HD
ATOM     15  H   UNL     1      -4.209  10.059  16.913  0.00  0.00    +0.000 HD
ATOM     16  H   UNL     1      -2.774   9.937  16.075  0.00  0.00    +0.000 HD
ENDROOT
BRANCH   1  22
ATOM     17  C   UNL     1      -6.692  13.470  22.435  0.00  0.00    +0.000 A 
ATOM     18  C   UNL     1      -7.567  14.216  23.252  0.00  0.00    +0.000 A 
ATOM     19  C   UNL     1      -7.457  15.598  23.345  0.00  0.00    +0.000 A 
ATOM     20  C   UNL     1      -6.525  16.257  22.558  0.00  0.00    +0.000 A 
ATOM     21  C   UNL     1      -5.735  15.536  21.657  0.00  0.00    +0.000 A 
ATOM     22  C   UNL     1      -5.757  14.130  21.601  0.00  0.00    +0.000 A 
BRANCH  17  24
ATOM     23  C   UNL     1      -7.867  11.548  21.720  0.00  0.00    +0.000 C 
ATOM     24  O   UNL     1      -6.739  12.091  22.421  0.00  0.00    +0.000 OA
ENDBRANCH  17  24
ENDBRANCH   1  22
BRANCH  13  25
ATOM     25  C   UNL     1      -0.013  10.081  19.688  0.00  0.00    +0.000 A 
ATOM     26  C   UNL     1      -0.559   9.742  20.956  0.00  0.00    +0.000 A 
ATOM     27  C   UNL     1       0.004   8.766  21.780  0.00  0.00    +0.000 A 
ATOM     28  C   UNL     1       1.095   8.044  21.326  0.00  0.00    +0.000 A 
ATOM     29  C   UNL     1       1.628   8.325  20.070  0.00  0.00    +0.000 A 
ATOM     30  C   UNL     1       1.097   9.338  19.246  0.00  0.00    +0.000 A 
BRANCH  30  31
ATOM     31  O   UNL     1       1.866   9.536  18.133  0.00  0.00    +0.000 OA
ATOM     32  C   UNL     1       2.670   8.462  17.668  0.00  0.00    +0.000 C 
ENDBRANCH  30  31
ENDBRANCH  13  25
TORSDOF 4
ENDMDL
MODEL 7
REMARK VINA RESULT:      -6.8      4.125      6.950
REMARK  Name = 
REMARK  7 active torsions:
REMARK  status: ('A' for Active; 'I' for Inactive)
REMARK    1  A    between atoms: C_1  and  O_2
REMARK    2  A    between atoms: O_2  and  C_3
REMARK    3  A    between atoms: C_8  and  C_9
REMARK    4  A    between atoms: N_12  and  C_13
REMARK    5  A    between atoms: C_21  and  C_22
REMARK    6  A    between atoms: C_27  and  O_28
REMARK    7  A    between atoms: O_28  and  C_29
REMARK                            x       y       z     vdW  Elec       q    Type
REMARK                         _______ _______ _______ _____ _____    ______ ____
ROOT
ATOM      1  C   UNL     1      -1.915  13.900  20.980  0.00  0.00    +0.000 C 
ATOM      2  C   UNL     1      -0.856  13.132  20.609  0.00  0.00    +0.000 C 
ATOM      3  C   UNL     1       0.525  13.150  21.260  0.00  0.00    +0.000 C 
ATOM      4  N   UNL     1       1.529  13.451  20.226  0.00  0.00    +0.000 NA
ATOM      5  C   UNL     1       2.838  13.741  20.798  0.00  0.00    +0.000 C 
ATOM      6  C   UNL     1       1.626  12.301  19.316  0.00  0.00    +0.000 C 
ATOM      7  C   UNL     1       0.287  11.686  18.992  0.00  0.00    +0.000 C 
ATOM      8  C   UNL     1      -0.879  12.117  19.530  0.00  0.00    +0.000 C 
ATOM      9  N   UNL     1      -2.031  11.484  19.124  0.00  0.00    +0.000 N 
ATOM     10  C   UNL     1      -2.023  10.524  18.166  0.00  0.00    +0.000 C 
ATOM     11  N   UNL     1      -3.261  10.093  17.814  0.00  0.00    +0.000 N 
ATOM     12  N   UNL     1      -0.985   9.995  17.618  0.00  0.00    +0.000 NA
ATOM     13  C   UNL     1       0.333  10.474  18.068  0.00  0.00    +0.000 C 
ATOM     14  H   UNL     1      -2.901  11.958  19.316  0.00  0.00    +0.000 HD
ATOM     15  H   UNL     1      -3.862   9.902  18.606  0.00  0.00    +0.000 HD
ATOM     16  H   UNL     1      -3.177   9.266  17.228  0.00  0.00    +0.000 HD
ENDROOT
BRANCH   1  22
ATOM     17  C   UNL     1      -2.369  14.749  23.354  0.00  0.00    +0.000 A 
ATOM     18  C   UNL     1      -2.532  15.828  24.247  0.00  0.00    +0.000 A 
ATOM     19  C   UNL     1      -2.209  17.127  23.869  0.00  0.00    +0.000 A 
ATOM     20  C   UNL     1      -1.800  17.369  22.567  0.00  0.00    +0.000 A 
ATOM     21  C   UNL     1      -1.751  16.322  21.641  0.00  0.00    +0.000 A 
ATOM     22  C   UNL     1      -1.984  14.984  22.011  0.00  0.00    +0.000 A 
BRANCH  17  24
ATOM     23  C   UNL     1      -3.855  13.252  24.419  0.00  0.00    +0.000 C 
ATOM     24  O   UNL     1      -2.596  13.451  23.762  0.00  0.00    +0.000 OA
ENDBRANCH  17  24
ENDBRANCH   1  22
BRANCH  13  25
ATOM     25  C   UNL     1       1.133   9.306  18.682  0.00  0.00    +0.000 A 
ATOM     26  C   UNL     1       2.029   8.614  17.823  0.00  0.00    +0.000 A 
ATOM     27  C   UNL     1       2.722   7.471  18.223  0.00  0.00    +0.000 A 
ATOM     28  C   UNL     1       2.595   7.024  19.526  0.00  0.00    +0.000 A 
ATOM     29  C   UNL     1       1.756   7.705  20.406  0.00  0.00    +0.000 A 
ATOM     30  C   UNL     1       1.015   8.834  20.002  0.00  0.00    +0.000 A 
BRANCH  30  31
ATOM     31  O   UNL     1       0.152   9.246  20.980  0.00  0.00    +0.000 OA
ATOM     32  C   UNL     1       0.657   9.425  22.295  0.00  0.00    +0.000 C 
ENDBRANCH  30  31
ENDBRANCH  13  25
TORSDOF 4
ENDMDL
MODEL 8
REMARK VINA RESULT:      -6.8      5.803     11.093
REMARK  Name = 
REMARK  7 active torsions:
REMARK  status: ('A' for Active; 'I' for Inactive)
REMARK    1  A    between atoms: C_1  and  O_2
REMARK    2  A    between atoms: O_2  and  C_3
REMARK    3  A    between atoms: C_8  and  C_9
REMARK    4  A    between atoms: N_12  and  C_13
REMARK    5  A    between atoms: C_21  and  C_22
REMARK    6  A    between atoms: C_27  and  O_28
REMARK    7  A    between atoms: O_28  and  C_29
REMARK                            x       y       z     vdW  Elec       q    Type
REMARK                         _______ _______ _______ _____ _____    ______ ____
ROOT
ATOM      1  C   UNL     1      -1.281  11.070  21.375  0.00  0.00    +0.000 C 
ATOM      2  C   UNL     1      -1.309  12.335  21.874  0.00  0.00    +0.000 C 
ATOM      3  C   UNL     1      -0.537  13.527  21.316  0.00  0.00    +0.000 C 
ATOM      4  N   UNL     1       0.307  14.085  22.385  0.00  0.00    +0.000 NA
ATOM      5  C   UNL     1       1.265  15.060  21.879  0.00  0.00    +0.000 C 
ATOM      6  C   UNL     1      -0.563  14.716  23.388  0.00  0.00    +0.000 C 
ATOM      7  C   UNL     1      -1.814  13.924  23.672  0.00  0.00    +0.000 C 
ATOM      8  C   UNL     1      -2.130  12.774  23.027  0.00  0.00    +0.000 C 
ATOM      9  N   UNL     1      -3.289  12.138  23.406  0.00  0.00    +0.000 N 
ATOM     10  C   UNL     1      -4.049  12.584  24.436  0.00  0.00    +0.000 C 
ATOM     11  N   UNL     1      -5.091  11.770  24.740  0.00  0.00    +0.000 N 
ATOM     12  N   UNL     1      -3.887  13.681  25.091  0.00  0.00    +0.000 NA
ATOM     13  C   UNL     1      -2.764  14.545  24.691  0.00  0.00    +0.000 C 
ATOM     14  H   UNL     1      -3.391  11.175  23.120  0.00  0.00    +0.000 HD
ATOM     15  H   UNL     1      -5.609  11.459  23.927  0.00  0.00    +0.000 HD
ATOM     16  H   UNL     1      -5.710  12.241  25.394  0.00  0.00    +0.000 HD
ENDROOT
BRANCH   1  22
ATOM     17  C   UNL     1      -0.756  10.726  18.892  0.00  0.00    +0.000 A 
ATOM     18  C   UNL     1      -0.010  10.074  17.887  0.00  0.00    +0.000 A 
ATOM     19  C   UNL     1       1.102   9.303  18.206  0.00  0.00    +0.000 A 
ATOM     20  C   UNL     1       1.430   9.108  19.538  0.00  0.00    +0.000 A 
ATOM     21  C   UNL     1       0.626   9.653  20.545  0.00  0.00    +0.000 A 
ATOM     22  C   UNL     1      -0.453  10.510  20.259  0.00  0.00    +0.000 A 
BRANCH  17  24
ATOM     23  C   UNL     1      -2.508  11.196  17.377  0.00  0.00    +0.000 C 
ATOM     24  O   UNL     1      -1.798  11.570  18.566  0.00  0.00    +0.000 OA
ENDBRANCH  17  24
ENDBRANCH   1  22
BRANCH  13  25
ATOM     25  C   UNL     1      -3.297  15.916  24.225  0.00  0.00    +0.000 A 
ATOM     26  C   UNL     1      -3.044  17.030  25.072  0.00  0.00    +0.000 A 
ATOM     27  C   UNL     1      -3.570  18.298  24.823  0.00  0.00    +0.000 A 
ATOM     28  C   UNL     1      -4.312  18.509  23.674  0.00  0.00    +0.000 A 
ATOM     29  C   UNL     1      -4.543  17.447  22.802  0.00  0.00    +0.000 A 
ATOM     30  C   UNL     1      -4.055  16.151  23.064  0.00  0.00    +0.000 A 
BRANCH  30  31
ATOM     31  O   UNL     1      -4.527  15.243  22.156  0.00  0.00    +0.000 OA
ATOM     32  C   UNL     1      -3.968  15.239  20.851  0.00  0.00    +0.000 C 
ENDBRANCH  30  31
ENDBRANCH  13  25
TORSDOF 4
ENDMDL
MODEL 9
REMARK VINA RESULT:      -6.8      7.960     10.535
REMARK  Name = 
REMARK  7 active torsions:
REMARK  status: ('A' for Active; 'I' for Inactive)
REMARK    1  A    between atoms: C_1  and  O_2
REMARK    2  A    between atoms: O_2  and  C_3
REMARK    3  A    between atoms: C_8  and  C_9
REMARK    4  A    between atoms: N_12  and  C_13
REMARK    5  A    between atoms: C_21  and  C_22
REMARK    6  A    between atoms: C_27  and  O_28
REMARK    7  A    between atoms: O_28  and  C_29
REMARK                            x       y       z     vdW  Elec       q    Type
REMARK                         _______ _______ _______ _____ _____    ______ ____
ROOT
ATOM      1  C   UNL     1       0.192  13.291  18.565  0.00  0.00    +0.000 C 
ATOM      2  C   UNL     1      -1.101  13.128  18.953  0.00  0.00    +0.000 C 
ATOM      3  C   UNL     1      -1.789  13.882  20.088  0.00  0.00    +0.000 C 
ATOM      4  N   UNL     1      -2.317  12.903  21.052  0.00  0.00    +0.000 NA
ATOM      5  C   UNL     1      -2.762  13.534  22.289  0.00  0.00    +0.000 C 
ATOM      6  C   UNL     1      -3.437  12.185  20.428  0.00  0.00    +0.000 C 
ATOM      7  C   UNL     1      -3.191  11.844  18.980  0.00  0.00    +0.000 C 
ATOM      8  C   UNL     1      -2.072  12.213  18.309  0.00  0.00    +0.000 C 
ATOM      9  N   UNL     1      -1.964  11.810  16.998  0.00  0.00    +0.000 N 
ATOM     10  C   UNL     1      -2.889  11.008  16.414  0.00  0.00    +0.000 C 
ATOM     11  N   UNL     1      -2.561  10.621  15.156  0.00  0.00    +0.000 N 
ATOM     12  N   UNL     1      -4.011  10.633  16.924  0.00  0.00    +0.000 NA
ATOM     13  C   UNL     1      -4.332  11.117  18.277  0.00  0.00    +0.000 C 
ATOM     14  H   UNL     1      -1.044  11.856  16.584  0.00  0.00    +0.000 HD
ATOM     15  H   UNL     1      -2.224  11.380  14.576  0.00  0.00    +0.000 HD
ATOM     16  H   UNL     1      -3.363  10.173  14.719  0.00  0.00    +0.000 HD
ENDROOT
BRANCH   1  22
ATOM     17  C   UNL     1       1.309  15.549  19.029  0.00  0.00    +0.000 A 
ATOM     18  C   UNL     1       2.408  16.281  19.525  0.00  0.00    +0.000 A 
ATOM     19  C   UNL     1       3.409  15.659  20.264  0.00  0.00    +0.000 A 
ATOM     20  C   UNL     1       3.363  14.286  20.443  0.00  0.00    +0.000 A 
ATOM     21  C   UNL     1       2.339  13.536  19.853  0.00  0.00    +0.000 A 
ATOM     22  C   UNL     1       1.264  14.140  19.175  0.00  0.00    +0.000 A 
BRANCH  17  24
ATOM     23  C   UNL     1       0.564  17.525  17.968  0.00  0.00    +0.000 C 
ATOM     24  O   UNL     1       0.269  16.183  18.382  0.00  0.00    +0.000 OA
ENDBRANCH  17  24
ENDBRANCH   1  22
BRANCH  13  25
ATOM     25  C   UNL     1      -5.622  11.962  18.239  0.00  0.00    +0.000 A 
ATOM     26  C   UNL     1      -5.764  12.877  17.160  0.00  0.00    +0.000 A 
ATOM     27  C   UNL     1      -6.826  13.778  17.074  0.00  0.00    +0.000 A 
ATOM     28  C   UNL     1      -7.823  13.743  18.034  0.00  0.00    +0.000 A 
ATOM     29  C   UNL     1      -7.734  12.830  19.082  0.00  0.00    +0.000 A 
ATOM     30  C   UNL     1      -6.644  11.944  19.206  0.00  0.00    +0.000 A 
BRANCH  30  31
ATOM     31  O   UNL     1      -6.692  11.249  20.383  0.00  0.00    +0.000 OA
ATOM     32  C   UNL     1      -7.428  10.036  20.422  0.00  0.00    +0.000 C 
ENDBRANCH  30  31
ENDBRANCH  13  25
TORSDOF 4
ENDMDL
