MODEL 1
REMARK VINA RESULT:      -8.2      0.000      0.000
REMARK  Name = 
REMARK  8 active torsions:
REMARK  status: ('A' for Active; 'I' for Inactive)
REMARK    1  A    between atoms: C_1  and  C_2
REMARK    2  A    between atoms: C_2  and  O_3
REMARK    3  A    between atoms: O_3  and  C_4
REMARK    4  A    between atoms: C_4  and  C_6
REMARK    5  A    between atoms: C_11  and  N_12
REMARK    6  A    between atoms: C_13  and  C_15
REMARK    7  A    between atoms: C_17  and  S_18
REMARK    8  A    between atoms: S_18  and  N_21
REMARK                            x       y       z     vdW  Elec       q    Type
REMARK                         _______ _______ _______ _____ _____    ______ ____
ROOT
ATOM      1  C   UNL     1       1.177   8.916  19.120  0.00  0.00    +0.000 A 
ATOM      2  C   UNL     1       0.150   9.706  18.572  0.00  0.00    +0.000 A 
ATOM      3  C   UNL     1      -0.716  10.406  19.415  0.00  0.00    +0.000 A 
ATOM      4  C   UNL     1      -0.599  10.300  20.804  0.00  0.00    +0.000 A 
ATOM      5  C   UNL     1       0.418   9.514  21.349  0.00  0.00    +0.000 A 
ATOM      6  C   UNL     1       1.303   8.840  20.508  0.00  0.00    +0.000 A 
ATOM      7  F   UNL     1       2.285   8.126  21.077  0.00  0.00    +0.000 F 
ENDROOT
BRANCH   1   9
ATOM      8  N   UNL     1       2.434   6.923  18.415  0.00  0.00    +0.000 N 
ATOM      9  C   UNL     1       2.118   8.249  18.177  0.00  0.00    +0.000 C 
ATOM     10  O   UNL     1       2.545   8.924  17.246  0.00  0.00    +0.000 OA
ATOM     11  H   UNL     1       1.834   6.392  19.046  0.00  0.00    +0.000 HD
BRANCH   8  17
ATOM     12  C   UNL     1       3.365   4.789  17.563  0.00  0.00    +0.000 A 
ATOM     13  C   UNL     1       4.447   4.098  16.981  0.00  0.00    +0.000 A 
ATOM     14  C   UNL     1       5.619   4.759  16.623  0.00  0.00    +0.000 A 
ATOM     15  C   UNL     1       5.730   6.122  16.848  0.00  0.00    +0.000 A 
ATOM     16  C   UNL     1       4.671   6.819  17.431  0.00  0.00    +0.000 A 
ATOM     17  C   UNL     1       3.474   6.182  17.790  0.00  0.00    +0.000 A 
BRANCH  12  18
ATOM     18  C   UNL     1       2.141   3.953  17.791  0.00  0.00    +0.000 C 
ATOM     19  O   UNL     1       1.064   4.204  17.273  0.00  0.00    +0.000 OA
BRANCH  18  20
ATOM     20  O   UNL     1       2.359   2.980  18.707  0.00  0.00    +0.000 OA
BRANCH  20  22
ATOM     21  C   UNL     1       1.162   3.763  20.619  0.00  0.00    +0.000 C 
ATOM     22  C   UNL     1       2.535   3.445  20.057  0.00  0.00    +0.000 C 
ENDBRANCH  20  22
ENDBRANCH  18  20
ENDBRANCH  12  18
ENDBRANCH   8  17
ENDBRANCH   1   9
BRANCH   3  23
ATOM     23  S   UNL     1      -1.976  11.438  18.706  0.00  0.00    +0.000 S 
ATOM     24  O   UNL     1      -2.674  12.067  19.805  0.00  0.00    +0.000 OA
ATOM     25  O   UNL     1      -1.351  12.232  17.671  0.00  0.00    +0.000 OA
BRANCH  23  26
ATOM     26  N   UNL     1      -3.048  10.340  17.956  0.00  0.00    +0.000 NA
ATOM     27  C   UNL     1      -2.711   9.853  16.581  0.00  0.00    +0.000 C 
ATOM     28  C   UNL     1      -3.035  10.898  15.508  0.00  0.00    +0.000 C 
ATOM     29  O   UNL     1      -4.405  11.318  15.574  0.00  0.00    +0.000 OA
ATOM     30  C   UNL     1      -4.745  11.828  16.874  0.00  0.00    +0.000 C 
ATOM     31  C   UNL     1      -4.484  10.784  17.967  0.00  0.00    +0.000 C 
ENDBRANCH  23  26
ENDBRANCH   3  23
TORSDOF 7
ENDMDL
MODEL 2
REMARK VINA RESULT:      -8.1      2.963      8.363
REMARK  Name = 
REMARK  8 active torsions:
REMARK  status: ('A' for Active; 'I' for Inactive)
REMARK    1  A    between atoms: C_1  and  C_2
REMARK    2  A    between atoms: C_2  and  O_3
REMARK    3  A    between atoms: O_3  and  C_4
REMARK    4  A    between atoms: C_4  and  C_6
REMARK    5  A    between atoms: C_11  and  N_12
REMARK    6  A    between atoms: C_13  and  C_15
REMARK    7  A    between atoms: C_17  and  S_18
REMARK    8  A    between atoms: S_18  and  N_21
REMARK                            x       y       z     vdW  Elec       q    Type
REMARK                         _______ _______ _______ _____ _____    ______ ____
ROOT
ATOM      1  C   UNL     1       2.154   7.822  19.080  0.00  0.00    +0.000 A 
ATOM      2  C   UNL     1       3.005   6.967  18.355  0.00  0.00    +0.000 A 
ATOM      3  C   UNL     1       3.242   5.669  18.811  0.00  0.00    +0.000 A 
ATOM      4  C   UNL     1       2.672   5.219  20.006  0.00  0.00    +0.000 A 
ATOM      5  C   UNL     1       1.830   6.066  20.727  0.00  0.00    +0.000 A 
ATOM      6  C   UNL     1       1.568   7.352  20.255  0.00  0.00    +0.000 A 
ATOM      7  F   UNL     1       0.725   8.118  20.964  0.00  0.00    +0.000 F 
ENDROOT
BRANCH   1   9
ATOM      8  N   UNL     1       1.634  10.205  19.398  0.00  0.00    +0.000 N 
ATOM      9  C   UNL     1       1.877   9.171  18.511  0.00  0.00    +0.000 C 
ATOM     10  O   UNL     1       1.890   9.273  17.289  0.00  0.00    +0.000 OA
ATOM     11  H   UNL     1       1.902  10.074  20.374  0.00  0.00    +0.000 HD
BRANCH   8  17
ATOM     12  C   UNL     1      -0.254  11.707  18.831  0.00  0.00    +0.000 A 
ATOM     13  C   UNL     1      -0.696  12.996  18.465  0.00  0.00    +0.000 A 
ATOM     14  C   UNL     1       0.195  14.058  18.338  0.00  0.00    +0.000 A 
ATOM     15  C   UNL     1       1.545  13.847  18.568  0.00  0.00    +0.000 A 
ATOM     16  C   UNL     1       2.000  12.576  18.923  0.00  0.00    +0.000 A 
ATOM     17  C   UNL     1       1.124  11.490  19.071  0.00  0.00    +0.000 A 
BRANCH  12  18
ATOM     18  C   UNL     1      -1.351  10.704  19.027  0.00  0.00    +0.000 C 
ATOM     19  O   UNL     1      -1.342   9.885  19.933  0.00  0.00    +0.000 OA
BRANCH  18  20
ATOM     20  O   UNL     1      -2.264  10.754  18.029  0.00  0.00    +0.000 OA
BRANCH  20  22
ATOM     21  C   UNL     1      -2.745  10.454  15.709  0.00  0.00    +0.000 C 
ATOM     22  C   UNL     1      -1.979   9.909  16.901  0.00  0.00    +0.000 C 
ENDBRANCH  20  22
ENDBRANCH  18  20
ENDBRANCH  12  18
ENDBRANCH   8  17
ENDBRANCH   1   9
BRANCH   3  23
ATOM     23  S   UNL     1       4.280   4.587  17.859  0.00  0.00    +0.000 S 
ATOM     24  O   UNL     1       5.043   3.798  18.800  0.00  0.00    +0.000 OA
ATOM     25  O   UNL     1       3.442   3.952  16.865  0.00  0.00    +0.000 OA
BRANCH  23  26
ATOM     26  N   UNL     1       5.355   5.638  17.050  0.00  0.00    +0.000 NA
ATOM     27  C   UNL     1       5.659   5.366  15.610  0.00  0.00    +0.000 C 
ATOM     28  C   UNL     1       6.658   4.218  15.441  0.00  0.00    +0.000 C 
ATOM     29  O   UNL     1       7.867   4.455  16.176  0.00  0.00    +0.000 OA
ATOM     30  C   UNL     1       7.609   4.680  17.572  0.00  0.00    +0.000 C 
ATOM     31  C   UNL     1       6.652   5.861  17.777  0.00  0.00    +0.000 C 
ENDBRANCH  23  26
ENDBRANCH   3  23
TORSDOF 7
ENDMDL
MODEL 3
REMARK VINA RESULT:      -8.1      2.891      4.632
REMARK  Name = 
REMARK  8 active torsions:
REMARK  status: ('A' for Active; 'I' for Inactive)
REMARK    1  A    between atoms: C_1  and  C_2
REMARK    2  A    between atoms: C_2  and  O_3
REMARK    3  A    between atoms: O_3  and  C_4
REMARK    4  A    between atoms: C_4  and  C_6
REMARK    5  A    between atoms: C_11  and  N_12
REMARK    6  A    between atoms: C_13  and  C_15
REMARK    7  A    between atoms: C_17  and  S_18
REMARK    8  A    between atoms: S_18  and  N_21
REMARK                            x       y       z     vdW  Elec       q    Type
REMARK                         _______ _______ _______ _____ _____    ______ ____
ROOT
ATOM      1  C   UNL     1       2.242   6.965  19.253  0.00  0.00    +0.000 A 
ATOM      2  C   UNL     1       2.010   8.239  18.702  0.00  0.00    +0.000 A 
ATOM      3  C   UNL     1       1.365   9.219  19.460  0.00  0.00    +0.000 A 
ATOM      4  C   UNL     1       0.909   8.936  20.751  0.00  0.00    +0.000 A 
ATOM      5  C   UNL     1       1.136   7.672  21.297  0.00  0.00    +0.000 A 
ATOM      6  C   UNL     1       1.808   6.703  20.553  0.00  0.00    +0.000 A 
ATOM      7  F   UNL     1       2.034   5.515  21.133  0.00  0.00    +0.000 F 
ENDROOT
BRANCH   1   9
ATOM      8  N   UNL     1       4.363   6.170  18.295  0.00  0.00    +0.000 N 
ATOM      9  C   UNL     1       2.999   5.981  18.430  0.00  0.00    +0.000 C 
ATOM     10  O   UNL     1       2.358   5.062  17.932  0.00  0.00    +0.000 OA
ATOM     11  H   UNL     1       4.828   6.798  18.951  0.00  0.00    +0.000 HD
BRANCH   8  17
ATOM     12  C   UNL     1       6.617   5.427  17.580  0.00  0.00    +0.000 A 
ATOM     13  C   UNL     1       7.421   4.787  16.613  0.00  0.00    +0.000 A 
ATOM     14  C   UNL     1       6.865   4.224  15.468  0.00  0.00    +0.000 A 
ATOM     15  C   UNL     1       5.496   4.297  15.267  0.00  0.00    +0.000 A 
ATOM     16  C   UNL     1       4.687   4.934  16.210  0.00  0.00    +0.000 A 
ATOM     17  C   UNL     1       5.218   5.499  17.379  0.00  0.00    +0.000 A 
BRANCH  12  18
ATOM     18  C   UNL     1       7.357   5.886  18.802  0.00  0.00    +0.000 C 
ATOM     19  O   UNL     1       7.110   5.462  19.920  0.00  0.00    +0.000 OA
BRANCH  18  20
ATOM     20  O   UNL     1       8.228   6.882  18.518  0.00  0.00    +0.000 OA
BRANCH  20  22
ATOM     21  C   UNL     1       8.423   9.238  18.178  0.00  0.00    +0.000 C 
ATOM     22  C   UNL     1       7.673   7.981  17.774  0.00  0.00    +0.000 C 
ENDBRANCH  20  22
ENDBRANCH  18  20
ENDBRANCH  12  18
ENDBRANCH   8  17
ENDBRANCH   1   9
BRANCH   3  23
ATOM     23  S   UNL     1       1.123  10.837  18.767  0.00  0.00    +0.000 S 
ATOM     24  O   UNL     1       2.293  11.134  17.971  0.00  0.00    +0.000 OA
ATOM     25  O   UNL     1      -0.199  10.862  18.182  0.00  0.00    +0.000 OA
BRANCH  23  26
ATOM     26  N   UNL     1       1.123  11.879  20.120  0.00  0.00    +0.000 NA
ATOM     27  C   UNL     1      -0.193  12.392  20.616  0.00  0.00    +0.000 C 
ATOM     28  C   UNL     1      -0.730  13.530  19.742  0.00  0.00    +0.000 C 
ATOM     29  O   UNL     1       0.218  14.601  19.625  0.00  0.00    +0.000 OA
ATOM     30  C   UNL     1       1.480  14.142  19.113  0.00  0.00    +0.000 C 
ATOM     31  C   UNL     1       2.072  13.039  19.998  0.00  0.00    +0.000 C 
ENDBRANCH  23  26
ENDBRANCH   3  23
TORSDOF 7
ENDMDL
MODEL 4
REMARK VINA RESULT:      -8.0      2.557      3.165
REMARK  Name = 
REMARK  8 active torsions:
REMARK  status: ('A' for Active; 'I' for Inactive)
REMARK    1  A    between atoms: C_1  and  C_2
REMARK    2  A    between atoms: C_2  and  O_3
REMARK    3  A    between atoms: O_3  and  C_4
REMARK    4  A    between atoms: C_4  and  C_6
REMARK    5  A    between atoms: C_11  and  N_12
REMARK    6  A    between atoms: C_13  and  C_15
REMARK    7  A    between atoms: C_17  and  S_18
REMARK    8  A    between atoms: S_18  and  N_21
REMARK                            x       y       z     vdW  Elec       q    Type
REMARK                         _______ _______ _______ _____ _____    ______ ____
ROOT
ATOM      1  C   UNL     1       1.531   8.680  19.703  0.00  0.00    +0.000 A 
ATOM      2  C   UNL     1       1.157  10.034  19.613  0.00  0.00    +0.000 A 
ATOM      3  C   UNL     1       0.587  10.675  20.714  0.00  0.00    +0.000 A 
ATOM      4  C   UNL     1       0.345   9.974  21.900  0.00  0.00    +0.000 A 
ATOM      5  C   UNL     1       0.713   8.631  21.990  0.00  0.00    +0.000 A 
ATOM      6  C   UNL     1       1.312   7.999  20.900  0.00  0.00    +0.000 A 
ATOM      7  F   UNL     1       1.680   6.717  21.046  0.00  0.00    +0.000 F 
ENDROOT
BRANCH   1   9
ATOM      8  N   UNL     1       2.731   6.796  18.675  0.00  0.00    +0.000 N 
ATOM      9  C   UNL     1       2.202   8.065  18.523  0.00  0.00    +0.000 C 
ATOM     10  O   UNL     1       2.234   8.729  17.492  0.00  0.00    +0.000 OA
ATOM     11  H   UNL     1       2.425   6.240  19.474  0.00  0.00    +0.000 HD
BRANCH   8  17
ATOM     12  C   UNL     1       3.411   4.782  17.400  0.00  0.00    +0.000 A 
ATOM     13  C   UNL     1       4.336   4.166  16.531  0.00  0.00    +0.000 A 
ATOM     14  C   UNL     1       5.431   4.863  16.027  0.00  0.00    +0.000 A 
ATOM     15  C   UNL     1       5.623   6.186  16.390  0.00  0.00    +0.000 A 
ATOM     16  C   UNL     1       4.722   6.809  17.255  0.00  0.00    +0.000 A 
ATOM     17  C   UNL     1       3.603   6.135  17.768  0.00  0.00    +0.000 A 
BRANCH  12  18
ATOM     18  C   UNL     1       2.234   3.928  17.766  0.00  0.00    +0.000 C 
ATOM     19  O   UNL     1       1.102   4.163  17.375  0.00  0.00    +0.000 OA
BRANCH  18  20
ATOM     20  O   UNL     1       2.570   2.960  18.651  0.00  0.00    +0.000 OA
BRANCH  20  22
ATOM     21  C   UNL     1       1.442   3.345  20.720  0.00  0.00    +0.000 C 
ATOM     22  C   UNL     1       1.489   2.483  19.470  0.00  0.00    +0.000 C 
ENDBRANCH  20  22
ENDBRANCH  18  20
ENDBRANCH  12  18
ENDBRANCH   8  17
ENDBRANCH   1   9
BRANCH   3  23
ATOM     23  S   UNL     1       0.165  12.397  20.599  0.00  0.00    +0.000 S 
ATOM     24  O   UNL     1      -1.277  12.475  20.540  0.00  0.00    +0.000 OA
ATOM     25  O   UNL     1       0.905  13.090  21.631  0.00  0.00    +0.000 OA
BRANCH  23  26
ATOM     26  N   UNL     1       0.787  12.883  19.085  0.00  0.00    +0.000 NA
ATOM     27  C   UNL     1       2.154  13.490  19.045  0.00  0.00    +0.000 C 
ATOM     28  C   UNL     1       2.146  14.951  19.507  0.00  0.00    +0.000 C 
ATOM     29  O   UNL     1       1.219  15.741  18.749  0.00  0.00    +0.000 OA
ATOM     30  C   UNL     1      -0.112  15.202  18.803  0.00  0.00    +0.000 C 
ATOM     31  C   UNL     1      -0.146  13.755  18.293  0.00  0.00    +0.000 C 
ENDBRANCH  23  26
ENDBRANCH   3  23
TORSDOF 7
ENDMDL
MODEL 5
REMARK VINA RESULT:      -7.9      2.815      8.607
REMARK  Name = 
REMARK  8 active torsions:
REMARK  status: ('A' for Active; 'I' for Inactive)
REMARK    1  A    between atoms: C_1  and  C_2
REMARK    2  A    between atoms: C_2  and  O_3
REMARK    3  A    between atoms: O_3  and  C_4
REMARK    4  A    between atoms: C_4  and  C_6
REMARK    5  A    between atoms: C_11  and  N_12
REMARK    6  A    between atoms: C_13  and  C_15
REMARK    7  A    between atoms: C_17  and  S_18
REMARK    8  A    between atoms: S_18  and  N_21
REMARK                            x       y       z     vdW  Elec       q    Type
REMARK                         _______ _______ _______ _____ _____    ______ ____
ROOT
ATOM      1  C   UNL     1       1.299   9.247  19.859  0.00  0.00    +0.000 A 
ATOM      2  C   UNL     1       1.632   7.928  20.220  0.00  0.00    +0.000 A 
ATOM      3  C   UNL     1       2.295   7.102  19.310  0.00  0.00    +0.000 A 
ATOM      4  C   UNL     1       2.600   7.559  18.024  0.00  0.00    +0.000 A 
ATOM      5  C   UNL     1       2.269   8.866  17.664  0.00  0.00    +0.000 A 
ATOM      6  C   UNL     1       1.634   9.702  18.583  0.00  0.00    +0.000 A 
ATOM      7  F   UNL     1       1.367  10.960  18.203  0.00  0.00    +0.000 F 
ENDROOT
BRANCH   1   9
ATOM      8  N   UNL     1      -0.630  10.553  20.647  0.00  0.00    +0.000 N 
ATOM      9  C   UNL     1       0.657  10.108  20.891  0.00  0.00    +0.000 C 
ATOM     10  O   UNL     1       1.317  10.360  21.894  0.00  0.00    +0.000 OA
ATOM     11  H   UNL     1      -1.173  10.081  19.924  0.00  0.00    +0.000 HD
BRANCH   8  17
ATOM     12  C   UNL     1      -2.319  12.363  20.771  0.00  0.00    +0.000 A 
ATOM     13  C   UNL     1      -2.941  13.376  21.530  0.00  0.00    +0.000 A 
ATOM     14  C   UNL     1      -2.597  13.598  22.861  0.00  0.00    +0.000 A 
ATOM     15  C   UNL     1      -1.620  12.814  23.452  0.00  0.00    +0.000 A 
ATOM     16  C   UNL     1      -0.989  11.812  22.713  0.00  0.00    +0.000 A 
ATOM     17  C   UNL     1      -1.324  11.558  21.374  0.00  0.00    +0.000 A 
BRANCH  12  18
ATOM     18  C   UNL     1      -2.878  12.186  19.390  0.00  0.00    +0.000 C 
ATOM     19  O   UNL     1      -4.077  12.152  19.163  0.00  0.00    +0.000 OA
BRANCH  18  20
ATOM     20  O   UNL     1      -1.903  11.963  18.477  0.00  0.00    +0.000 OA
BRANCH  20  22
ATOM     21  C   UNL     1      -1.778   9.932  17.227  0.00  0.00    +0.000 C 
ATOM     22  C   UNL     1      -2.343  11.341  17.257  0.00  0.00    +0.000 C 
ENDBRANCH  20  22
ENDBRANCH  18  20
ENDBRANCH  12  18
ENDBRANCH   8  17
ENDBRANCH   1   9
BRANCH   3  23
ATOM     23  S   UNL     1       2.751   5.456  19.799  0.00  0.00    +0.000 S 
ATOM     24  O   UNL     1       4.192   5.374  19.710  0.00  0.00    +0.000 OA
ATOM     25  O   UNL     1       2.066   5.171  21.040  0.00  0.00    +0.000 OA
BRANCH  23  26
ATOM     26  N   UNL     1       2.085   4.457  18.585  0.00  0.00    +0.000 NA
ATOM     27  C   UNL     1       1.145   3.369  19.003  0.00  0.00    +0.000 C 
ATOM     28  C   UNL     1       1.889   2.163  19.586  0.00  0.00    +0.000 C 
ATOM     29  O   UNL     1       2.874   1.656  18.674  0.00  0.00    +0.000 OA
ATOM     30  C   UNL     1       3.814   2.672  18.287  0.00  0.00    +0.000 C 
ATOM     31  C   UNL     1       3.104   3.872  17.648  0.00  0.00    +0.000 C 
ENDBRANCH  23  26
ENDBRANCH   3  23
TORSDOF 7
ENDMDL
MODEL 6
REMARK VINA RESULT:      -7.9      3.551      8.928
REMARK  Name = 
REMARK  8 active torsions:
REMARK  status: ('A' for Active; 'I' for Inactive)
REMARK    1  A    between atoms: C_1  and  C_2
REMARK    2  A    between atoms: C_2  and  O_3
REMARK    3  A    between atoms: O_3  and  C_4
REMARK    4  A    between atoms: C_4  and  C_6
REMARK    5  A    between atoms: C_11  and  N_12
REMARK    6  A    between atoms: C_13  and  C_15
REMARK    7  A    between atoms: C_17  and  S_18
REMARK    8  A    between atoms: S_18  and  N_21
REMARK                            x       y       z     vdW  Elec       q    Type
REMARK                         _______ _______ _______ _____ _____    ______ ____
ROOT
ATOM      1  C   UNL     1       1.210   9.233  20.110  0.00  0.00    +0.000 A 
ATOM      2  C   UNL     1       1.629   7.921  20.396  0.00  0.00    +0.000 A 
ATOM      3  C   UNL     1       2.206   7.138  19.393  0.00  0.00    +0.000 A 
ATOM      4  C   UNL     1       2.337   7.633  18.091  0.00  0.00    +0.000 A 
ATOM      5  C   UNL     1       1.920   8.933  17.806  0.00  0.00    +0.000 A 
ATOM      6  C   UNL     1       1.372   9.726  18.815  0.00  0.00    +0.000 A 
ATOM      7  F   UNL     1       1.018  10.981  18.501  0.00  0.00    +0.000 F 
ENDROOT
BRANCH   1   9
ATOM      8  N   UNL     1      -0.337  10.954  20.943  0.00  0.00    +0.000 N 
ATOM      9  C   UNL     1       0.669  10.049  21.233  0.00  0.00    +0.000 C 
ATOM     10  O   UNL     1       1.151   9.856  22.344  0.00  0.00    +0.000 OA
ATOM     11  H   UNL     1      -0.837  10.850  20.061  0.00  0.00    +0.000 HD
BRANCH   8  17
ATOM     12  C   UNL     1      -0.137  13.210  21.950  0.00  0.00    +0.000 A 
ATOM     13  C   UNL     1      -0.638  14.172  22.852  0.00  0.00    +0.000 A 
ATOM     14  C   UNL     1      -1.789  13.935  23.598  0.00  0.00    +0.000 A 
ATOM     15  C   UNL     1      -2.456  12.728  23.458  0.00  0.00    +0.000 A 
ATOM     16  C   UNL     1      -1.970  11.762  22.576  0.00  0.00    +0.000 A 
ATOM     17  C   UNL     1      -0.819  11.979  21.802  0.00  0.00    +0.000 A 
BRANCH  12  18
ATOM     18  C   UNL     1       1.048  13.662  21.149  0.00  0.00    +0.000 C 
ATOM     19  O   UNL     1       2.086  14.044  21.666  0.00  0.00    +0.000 OA
BRANCH  18  20
ATOM     20  O   UNL     1       0.777  13.696  19.824  0.00  0.00    +0.000 OA
BRANCH  20  22
ATOM     21  C   UNL     1       2.530  13.851  18.210  0.00  0.00    +0.000 C 
ATOM     22  C   UNL     1       1.556  14.639  19.067  0.00  0.00    +0.000 C 
ENDBRANCH  20  22
ENDBRANCH  18  20
ENDBRANCH  12  18
ENDBRANCH   8  17
ENDBRANCH   1   9
BRANCH   3  23
ATOM     23  S   UNL     1       2.774   5.501  19.783  0.00  0.00    +0.000 S 
ATOM     24  O   UNL     1       4.213   5.509  19.643  0.00  0.00    +0.000 OA
ATOM     25  O   UNL     1       2.152   5.116  21.031  0.00  0.00    +0.000 OA
BRANCH  23  26
ATOM     26  N   UNL     1       2.124   4.523  18.543  0.00  0.00    +0.000 NA
ATOM     27  C   UNL     1       1.215   3.400  18.933  0.00  0.00    +0.000 C 
ATOM     28  C   UNL     1       1.993   2.195  19.473  0.00  0.00    +0.000 C 
ATOM     29  O   UNL     1       2.984   1.743  18.539  0.00  0.00    +0.000 OA
ATOM     30  C   UNL     1       3.895   2.793  18.177  0.00  0.00    +0.000 C 
ATOM     31  C   UNL     1       3.151   3.994  17.581  0.00  0.00    +0.000 C 
ENDBRANCH  23  26
ENDBRANCH   3  23
TORSDOF 7
ENDMDL
MODEL 7
REMARK VINA RESULT:      -7.8      3.027      3.973
REMARK  Name = 
REMARK  8 active torsions:
REMARK  status: ('A' for Active; 'I' for Inactive)
REMARK    1  A    between atoms: C_1  and  C_2
REMARK    2  A    between atoms: C_2  and  O_3
REMARK    3  A    between atoms: O_3  and  C_4
REMARK    4  A    between atoms: C_4  and  C_6
REMARK    5  A    between atoms: C_11  and  N_12
REMARK    6  A    between atoms: C_13  and  C_15
REMARK    7  A    between atoms: C_17  and  S_18
REMARK    8  A    between atoms: S_18  and  N_21
REMARK                            x       y       z     vdW  Elec       q    Type
REMARK                         _______ _______ _______ _____ _____    ______ ____
ROOT
ATOM      1  C   UNL     1       2.065   7.532  19.249  0.00  0.00    +0.000 A 
ATOM      2  C   UNL     1       1.910   8.834  18.740  0.00  0.00    +0.000 A 
ATOM      3  C   UNL     1       1.288   9.817  19.513  0.00  0.00    +0.000 A 
ATOM      4  C   UNL     1       0.779   9.510  20.780  0.00  0.00    +0.000 A 
ATOM      5  C   UNL     1       0.930   8.218  21.285  0.00  0.00    +0.000 A 
ATOM      6  C   UNL     1       1.580   7.245  20.526  0.00  0.00    +0.000 A 
ATOM      7  F   UNL     1       1.732   6.028  21.068  0.00  0.00    +0.000 F 
ENDROOT
BRANCH   1   9
ATOM      8  N   UNL     1       4.152   6.755  18.206  0.00  0.00    +0.000 N 
ATOM      9  C   UNL     1       2.800   6.542  18.413  0.00  0.00    +0.000 C 
ATOM     10  O   UNL     1       2.154   5.599  17.970  0.00  0.00    +0.000 OA
ATOM     11  H   UNL     1       4.636   7.407  18.822  0.00  0.00    +0.000 HD
BRANCH   8  17
ATOM     12  C   UNL     1       5.941   5.126  17.667  0.00  0.00    +0.000 A 
ATOM     13  C   UNL     1       6.759   4.520  16.691  0.00  0.00    +0.000 A 
ATOM     14  C   UNL     1       6.633   4.837  15.341  0.00  0.00    +0.000 A 
ATOM     15  C   UNL     1       5.690   5.772  14.946  0.00  0.00    +0.000 A 
ATOM     16  C   UNL     1       4.877   6.387  15.899  0.00  0.00    +0.000 A 
ATOM     17  C   UNL     1       4.974   6.078  17.265  0.00  0.00    +0.000 A 
BRANCH  12  18
ATOM     18  C   UNL     1       6.131   4.597  19.057  0.00  0.00    +0.000 C 
ATOM     19  O   UNL     1       6.742   5.210  19.918  0.00  0.00    +0.000 OA
BRANCH  18  20
ATOM     20  O   UNL     1       5.647   3.339  19.188  0.00  0.00    +0.000 OA
BRANCH  20  22
ATOM     21  C   UNL     1       3.559   2.388  18.527  0.00  0.00    +0.000 C 
ATOM     22  C   UNL     1       4.259   3.257  19.556  0.00  0.00    +0.000 C 
ENDBRANCH  20  22
ENDBRANCH  18  20
ENDBRANCH  12  18
ENDBRANCH   8  17
ENDBRANCH   1   9
BRANCH   3  23
ATOM     23  S   UNL     1       1.143  11.467  18.874  0.00  0.00    +0.000 S 
ATOM     24  O   UNL     1       2.284  11.688  18.013  0.00  0.00    +0.000 OA
ATOM     25  O   UNL     1      -0.205  11.618  18.373  0.00  0.00    +0.000 OA
BRANCH  23  26
ATOM     26  N   UNL     1       1.312  12.468  20.247  0.00  0.00    +0.000 NA
ATOM     27  C   UNL     1       0.091  13.153  20.776  0.00  0.00    +0.000 C 
ATOM     28  C   UNL     1      -0.288  14.376  19.935  0.00  0.00    +0.000 C 
ATOM     29  O   UNL     1       0.802  15.302  19.823  0.00  0.00    +0.000 OA
ATOM     30  C   UNL     1       1.978  14.678  19.280  0.00  0.00    +0.000 C 
ATOM     31  C   UNL     1       2.417  13.481  20.133  0.00  0.00    +0.000 C 
ENDBRANCH  23  26
ENDBRANCH   3  23
TORSDOF 7
ENDMDL
MODEL 8
REMARK VINA RESULT:      -7.8      2.821      3.843
REMARK  Name = 
REMARK  8 active torsions:
REMARK  status: ('A' for Active; 'I' for Inactive)
REMARK    1  A    between atoms: C_1  and  C_2
REMARK    2  A    between atoms: C_2  and  O_3
REMARK    3  A    between atoms: O_3  and  C_4
REMARK    4  A    between atoms: C_4  and  C_6
REMARK    5  A    between atoms: C_11  and  N_12
REMARK    6  A    between atoms: C_13  and  C_15
REMARK    7  A    between atoms: C_17  and  S_18
REMARK    8  A    between atoms: S_18  and  N_21
REMARK                            x       y       z     vdW  Elec       q    Type
REMARK                         _______ _______ _______ _____ _____    ______ ____
ROOT
ATOM      1  C   UNL     1       1.542   8.773  19.529  0.00  0.00    +0.000 A 
ATOM      2  C   UNL     1       1.199  10.127  19.357  0.00  0.00    +0.000 A 
ATOM      3  C   UNL     1       0.620  10.839  20.410  0.00  0.00    +0.000 A 
ATOM      4  C   UNL     1       0.340  10.209  21.627  0.00  0.00    +0.000 A 
ATOM      5  C   UNL     1       0.678   8.866  21.798  0.00  0.00    +0.000 A 
ATOM      6  C   UNL     1       1.285   8.163  20.758  0.00  0.00    +0.000 A 
ATOM      7  F   UNL     1       1.624   6.885  20.981  0.00  0.00    +0.000 F 
ENDROOT
BRANCH   1   9
ATOM      8  N   UNL     1       2.763   6.830  18.644  0.00  0.00    +0.000 N 
ATOM      9  C   UNL     1       2.224   8.081  18.400  0.00  0.00    +0.000 C 
ATOM     10  O   UNL     1       2.255   8.669  17.324  0.00  0.00    +0.000 OA
ATOM     11  H   UNL     1       2.458   6.331  19.480  0.00  0.00    +0.000 HD
BRANCH   8  17
ATOM     12  C   UNL     1       3.414   4.761  17.445  0.00  0.00    +0.000 A 
ATOM     13  C   UNL     1       4.348   4.088  16.631  0.00  0.00    +0.000 A 
ATOM     14  C   UNL     1       5.491   4.728  16.158  0.00  0.00    +0.000 A 
ATOM     15  C   UNL     1       5.720   6.051  16.498  0.00  0.00    +0.000 A 
ATOM     16  C   UNL     1       4.810   6.730  17.310  0.00  0.00    +0.000 A 
ATOM     17  C   UNL     1       3.645   6.114  17.790  0.00  0.00    +0.000 A 
BRANCH  12  18
ATOM     18  C   UNL     1       2.189   3.963  17.780  0.00  0.00    +0.000 C 
ATOM     19  O   UNL     1       1.089   4.216  17.315  0.00  0.00    +0.000 OA
BRANCH  18  20
ATOM     20  O   UNL     1       2.442   3.026  18.724  0.00  0.00    +0.000 OA
BRANCH  20  22
ATOM     21  C   UNL     1       1.233   3.490  20.731  0.00  0.00    +0.000 C 
ATOM     22  C   UNL     1       1.298   2.613  19.493  0.00  0.00    +0.000 C 
ENDBRANCH  20  22
ENDBRANCH  18  20
ENDBRANCH  12  18
ENDBRANCH   8  17
ENDBRANCH   1   9
BRANCH   3  23
ATOM     23  S   UNL     1       0.236  12.559  20.191  0.00  0.00    +0.000 S 
ATOM     24  O   UNL     1       0.614  12.907  18.840  0.00  0.00    +0.000 OA
ATOM     25  O   UNL     1      -1.117  12.762  20.660  0.00  0.00    +0.000 OA
BRANCH  23  26
ATOM     26  N   UNL     1       1.293  13.366  21.263  0.00  0.00    +0.000 NA
ATOM     27  C   UNL     1       0.815  14.628  21.910  0.00  0.00    +0.000 C 
ATOM     28  C   UNL     1       0.878  15.822  20.952  0.00  0.00    +0.000 C 
ATOM     29  O   UNL     1       2.196  15.999  20.412  0.00  0.00    +0.000 OA
ATOM     30  C   UNL     1       2.665  14.813  19.750  0.00  0.00    +0.000 C 
ATOM     31  C   UNL     1       2.666  13.609  20.700  0.00  0.00    +0.000 C 
ENDBRANCH  23  26
ENDBRANCH   3  23
TORSDOF 7
ENDMDL
MODEL 9
REMARK VINA RESULT:      -7.8      3.158      8.357
REMARK  Name = 
REMARK  8 active torsions:
REMARK  status: ('A' for Active; 'I' for Inactive)
REMARK    1  A    between atoms: C_1  and  C_2
REMARK    2  A    between atoms: C_2  and  O_3
REMARK    3  A    between atoms: O_3  and  C_4
REMARK    4  A    between atoms: C_4  and  C_6
REMARK    5  A    between atoms: C_11  and  N_12
REMARK    6  A    between atoms: C_13  and  C_15
REMARK    7  A    between atoms: C_17  and  S_18
REMARK    8  A    between atoms: S_18  and  N_21
REMARK                            x       y       z     vdW  Elec       q    Type
REMARK                         _______ _______ _______ _____ _____    ______ ____
ROOT
ATOM      1  C   UNL     1       2.136   7.848  19.094  0.00  0.00    +0.000 A 
ATOM      2  C   UNL     1       2.987   6.990  18.375  0.00  0.00    +0.000 A 
ATOM      3  C   UNL     1       3.205   5.686  18.824  0.00  0.00    +0.000 A 
ATOM      4  C   UNL     1       2.615   5.233  20.008  0.00  0.00    +0.000 A 
ATOM      5  C   UNL     1       1.772   6.084  20.724  0.00  0.00    +0.000 A 
ATOM      6  C   UNL     1       1.529   7.376  20.259  0.00  0.00    +0.000 A 
ATOM      7  F   UNL     1       0.684   8.144  20.962  0.00  0.00    +0.000 F 
ENDROOT
BRANCH   1   9
ATOM      8  N   UNL     1       1.847  10.269  19.415  0.00  0.00    +0.000 N 
ATOM      9  C   UNL     1       1.879   9.204  18.532  0.00  0.00    +0.000 C 
ATOM     10  O   UNL     1       1.721   9.282  17.319  0.00  0.00    +0.000 OA
ATOM     11  H   UNL     1       2.243  10.136  20.344  0.00  0.00    +0.000 HD
BRANCH   8  17
ATOM     12  C   UNL     1       0.043  11.968  19.325  0.00  0.00    +0.000 A 
ATOM     13  C   UNL     1      -0.361  13.274  18.978  0.00  0.00    +0.000 A 
ATOM     14  C   UNL     1       0.539  14.193  18.447  0.00  0.00    +0.000 A 
ATOM     15  C   UNL     1       1.858  13.819  18.248  0.00  0.00    +0.000 A 
ATOM     16  C   UNL     1       2.274  12.528  18.578  0.00  0.00    +0.000 A 
ATOM     17  C   UNL     1       1.391  11.585  19.126  0.00  0.00    +0.000 A 
BRANCH  12  18
ATOM     18  C   UNL     1      -1.021  11.139  19.981  0.00  0.00    +0.000 C 
ATOM     19  O   UNL     1      -1.401  10.072  19.524  0.00  0.00    +0.000 OA
BRANCH  18  20
ATOM     20  O   UNL     1      -1.562  11.768  21.050  0.00  0.00    +0.000 OA
BRANCH  20  22
ATOM     21  C   UNL     1      -0.848  10.473  22.924  0.00  0.00    +0.000 C 
ATOM     22  C   UNL     1      -0.725  11.811  22.218  0.00  0.00    +0.000 C 
ENDBRANCH  20  22
ENDBRANCH  18  20
ENDBRANCH  12  18
ENDBRANCH   8  17
ENDBRANCH   1   9
BRANCH   3  23
ATOM     23  S   UNL     1       4.245   4.600  17.878  0.00  0.00    +0.000 S 
ATOM     24  O   UNL     1       5.015   3.824  18.823  0.00  0.00    +0.000 OA
ATOM     25  O   UNL     1       3.407   3.953  16.893  0.00  0.00    +0.000 OA
BRANCH  23  26
ATOM     26  N   UNL     1       5.313   5.649  17.056  0.00  0.00    +0.000 NA
ATOM     27  C   UNL     1       5.617   5.364  15.619  0.00  0.00    +0.000 C 
ATOM     28  C   UNL     1       6.625   4.220  15.464  0.00  0.00    +0.000 C 
ATOM     29  O   UNL     1       7.833   4.474  16.195  0.00  0.00    +0.000 OA
ATOM     30  C   UNL     1       7.573   4.713  17.588  0.00  0.00    +0.000 C 
ATOM     31  C   UNL     1       6.609   5.891  17.780  0.00  0.00    +0.000 C 
ENDBRANCH  23  26
ENDBRANCH   3  23
TORSDOF 7
ENDMDL
