MODEL 1
REMARK VINA RESULT:      -8.9      0.000      0.000
REMARK  Name = 
REMARK  7 active torsions:
REMARK  status: ('A' for Active; 'I' for Inactive)
REMARK    1  A    between atoms: C_1  and  O_2
REMARK    2  A    between atoms: O_2  and  C_3
REMARK    3  A    between atoms: C_7  and  N_8
REMARK    4  A    between atoms: N_8  and  C_9
REMARK    5  A    between atoms: C_12  and  N_13
REMARK    6  A    between atoms: C_23  and  C_24
REMARK    7  A    between atoms: C_24  and  C_25
REMARK                            x       y       z     vdW  Elec       q    Type
REMARK                         _______ _______ _______ _____ _____    ______ ____
ROOT
ATOM      1  C   UNL     1       3.367   5.699  19.252  0.00  0.00    +0.000 A 
ATOM      2  N   UNL     1       4.351   6.334  18.478  0.00  0.00    +0.000 N 
ATOM      3  C   UNL     1       5.010   5.643  17.427  0.00  0.00    +0.000 A 
ATOM      4  C   UNL     1       6.294   5.903  16.931  0.00  0.00    +0.000 A 
ATOM      5  C   UNL     1       6.768   5.241  15.777  0.00  0.00    +0.000 A 
ATOM      6  C   UNL     1       5.952   4.328  15.104  0.00  0.00    +0.000 A 
ATOM      7 CL   UNL     1       6.522   3.545  13.686  0.00  0.00    +0.000 Cl
ATOM      8  C   UNL     1       4.705   4.004  15.608  0.00  0.00    +0.000 A 
ATOM      9  C   UNL     1       4.286   4.628  16.782  0.00  0.00    +0.000 A 
ATOM     10  C   UNL     1       3.100   4.139  17.482  0.00  0.00    +0.000 A 
ATOM     11  O   UNL     1       2.194   3.578  16.882  0.00  0.00    +0.000 OA
ATOM     12  C   UNL     1       3.082   4.404  18.942  0.00  0.00    +0.000 A 
ATOM     13  H   UNL     1       4.929   6.998  19.000  0.00  0.00    +0.000 HD
ENDROOT
BRANCH   4  14
ATOM     14  N   UNL     1       7.230   6.754  17.674  0.00  0.00    +0.000 N 
ATOM     15  O   UNL     1       7.585   6.375  18.802  0.00  0.00    +0.000 OA
ATOM     16  O   UNL     1       7.640   7.782  17.121  0.00  0.00    +0.000 OA
ENDBRANCH   4  14
BRANCH  12  17
ATOM     17  C   UNL     1       2.734   3.329  19.906  0.00  0.00    +0.000 C 
ATOM     18  C   UNL     1       1.309   3.176  20.377  0.00  0.00    +0.000 C 
ATOM     19  O   UNL     1       3.622   2.663  20.440  0.00  0.00    +0.000 OA
ENDBRANCH  12  17
BRANCH   1  20
ATOM     20  N   UNL     1       2.783   6.375  20.317  0.00  0.00    +0.000 N 
ATOM     21  H   UNL     1       3.385   6.454  21.133  0.00  0.00    +0.000 HD
BRANCH  20  26
ATOM     22  C   UNL     1       0.917   9.542  21.142  0.00  0.00    +0.000 A 
ATOM     23  C   UNL     1       0.800  10.109  19.880  0.00  0.00    +0.000 A 
ATOM     24  C   UNL     1       1.249   9.407  18.760  0.00  0.00    +0.000 A 
ATOM     25  C   UNL     1       1.863   8.155  18.908  0.00  0.00    +0.000 A 
ATOM     26  C   UNL     1       1.989   7.561  20.171  0.00  0.00    +0.000 A 
ATOM     27  C   UNL     1       1.435   8.252  21.265  0.00  0.00    +0.000 A 
BRANCH  22  29
ATOM     28  C   UNL     1      -0.207   9.607  23.218  0.00  0.00    +0.000 C 
ATOM     29  O   UNL     1       0.510  10.312  22.199  0.00  0.00    +0.000 OA
ENDBRANCH  22  29
ENDBRANCH  20  26
ENDBRANCH   1  20
TORSDOF 5
ENDMDL
MODEL 2
REMARK VINA RESULT:      -8.9      1.011      1.067
REMARK  Name = 
REMARK  7 active torsions:
REMARK  status: ('A' for Active; 'I' for Inactive)
REMARK    1  A    between atoms: C_1  and  O_2
REMARK    2  A    between atoms: O_2  and  C_3
REMARK    3  A    between atoms: C_7  and  N_8
REMARK    4  A    between atoms: N_8  and  C_9
REMARK    5  A    between atoms: C_12  and  N_13
REMARK    6  A    between atoms: C_23  and  C_24
REMARK    7  A    between atoms: C_24  and  C_25
REMARK                            x       y       z     vdW  Elec       q    Type
REMARK                         _______ _______ _______ _____ _____    ______ ____
ROOT
ATOM      1  C   UNL     1       2.878   5.768  19.669  0.00  0.00    +0.000 A 
ATOM      2  N   UNL     1       4.104   6.204  19.139  0.00  0.00    +0.000 N 
ATOM      3  C   UNL     1       4.761   5.464  18.121  0.00  0.00    +0.000 A 
ATOM      4  C   UNL     1       6.137   5.439  17.861  0.00  0.00    +0.000 A 
ATOM      5  C   UNL     1       6.643   4.782  16.718  0.00  0.00    +0.000 A 
ATOM      6  C   UNL     1       5.771   4.162  15.820  0.00  0.00    +0.000 A 
ATOM      7 CL   UNL     1       6.388   3.387  14.416  0.00  0.00    +0.000 Cl
ATOM      8  C   UNL     1       4.415   4.115  16.084  0.00  0.00    +0.000 A 
ATOM      9  C   UNL     1       3.949   4.720  17.251  0.00  0.00    +0.000 A 
ATOM     10  C   UNL     1       2.577   4.482  17.695  0.00  0.00    +0.000 A 
ATOM     11  O   UNL     1       1.688   4.217  16.899  0.00  0.00    +0.000 OA
ATOM     12  C   UNL     1       2.362   4.616  19.158  0.00  0.00    +0.000 A 
ATOM     13  H   UNL     1       4.717   6.656  19.822  0.00  0.00    +0.000 HD
ENDROOT
BRANCH   4  14
ATOM     14  N   UNL     1       7.097   5.963  18.840  0.00  0.00    +0.000 N 
ATOM     15  O   UNL     1       7.113   5.447  19.968  0.00  0.00    +0.000 OA
ATOM     16  O   UNL     1       7.861   6.866  18.473  0.00  0.00    +0.000 OA
ENDBRANCH   4  14
BRANCH  12  17
ATOM     17  C   UNL     1       1.611   3.582  19.914  0.00  0.00    +0.000 C 
ATOM     18  C   UNL     1       1.763   2.126  19.548  0.00  0.00    +0.000 C 
ATOM     19  O   UNL     1       0.750   3.913  20.730  0.00  0.00    +0.000 OA
ENDBRANCH  12  17
BRANCH   1  20
ATOM     20  N   UNL     1       2.287   6.473  20.710  0.00  0.00    +0.000 N 
ATOM     21  H   UNL     1       2.827   6.466  21.571  0.00  0.00    +0.000 HD
BRANCH  20  26
ATOM     22  C   UNL     1       0.743   9.819  21.497  0.00  0.00    +0.000 A 
ATOM     23  C   UNL     1       0.743  10.405  20.239  0.00  0.00    +0.000 A 
ATOM     24  C   UNL     1       1.159   9.667  19.130  0.00  0.00    +0.000 A 
ATOM     25  C   UNL     1       1.627   8.355  19.287  0.00  0.00    +0.000 A 
ATOM     26  C   UNL     1       1.633   7.741  20.547  0.00  0.00    +0.000 A 
ATOM     27  C   UNL     1       1.112   8.479  21.626  0.00  0.00    +0.000 A 
BRANCH  22  29
ATOM     28  C   UNL     1      -0.896  10.316  23.124  0.00  0.00    +0.000 C 
ATOM     29  O   UNL     1       0.379  10.620  22.547  0.00  0.00    +0.000 OA
ENDBRANCH  22  29
ENDBRANCH  20  26
ENDBRANCH   1  20
TORSDOF 5
ENDMDL
MODEL 3
REMARK VINA RESULT:      -8.7      1.351      1.894
REMARK  Name = 
REMARK  7 active torsions:
REMARK  status: ('A' for Active; 'I' for Inactive)
REMARK    1  A    between atoms: C_1  and  O_2
REMARK    2  A    between atoms: O_2  and  C_3
REMARK    3  A    between atoms: C_7  and  N_8
REMARK    4  A    between atoms: N_8  and  C_9
REMARK    5  A    between atoms: C_12  and  N_13
REMARK    6  A    between atoms: C_23  and  C_24
REMARK    7  A    between atoms: C_24  and  C_25
REMARK                            x       y       z     vdW  Elec       q    Type
REMARK                         _______ _______ _______ _____ _____    ______ ____
ROOT
ATOM      1  C   UNL     1       2.872   5.569  19.734  0.00  0.00    +0.000 A 
ATOM      2  N   UNL     1       4.079   6.063  19.211  0.00  0.00    +0.000 N 
ATOM      3  C   UNL     1       4.741   5.392  18.149  0.00  0.00    +0.000 A 
ATOM      4  C   UNL     1       6.114   5.416  17.871  0.00  0.00    +0.000 A 
ATOM      5  C   UNL     1       6.620   4.831  16.690  0.00  0.00    +0.000 A 
ATOM      6  C   UNL     1       5.753   4.232  15.773  0.00  0.00    +0.000 A 
ATOM      7 CL   UNL     1       6.370   3.544  14.325  0.00  0.00    +0.000 Cl
ATOM      8  C   UNL     1       4.402   4.136  16.053  0.00  0.00    +0.000 A 
ATOM      9  C   UNL     1       3.937   4.670  17.253  0.00  0.00    +0.000 A 
ATOM     10  C   UNL     1       2.578   4.374  17.703  0.00  0.00    +0.000 A 
ATOM     11  O   UNL     1       1.684   4.125  16.906  0.00  0.00    +0.000 OA
ATOM     12  C   UNL     1       2.380   4.430  19.173  0.00  0.00    +0.000 A 
ATOM     13  H   UNL     1       4.689   6.497  19.907  0.00  0.00    +0.000 HD
ENDROOT
BRANCH   4  14
ATOM     14  N   UNL     1       7.074   5.918  18.861  0.00  0.00    +0.000 N 
ATOM     15  O   UNL     1       7.059   5.405  19.992  0.00  0.00    +0.000 OA
ATOM     16  O   UNL     1       7.867   6.798  18.504  0.00  0.00    +0.000 OA
ENDBRANCH   4  14
BRANCH  12  17
ATOM     17  C   UNL     1       1.666   3.340  19.886  0.00  0.00    +0.000 C 
ATOM     18  C   UNL     1       1.770   1.921  19.384  0.00  0.00    +0.000 C 
ATOM     19  O   UNL     1       0.870   3.606  20.787  0.00  0.00    +0.000 OA
ENDBRANCH  12  17
BRANCH   1  20
ATOM     20  N   UNL     1       2.278   6.206  20.816  0.00  0.00    +0.000 N 
ATOM     21  H   UNL     1       2.817   6.146  21.675  0.00  0.00    +0.000 HD
BRANCH  20  26
ATOM     22  C   UNL     1       1.003   9.480  19.455  0.00  0.00    +0.000 A 
ATOM     23  C   UNL     1       0.006   9.771  20.376  0.00  0.00    +0.000 A 
ATOM     24  C   UNL     1      -0.177   8.944  21.485  0.00  0.00    +0.000 A 
ATOM     25  C   UNL     1       0.606   7.792  21.646  0.00  0.00    +0.000 A 
ATOM     26  C   UNL     1       1.621   7.479  20.731  0.00  0.00    +0.000 A 
ATOM     27  C   UNL     1       1.844   8.389  19.682  0.00  0.00    +0.000 A 
BRANCH  22  29
ATOM     28  C   UNL     1       1.531  11.633  18.640  0.00  0.00    +0.000 C 
ATOM     29  O   UNL     1       1.087  10.301  18.362  0.00  0.00    +0.000 OA
ENDBRANCH  22  29
ENDBRANCH  20  26
ENDBRANCH   1  20
TORSDOF 5
ENDMDL
MODEL 4
REMARK VINA RESULT:      -8.4      1.009      1.668
REMARK  Name = 
REMARK  7 active torsions:
REMARK  status: ('A' for Active; 'I' for Inactive)
REMARK    1  A    between atoms: C_1  and  O_2
REMARK    2  A    between atoms: O_2  and  C_3
REMARK    3  A    between atoms: C_7  and  N_8
REMARK    4  A    between atoms: N_8  and  C_9
REMARK    5  A    between atoms: C_12  and  N_13
REMARK    6  A    between atoms: C_23  and  C_24
REMARK    7  A    between atoms: C_24  and  C_25
REMARK                            x       y       z     vdW  Elec       q    Type
REMARK                         _______ _______ _______ _____ _____    ______ ____
ROOT
ATOM      1  C   UNL     1       3.347   5.654  19.284  0.00  0.00    +0.000 A 
ATOM      2  N   UNL     1       4.305   6.320  18.502  0.00  0.00    +0.000 N 
ATOM      3  C   UNL     1       4.953   5.660  17.426  0.00  0.00    +0.000 A 
ATOM      4  C   UNL     1       6.222   5.950  16.908  0.00  0.00    +0.000 A 
ATOM      5  C   UNL     1       6.682   5.317  15.732  0.00  0.00    +0.000 A 
ATOM      6  C   UNL     1       5.868   4.403  15.060  0.00  0.00    +0.000 A 
ATOM      7 CL   UNL     1       6.422   3.656  13.616  0.00  0.00    +0.000 Cl
ATOM      8  C   UNL     1       4.638   4.049  15.583  0.00  0.00    +0.000 A 
ATOM      9  C   UNL     1       4.233   4.645  16.776  0.00  0.00    +0.000 A 
ATOM     10  C   UNL     1       3.069   4.123  17.491  0.00  0.00    +0.000 A 
ATOM     11  O   UNL     1       2.160   3.558  16.899  0.00  0.00    +0.000 OA
ATOM     12  C   UNL     1       3.076   4.360  18.956  0.00  0.00    +0.000 A 
ATOM     13  H   UNL     1       4.882   6.984  19.024  0.00  0.00    +0.000 HD
ENDROOT
BRANCH   4  14
ATOM     14  N   UNL     1       7.159   6.802  17.648  0.00  0.00    +0.000 N 
ATOM     15  O   UNL     1       7.518   6.425  18.775  0.00  0.00    +0.000 OA
ATOM     16  O   UNL     1       7.567   7.831  17.093  0.00  0.00    +0.000 OA
ENDBRANCH   4  14
BRANCH  12  17
ATOM     17  C   UNL     1       2.766   3.262  19.906  0.00  0.00    +0.000 C 
ATOM     18  C   UNL     1       1.341   3.028  20.342  0.00  0.00    +0.000 C 
ATOM     19  O   UNL     1       3.677   2.644  20.458  0.00  0.00    +0.000 OA
ENDBRANCH  12  17
BRANCH   1  20
ATOM     20  N   UNL     1       2.774   6.300  20.373  0.00  0.00    +0.000 N 
ATOM     21  H   UNL     1       3.355   6.294  21.207  0.00  0.00    +0.000 HD
BRANCH  20  26
ATOM     22  C   UNL     1       0.863   9.219  18.950  0.00  0.00    +0.000 A 
ATOM     23  C   UNL     1       0.292   9.740  20.103  0.00  0.00    +0.000 A 
ATOM     24  C   UNL     1       0.612   9.190  21.345  0.00  0.00    +0.000 A 
ATOM     25  C   UNL     1       1.467   8.082  21.430  0.00  0.00    +0.000 A 
ATOM     26  C   UNL     1       2.058   7.541  20.280  0.00  0.00    +0.000 A 
ATOM     27  C   UNL     1       1.792   8.183  19.057  0.00  0.00    +0.000 A 
BRANCH  22  29
ATOM     28  C   UNL     1      -0.902  10.214  17.736  0.00  0.00    +0.000 C 
ATOM     29  O   UNL     1       0.458   9.769  17.762  0.00  0.00    +0.000 OA
ENDBRANCH  22  29
ENDBRANCH  20  26
ENDBRANCH   1  20
TORSDOF 5
ENDMDL
MODEL 5
REMARK VINA RESULT:      -8.2      3.521      7.659
REMARK  Name = 
REMARK  7 active torsions:
REMARK  status: ('A' for Active; 'I' for Inactive)
REMARK    1  A    between atoms: C_1  and  O_2
REMARK    2  A    between atoms: O_2  and  C_3
REMARK    3  A    between atoms: C_7  and  N_8
REMARK    4  A    between atoms: N_8  and  C_9
REMARK    5  A    between atoms: C_12  and  N_13
REMARK    6  A    between atoms: C_23  and  C_24
REMARK    7  A    between atoms: C_24  and  C_25
REMARK                            x       y       z     vdW  Elec       q    Type
REMARK                         _______ _______ _______ _____ _____    ______ ____
ROOT
ATOM      1  C   UNL     1       6.257   4.781  16.772  0.00  0.00    +0.000 A 
ATOM      2  N   UNL     1       5.343   3.812  17.215  0.00  0.00    +0.000 N 
ATOM      3  C   UNL     1       4.328   4.142  18.151  0.00  0.00    +0.000 A 
ATOM      4  C   UNL     1       3.707   3.270  19.055  0.00  0.00    +0.000 A 
ATOM      5  C   UNL     1       2.600   3.696  19.822  0.00  0.00    +0.000 A 
ATOM      6  C   UNL     1       2.099   4.991  19.675  0.00  0.00    +0.000 A 
ATOM      7 CL   UNL     1       0.736   5.496  20.591  0.00  0.00    +0.000 Cl
ATOM      8  C   UNL     1       2.731   5.893  18.838  0.00  0.00    +0.000 A 
ATOM      9  C   UNL     1       3.857   5.464  18.138  0.00  0.00    +0.000 A 
ATOM     10  C   UNL     1       4.697   6.440  17.445  0.00  0.00    +0.000 A 
ATOM     11  O   UNL     1       4.235   7.491  17.023  0.00  0.00    +0.000 OA
ATOM     12  C   UNL     1       6.116   6.038  17.279  0.00  0.00    +0.000 A 
ATOM     13  H   UNL     1       5.742   2.874  17.310  0.00  0.00    +0.000 HD
ENDROOT
BRANCH   4  14
ATOM     14  N   UNL     1       4.277   1.948  19.336  0.00  0.00    +0.000 N 
ATOM     15  O   UNL     1       4.007   1.024  18.553  0.00  0.00    +0.000 OA
ATOM     16  O   UNL     1       5.022   1.836  20.318  0.00  0.00    +0.000 OA
ENDBRANCH   4  14
BRANCH  12  17
ATOM     17  C   UNL     1       7.216   6.978  17.609  0.00  0.00    +0.000 C 
ATOM     18  C   UNL     1       8.094   6.714  18.807  0.00  0.00    +0.000 C 
ATOM     19  O   UNL     1       7.319   8.048  17.008  0.00  0.00    +0.000 OA
ENDBRANCH  12  17
BRANCH   1  20
ATOM     20  N   UNL     1       7.282   4.419  15.907  0.00  0.00    +0.000 N 
ATOM     21  H   UNL     1       7.875   3.673  16.262  0.00  0.00    +0.000 HD
BRANCH  20  26
ATOM     22  C   UNL     1       5.844   3.497  12.548  0.00  0.00    +0.000 A 
ATOM     23  C   UNL     1       6.539   4.370  11.722  0.00  0.00    +0.000 A 
ATOM     24  C   UNL     1       7.539   5.184  12.257  0.00  0.00    +0.000 A 
ATOM     25  C   UNL     1       7.808   5.163  13.633  0.00  0.00    +0.000 A 
ATOM     26  C   UNL     1       7.121   4.289  14.487  0.00  0.00    +0.000 A 
ATOM     27  C   UNL     1       6.193   3.411  13.897  0.00  0.00    +0.000 A 
BRANCH  22  29
ATOM     28  C   UNL     1       4.021   3.504  11.047  0.00  0.00    +0.000 C 
ATOM     29  O   UNL     1       4.838   2.772  11.967  0.00  0.00    +0.000 OA
ENDBRANCH  22  29
ENDBRANCH  20  26
ENDBRANCH   1  20
TORSDOF 5
ENDMDL
MODEL 6
REMARK VINA RESULT:      -8.2      3.313      6.602
REMARK  Name = 
REMARK  7 active torsions:
REMARK  status: ('A' for Active; 'I' for Inactive)
REMARK    1  A    between atoms: C_1  and  O_2
REMARK    2  A    between atoms: O_2  and  C_3
REMARK    3  A    between atoms: C_7  and  N_8
REMARK    4  A    between atoms: N_8  and  C_9
REMARK    5  A    between atoms: C_12  and  N_13
REMARK    6  A    between atoms: C_23  and  C_24
REMARK    7  A    between atoms: C_24  and  C_25
REMARK                            x       y       z     vdW  Elec       q    Type
REMARK                         _______ _______ _______ _____ _____    ______ ____
ROOT
ATOM      1  C   UNL     1       3.010   6.018  18.410  0.00  0.00    +0.000 A 
ATOM      2  N   UNL     1       2.935   7.399  18.655  0.00  0.00    +0.000 N 
ATOM      3  C   UNL     1       1.957   7.930  19.536  0.00  0.00    +0.000 A 
ATOM      4  C   UNL     1       1.412   9.221  19.501  0.00  0.00    +0.000 A 
ATOM      5  C   UNL     1       0.561   9.672  20.533  0.00  0.00    +0.000 A 
ATOM      6  C   UNL     1       0.264   8.839  21.614  0.00  0.00    +0.000 A 
ATOM      7 CL   UNL     1      -0.751   9.401  22.881  0.00  0.00    +0.000 Cl
ATOM      8  C   UNL     1       0.735   7.539  21.643  0.00  0.00    +0.000 A 
ATOM      9  C   UNL     1       1.524   7.100  20.582  0.00  0.00    +0.000 A 
ATOM     10  C   UNL     1       1.832   5.678  20.444  0.00  0.00    +0.000 A 
ATOM     11  O   UNL     1       1.877   4.940  21.418  0.00  0.00    +0.000 OA
ATOM     12  C   UNL     1       2.107   5.229  19.056  0.00  0.00    +0.000 A 
ATOM     13  H   UNL     1       3.161   7.980  17.844  0.00  0.00    +0.000 HD
ENDROOT
BRANCH   4  14
ATOM     14  N   UNL     1       1.591  10.081  18.325  0.00  0.00    +0.000 N 
ATOM     15  O   UNL     1       1.508  11.309  18.490  0.00  0.00    +0.000 OA
ATOM     16  O   UNL     1       1.851   9.537  17.245  0.00  0.00    +0.000 OA
ENDBRANCH   4  14
BRANCH  12  17
ATOM     17  C   UNL     1       1.461   4.008  18.510  0.00  0.00    +0.000 C 
ATOM     18  C   UNL     1       0.909   2.966  19.451  0.00  0.00    +0.000 C 
ATOM     19  O   UNL     1       1.512   3.767  17.304  0.00  0.00    +0.000 OA
ENDBRANCH  12  17
BRANCH   1  20
ATOM     20  N   UNL     1       3.933   5.528  17.495  0.00  0.00    +0.000 N 
ATOM     21  H   UNL     1       3.645   5.633  16.525  0.00  0.00    +0.000 HD
BRANCH  20  26
ATOM     22  C   UNL     1       7.337   7.142  17.431  0.00  0.00    +0.000 A 
ATOM     23  C   UNL     1       8.056   6.259  18.225  0.00  0.00    +0.000 A 
ATOM     24  C   UNL     1       7.446   5.095  18.696  0.00  0.00    +0.000 A 
ATOM     25  C   UNL     1       6.096   4.840  18.414  0.00  0.00    +0.000 A 
ATOM     26  C   UNL     1       5.351   5.714  17.612  0.00  0.00    +0.000 A 
ATOM     27  C   UNL     1       6.026   6.824  17.072  0.00  0.00    +0.000 A 
BRANCH  22  29
ATOM     28  C   UNL     1       8.233   9.217  18.116  0.00  0.00    +0.000 C 
ATOM     29  O   UNL     1       7.981   8.291  17.054  0.00  0.00    +0.000 OA
ENDBRANCH  22  29
ENDBRANCH  20  26
ENDBRANCH   1  20
TORSDOF 5
ENDMDL
MODEL 7
REMARK VINA RESULT:      -8.1      3.208      6.651
REMARK  Name = 
REMARK  7 active torsions:
REMARK  status: ('A' for Active; 'I' for Inactive)
REMARK    1  A    between atoms: C_1  and  O_2
REMARK    2  A    between atoms: O_2  and  C_3
REMARK    3  A    between atoms: C_7  and  N_8
REMARK    4  A    between atoms: N_8  and  C_9
REMARK    5  A    between atoms: C_12  and  N_13
REMARK    6  A    between atoms: C_23  and  C_24
REMARK    7  A    between atoms: C_24  and  C_25
REMARK                            x       y       z     vdW  Elec       q    Type
REMARK                         _______ _______ _______ _____ _____    ______ ____
ROOT
ATOM      1  C   UNL     1       2.701   5.527  18.107  0.00  0.00    +0.000 A 
ATOM      2  N   UNL     1       2.668   6.928  18.201  0.00  0.00    +0.000 N 
ATOM      3  C   UNL     1       1.964   7.571  19.252  0.00  0.00    +0.000 A 
ATOM      4  C   UNL     1       1.404   8.855  19.221  0.00  0.00    +0.000 A 
ATOM      5  C   UNL     1       0.865   9.434  20.391  0.00  0.00    +0.000 A 
ATOM      6  C   UNL     1       0.900   8.738  21.602  0.00  0.00    +0.000 A 
ATOM      7 CL   UNL     1       0.267   9.457  23.028  0.00  0.00    +0.000 Cl
ATOM      8  C   UNL     1       1.387   7.444  21.648  0.00  0.00    +0.000 A 
ATOM      9  C   UNL     1       1.858   6.875  20.466  0.00  0.00    +0.000 A 
ATOM     10  C   UNL     1       2.145   5.442  20.414  0.00  0.00    +0.000 A 
ATOM     11  O   UNL     1       2.476   4.823  21.415  0.00  0.00    +0.000 OA
ATOM     12  C   UNL     1       2.031   4.830  19.067  0.00  0.00    +0.000 A 
ATOM     13  H   UNL     1       2.646   7.407  17.297  0.00  0.00    +0.000 HD
ENDROOT
BRANCH   4  14
ATOM     14  N   UNL     1       1.229   9.569  17.952  0.00  0.00    +0.000 N 
ATOM     15  O   UNL     1       0.081   9.926  17.642  0.00  0.00    +0.000 OA
ATOM     16  O   UNL     1       2.240   9.807  17.279  0.00  0.00    +0.000 OA
ENDBRANCH   4  14
BRANCH  12  17
ATOM     17  C   UNL     1       1.284   3.562  18.868  0.00  0.00    +0.000 C 
ATOM     18  C   UNL     1       0.675   2.856  20.054  0.00  0.00    +0.000 C 
ATOM     19  O   UNL     1       1.292   3.003  17.771  0.00  0.00    +0.000 OA
ENDBRANCH  12  17
BRANCH   1  20
ATOM     20  N   UNL     1       3.341   4.922  17.032  0.00  0.00    +0.000 N 
ATOM     21  H   UNL     1       2.856   5.038  16.146  0.00  0.00    +0.000 HD
BRANCH  20  26
ATOM     22  C   UNL     1       7.047   4.763  17.694  0.00  0.00    +0.000 A 
ATOM     23  C   UNL     1       7.532   4.592  16.404  0.00  0.00    +0.000 A 
ATOM     24  C   UNL     1       6.651   4.626  15.322  0.00  0.00    +0.000 A 
ATOM     25  C   UNL     1       5.274   4.778  15.535  0.00  0.00    +0.000 A 
ATOM     26  C   UNL     1       4.761   4.955  16.827  0.00  0.00    +0.000 A 
ATOM     27  C   UNL     1       5.688   5.018  17.884  0.00  0.00    +0.000 A 
BRANCH  22  29
ATOM     28  C   UNL     1       7.907   5.714  19.677  0.00  0.00    +0.000 C 
ATOM     29  O   UNL     1       7.959   4.659  18.711  0.00  0.00    +0.000 OA
ENDBRANCH  22  29
ENDBRANCH  20  26
ENDBRANCH   1  20
TORSDOF 5
ENDMDL
MODEL 8
REMARK VINA RESULT:      -8.1      3.409      7.761
REMARK  Name = 
REMARK  7 active torsions:
REMARK  status: ('A' for Active; 'I' for Inactive)
REMARK    1  A    between atoms: C_1  and  O_2
REMARK    2  A    between atoms: O_2  and  C_3
REMARK    3  A    between atoms: C_7  and  N_8
REMARK    4  A    between atoms: N_8  and  C_9
REMARK    5  A    between atoms: C_12  and  N_13
REMARK    6  A    between atoms: C_23  and  C_24
REMARK    7  A    between atoms: C_24  and  C_25
REMARK                            x       y       z     vdW  Elec       q    Type
REMARK                         _______ _______ _______ _____ _____    ______ ____
ROOT
ATOM      1  C   UNL     1       5.288   3.990  16.794  0.00  0.00    +0.000 A 
ATOM      2  N   UNL     1       3.940   3.751  17.110  0.00  0.00    +0.000 N 
ATOM      3  C   UNL     1       3.301   4.462  18.159  0.00  0.00    +0.000 A 
ATOM      4  C   UNL     1       2.212   4.025  18.924  0.00  0.00    +0.000 A 
ATOM      5  C   UNL     1       1.573   4.897  19.833  0.00  0.00    +0.000 A 
ATOM      6  C   UNL     1       2.011   6.216  19.968  0.00  0.00    +0.000 A 
ATOM      7 CL   UNL     1       1.214   7.281  21.055  0.00  0.00    +0.000 Cl
ATOM      8  C   UNL     1       3.123   6.656  19.274  0.00  0.00    +0.000 A 
ATOM      9  C   UNL     1       3.771   5.757  18.429  0.00  0.00    +0.000 A 
ATOM     10  C   UNL     1       5.081   6.094  17.875  0.00  0.00    +0.000 A 
ATOM     11  O   UNL     1       5.414   7.257  17.691  0.00  0.00    +0.000 OA
ATOM     12  C   UNL     1       5.936   4.929  17.538  0.00  0.00    +0.000 A 
ATOM     13  H   UNL     1       3.651   2.776  16.998  0.00  0.00    +0.000 HD
ENDROOT
BRANCH   4  14
ATOM     14  N   UNL     1       1.800   2.616  18.910  0.00  0.00    +0.000 N 
ATOM     15  O   UNL     1       0.587   2.369  18.825  0.00  0.00    +0.000 OA
ATOM     16  O   UNL     1       2.687   1.754  18.949  0.00  0.00    +0.000 OA
ENDBRANCH   4  14
BRANCH  12  17
ATOM     17  C   UNL     1       7.359   4.881  17.961  0.00  0.00    +0.000 C 
ATOM     18  C   UNL     1       7.842   5.785  19.068  0.00  0.00    +0.000 C 
ATOM     19  O   UNL     1       8.177   4.226  17.315  0.00  0.00    +0.000 OA
ENDBRANCH  12  17
BRANCH   1  20
ATOM     20  N   UNL     1       5.910   3.235  15.807  0.00  0.00    +0.000 N 
ATOM     21  H   UNL     1       5.581   2.275  15.756  0.00  0.00    +0.000 HD
BRANCH  20  26
ATOM     22  C   UNL     1       7.569   5.100  12.985  0.00  0.00    +0.000 A 
ATOM     23  C   UNL     1       7.090   4.392  11.891  0.00  0.00    +0.000 A 
ATOM     24  C   UNL     1       6.155   3.372  12.080  0.00  0.00    +0.000 A 
ATOM     25  C   UNL     1       5.738   3.025  13.373  0.00  0.00    +0.000 A 
ATOM     26  C   UNL     1       6.205   3.728  14.492  0.00  0.00    +0.000 A 
ATOM     27  C   UNL     1       7.068   4.814  14.256  0.00  0.00    +0.000 A 
BRANCH  22  29
ATOM     28  C   UNL     1       8.409   6.700  11.463  0.00  0.00    +0.000 C 
ATOM     29  O   UNL     1       8.527   6.046  12.731  0.00  0.00    +0.000 OA
ENDBRANCH  22  29
ENDBRANCH  20  26
ENDBRANCH   1  20
TORSDOF 5
ENDMDL
MODEL 9
REMARK VINA RESULT:      -8.1      3.145      6.678
REMARK  Name = 
REMARK  7 active torsions:
REMARK  status: ('A' for Active; 'I' for Inactive)
REMARK    1  A    between atoms: C_1  and  O_2
REMARK    2  A    between atoms: O_2  and  C_3
REMARK    3  A    between atoms: C_7  and  N_8
REMARK    4  A    between atoms: N_8  and  C_9
REMARK    5  A    between atoms: C_12  and  N_13
REMARK    6  A    between atoms: C_23  and  C_24
REMARK    7  A    between atoms: C_24  and  C_25
REMARK                            x       y       z     vdW  Elec       q    Type
REMARK                         _______ _______ _______ _____ _____    ______ ____
ROOT
ATOM      1  C   UNL     1       4.012   4.244  18.901  0.00  0.00    +0.000 A 
ATOM      2  N   UNL     1       4.002   5.647  18.853  0.00  0.00    +0.000 N 
ATOM      3  C   UNL     1       2.903   6.386  19.365  0.00  0.00    +0.000 A 
ATOM      4  C   UNL     1       2.490   7.661  18.959  0.00  0.00    +0.000 A 
ATOM      5  C   UNL     1       1.474   8.347  19.661  0.00  0.00    +0.000 A 
ATOM      6  C   UNL     1       0.879   7.767  20.783  0.00  0.00    +0.000 A 
ATOM      7 CL   UNL     1      -0.337   8.616  21.649  0.00  0.00    +0.000 Cl
ATOM      8  C   UNL     1       1.221   6.483  21.168  0.00  0.00    +0.000 A 
ATOM      9  C   UNL     1       2.184   5.806  20.422  0.00  0.00    +0.000 A 
ATOM     10  C   UNL     1       2.393   4.374  20.634  0.00  0.00    +0.000 A 
ATOM     11  O   UNL     1       2.162   3.851  21.714  0.00  0.00    +0.000 OA
ATOM     12  C   UNL     1       2.926   3.640  19.459  0.00  0.00    +0.000 A 
ATOM     13  H   UNL     1       4.448   6.040  18.020  0.00  0.00    +0.000 HD
ENDROOT
BRANCH   4  14
ATOM     14  N   UNL     1       2.993   8.255  17.714  0.00  0.00    +0.000 N 
ATOM     15  O   UNL     1       3.927   7.677  17.135  0.00  0.00    +0.000 OA
ATOM     16  O   UNL     1       2.436   9.277  17.295  0.00  0.00    +0.000 OA
ENDBRANCH   4  14
BRANCH  12  17
ATOM     17  C   UNL     1       2.315   2.359  19.022  0.00  0.00    +0.000 C 
ATOM     18  C   UNL     1       0.815   2.243  18.908  0.00  0.00    +0.000 C 
ATOM     19  O   UNL     1       3.010   1.349  18.904  0.00  0.00    +0.000 OA
ENDBRANCH  12  17
BRANCH   1  20
ATOM     20  N   UNL     1       5.068   3.541  18.334  0.00  0.00    +0.000 N 
ATOM     21  H   UNL     1       4.948   2.532  18.353  0.00  0.00    +0.000 HD
BRANCH  20  26
ATOM     22  C   UNL     1       5.742   4.215  14.689  0.00  0.00    +0.000 A 
ATOM     23  C   UNL     1       6.823   5.082  14.783  0.00  0.00    +0.000 A 
ATOM     24  C   UNL     1       7.380   5.363  16.031  0.00  0.00    +0.000 A 
ATOM     25  C   UNL     1       6.822   4.816  17.195  0.00  0.00    +0.000 A 
ATOM     26  C   UNL     1       5.733   3.937  17.125  0.00  0.00    +0.000 A 
ATOM     27  C   UNL     1       5.262   3.597  15.844  0.00  0.00    +0.000 A 
BRANCH  22  29
ATOM     28  C   UNL     1       6.099   3.443  12.485  0.00  0.00    +0.000 C 
ATOM     29  O   UNL     1       5.210   4.032  13.440  0.00  0.00    +0.000 OA
ENDBRANCH  22  29
ENDBRANCH  20  26
ENDBRANCH   1  20
TORSDOF 5
ENDMDL
