MODEL 1
REMARK VINA RESULT:      -8.0      0.000      0.000
REMARK  Name = 
REMARK  13 active torsions:
REMARK  status: ('A' for Active; 'I' for Inactive)
REMARK    1  A    between atoms: C_7  and  C_8
REMARK    2  A    between atoms: C_8  and  C_9
REMARK    3  A    between atoms: C_9  and  C_10
REMARK    4  A    between atoms: C_10  and  C_11
REMARK    5  A    between atoms: C_11  and  C_12
REMARK    6  A    between atoms: C_15  and  C_16
REMARK    7  A    between atoms: N_18  and  CA_19
REMARK    8  A    between atoms: CA_19  and  CB_20
REMARK    9  A    between atoms: CA_19  and  C_25
REMARK   10  A    between atoms: CB_20  and  CG_21
REMARK   11  A    between atoms: CG_21  and  CD_22
REMARK   12  A    between atoms: CD_22  and  OE2_24
REMARK   13  A    between atoms: C_25  and  OXT_27
REMARK                            x       y       z     vdW  Elec       q    Type
REMARK                         _______ _______ _______ _____ _____    ______ ____
ROOT
ATOM      1  C   UNK A   0       8.211   8.672  18.193  0.00  0.00    +0.000 A 
ATOM      2  C   UNK A   0       8.494   7.542  18.971  0.00  0.00    +0.000 A 
ATOM      3  C   UNK A   0       7.753   6.371  18.813  0.00  0.00    +0.000 A 
ATOM      4  C   UNK A   0       6.715   6.313  17.877  0.00  0.00    +0.000 A 
ATOM      5  C   UNK A   0       6.394   7.454  17.132  0.00  0.00    +0.000 A 
ATOM      6  C   UNK A   0       7.143   8.624  17.287  0.00  0.00    +0.000 A 
ENDROOT
BRANCH   4   7
ATOM      7  C   UNK A   0       5.982   5.028  17.733  0.00  0.00    +0.000 C 
ATOM      8  O   UNK A   0       6.360   4.180  16.931  0.00  0.00    +0.000 OA
ATOM      9  N   GLU A   1       4.867   4.855  18.520  0.00  0.00    +0.000 N 
ATOM     10  H   GLU A   1       4.509   5.620  19.082  0.00  0.00    +0.000 HD
BRANCH   9  11
ATOM     11  CA  GLU A   1       4.060   3.637  18.461  0.00  0.00    +0.000 C 
BRANCH  11  12
ATOM     12  C   GLU A   1       2.758   4.010  17.744  0.00  0.00    +0.000 C 
ATOM     13  O   GLU A   1       2.103   5.008  18.016  0.00  0.00    +0.000 OA
BRANCH  12  14
ATOM     14  OXT GLU A   1       2.402   3.165  16.751  0.00  0.00    +0.000 OA
ATOM     15  HXT GLU A   1       1.480   2.826  16.803  0.00  0.00    +0.000 HD
ENDBRANCH  12  14
ENDBRANCH  11  12
BRANCH  11  16
ATOM     16  CB  GLU A   1       3.774   3.106  19.878  0.00  0.00    +0.000 C 
BRANCH  16  17
ATOM     17  CG  GLU A   1       2.509   2.268  20.004  0.00  0.00    +0.000 C 
BRANCH  17  18
ATOM     18  CD  GLU A   1       1.562   2.881  20.998  0.00  0.00    +0.000 C 
ATOM     19  OE1 GLU A   1       1.732   2.788  22.206  0.00  0.00    +0.000 OA
BRANCH  18  20
ATOM     20  OE2 GLU A   1       0.578   3.612  20.441  0.00  0.00    +0.000 OA
ATOM     21  HE2 GLU A   1      -0.110   3.093  19.982  0.00  0.00    +0.000 HD
ENDBRANCH  18  20
ENDBRANCH  17  18
ENDBRANCH  16  17
ENDBRANCH  11  16
ENDBRANCH   9  11
ENDBRANCH   4   7
BRANCH   1  22
ATOM     22  C   UNK A   0       9.034   9.927  18.340  0.00  0.00    +0.000 C 
BRANCH  22  23
ATOM     23  C   UNK A   0       9.270  10.306  19.806  0.00  0.00    +0.000 C 
BRANCH  23  24
ATOM     24  C   UNK A   0       9.692  11.770  19.919  0.00  0.00    +0.000 C 
BRANCH  24  25
ATOM     25  C   UNK A   0      11.135  11.994  19.461  0.00  0.00    +0.000 C 
BRANCH  25  32
ATOM     26  N   UNK A   0      10.610  18.218  17.083  0.00  0.00    +0.000 N 
ATOM     27  C   UNK A   0      10.755  16.913  17.426  0.00  0.00    +0.000 A 
ATOM     28  N   UNK A   0      10.996  16.025  16.501  0.00  0.00    +0.000 NA
ATOM     29  C   UNK A   0      11.116  14.766  16.976  0.00  0.00    +0.000 A 
ATOM     30  N   UNK A   0      11.370  13.685  16.188  0.00  0.00    +0.000 N 
ATOM     31  C   UNK A   0      11.420  12.557  16.969  0.00  0.00    +0.000 A 
ATOM     32  C   UNK A   0      11.195  12.921  18.291  0.00  0.00    +0.000 A 
ATOM     33  C   UNK A   0      11.015  14.334  18.281  0.00  0.00    +0.000 A 
ATOM     34  C   UNK A   0      10.753  15.337  19.289  0.00  0.00    +0.000 A 
ATOM     35  O   UNK A   0      10.647  15.106  20.490  0.00  0.00    +0.000 OA
ATOM     36  N   UNK A   0      10.635  16.611  18.764  0.00  0.00    +0.000 N 
ATOM     37  H   UNK A   0      10.487  18.328  16.080  0.00  0.00    +0.000 HD
ATOM     38  H   UNK A   0       9.936  18.756  17.619  0.00  0.00    +0.000 HD
ATOM     39  H   UNK A   0      11.492  13.726  15.186  0.00  0.00    +0.000 HD
ATOM     40  H   UNK A   0      10.490  17.345  19.437  0.00  0.00    +0.000 HD
ENDBRANCH  25  32
ENDBRANCH  24  25
ENDBRANCH  23  24
ENDBRANCH  22  23
ENDBRANCH   1  22
TORSDOF 13
ENDMDL
MODEL 2
REMARK VINA RESULT:      -7.8      8.131     10.997
REMARK  Name = 
REMARK  13 active torsions:
REMARK  status: ('A' for Active; 'I' for Inactive)
REMARK    1  A    between atoms: C_7  and  C_8
REMARK    2  A    between atoms: C_8  and  C_9
REMARK    3  A    between atoms: C_9  and  C_10
REMARK    4  A    between atoms: C_10  and  C_11
REMARK    5  A    between atoms: C_11  and  C_12
REMARK    6  A    between atoms: C_15  and  C_16
REMARK    7  A    between atoms: N_18  and  CA_19
REMARK    8  A    between atoms: CA_19  and  CB_20
REMARK    9  A    between atoms: CA_19  and  C_25
REMARK   10  A    between atoms: CB_20  and  CG_21
REMARK   11  A    between atoms: CG_21  and  CD_22
REMARK   12  A    between atoms: CD_22  and  OE2_24
REMARK   13  A    between atoms: C_25  and  OXT_27
REMARK                            x       y       z     vdW  Elec       q    Type
REMARK                         _______ _______ _______ _____ _____    ______ ____
ROOT
ATOM      1  C   UNK A   0       0.989   9.737  19.496  0.00  0.00    +0.000 A 
ATOM      2  C   UNK A   0       1.474   9.552  18.196  0.00  0.00    +0.000 A 
ATOM      3  C   UNK A   0       2.137   8.375  17.849  0.00  0.00    +0.000 A 
ATOM      4  C   UNK A   0       2.330   7.367  18.799  0.00  0.00    +0.000 A 
ATOM      5  C   UNK A   0       1.892   7.566  20.114  0.00  0.00    +0.000 A 
ATOM      6  C   UNK A   0       1.221   8.743  20.456  0.00  0.00    +0.000 A 
ENDROOT
BRANCH   4   7
ATOM      7  C   UNK A   0       3.017   6.123  18.361  0.00  0.00    +0.000 C 
ATOM      8  O   UNK A   0       2.387   5.079  18.221  0.00  0.00    +0.000 OA
ATOM      9  N   GLU A   1       4.373   6.204  18.147  0.00  0.00    +0.000 N 
ATOM     10  H   GLU A   1       4.884   7.045  18.390  0.00  0.00    +0.000 HD
BRANCH   9  11
ATOM     11  CA  GLU A   1       5.158   5.045  17.723  0.00  0.00    +0.000 C 
BRANCH  11  12
ATOM     12  C   GLU A   1       5.789   4.457  18.990  0.00  0.00    +0.000 C 
ATOM     13  O   GLU A   1       6.540   5.087  19.722  0.00  0.00    +0.000 OA
BRANCH  12  14
ATOM     14  OXT GLU A   1       5.417   3.187  19.264  0.00  0.00    +0.000 OA
ATOM     15  HXT GLU A   1       6.158   2.548  19.364  0.00  0.00    +0.000 HD
ENDBRANCH  12  14
ENDBRANCH  11  12
BRANCH  11  16
ATOM     16  CB  GLU A   1       6.244   5.465  16.715  0.00  0.00    +0.000 C 
BRANCH  16  17
ATOM     17  CG  GLU A   1       5.757   5.635  15.283  0.00  0.00    +0.000 C 
BRANCH  17  18
ATOM     18  CD  GLU A   1       6.587   4.813  14.337  0.00  0.00    +0.000 C 
ATOM     19  OE1 GLU A   1       7.493   5.298  13.672  0.00  0.00    +0.000 OA
BRANCH  18  20
ATOM     20  OE2 GLU A   1       6.306   3.496  14.361  0.00  0.00    +0.000 OA
ATOM     21  HE2 GLU A   1       5.738   3.184  13.632  0.00  0.00    +0.000 HD
ENDBRANCH  18  20
ENDBRANCH  17  18
ENDBRANCH  16  17
ENDBRANCH  11  16
ENDBRANCH   9  11
ENDBRANCH   4   7
BRANCH   1  22
ATOM     22  C   UNK A   0       0.241  10.995  19.861  0.00  0.00    +0.000 C 
BRANCH  22  23
ATOM     23  C   UNK A   0       0.460  11.404  21.323  0.00  0.00    +0.000 C 
BRANCH  23  24
ATOM     24  C   UNK A   0      -0.795  11.126  22.149  0.00  0.00    +0.000 C 
BRANCH  24  25
ATOM     25  C   UNK A   0      -1.260  12.359  22.927  0.00  0.00    +0.000 C 
BRANCH  25  32
ATOM     26  N   UNK A   0      -6.882  13.866  19.642  0.00  0.00    +0.000 N 
ATOM     27  C   UNK A   0      -5.829  13.520  20.424  0.00  0.00    +0.000 A 
ATOM     28  N   UNK A   0      -6.033  13.172  21.664  0.00  0.00    +0.000 NA
ATOM     29  C   UNK A   0      -4.902  12.853  22.331  0.00  0.00    +0.000 A 
ATOM     30  N   UNK A   0      -4.882  12.460  23.634  0.00  0.00    +0.000 N 
ATOM     31  C   UNK A   0      -3.585  12.223  24.017  0.00  0.00    +0.000 A 
ATOM     32  C   UNK A   0      -2.751  12.466  22.933  0.00  0.00    +0.000 A 
ATOM     33  C   UNK A   0      -3.606  12.856  21.862  0.00  0.00    +0.000 A 
ATOM     34  C   UNK A   0      -3.405  13.241  20.483  0.00  0.00    +0.000 A 
ATOM     35  O   UNK A   0      -2.314  13.282  19.923  0.00  0.00    +0.000 OA
ATOM     36  N   UNK A   0      -4.585  13.561  19.835  0.00  0.00    +0.000 N 
ATOM     37  H   UNK A   0      -7.719  14.029  20.194  0.00  0.00    +0.000 HD
ATOM     38  H   UNK A   0      -6.718  14.600  18.959  0.00  0.00    +0.000 HD
ATOM     39  H   UNK A   0      -5.704  12.370  24.216  0.00  0.00    +0.000 HD
ATOM     40  H   UNK A   0      -4.493  13.797  18.861  0.00  0.00    +0.000 HD
ENDBRANCH  25  32
ENDBRANCH  24  25
ENDBRANCH  23  24
ENDBRANCH  22  23
ENDBRANCH   1  22
TORSDOF 13
ENDMDL
MODEL 3
REMARK VINA RESULT:      -7.8      7.049     10.453
REMARK  Name = 
REMARK  13 active torsions:
REMARK  status: ('A' for Active; 'I' for Inactive)
REMARK    1  A    between atoms: C_7  and  C_8
REMARK    2  A    between atoms: C_8  and  C_9
REMARK    3  A    between atoms: C_9  and  C_10
REMARK    4  A    between atoms: C_10  and  C_11
REMARK    5  A    between atoms: C_11  and  C_12
REMARK    6  A    between atoms: C_15  and  C_16
REMARK    7  A    between atoms: N_18  and  CA_19
REMARK    8  A    between atoms: CA_19  and  CB_20
REMARK    9  A    between atoms: CA_19  and  C_25
REMARK   10  A    between atoms: CB_20  and  CG_21
REMARK   11  A    between atoms: CG_21  and  CD_22
REMARK   12  A    between atoms: CD_22  and  OE2_24
REMARK   13  A    between atoms: C_25  and  OXT_27
REMARK                            x       y       z     vdW  Elec       q    Type
REMARK                         _______ _______ _______ _____ _____    ______ ____
ROOT
ATOM      1  C   UNK A   0       1.261   7.227  20.743  0.00  0.00    +0.000 A 
ATOM      2  C   UNK A   0       2.068   7.803  19.754  0.00  0.00    +0.000 A 
ATOM      3  C   UNK A   0       2.983   7.025  19.046  0.00  0.00    +0.000 A 
ATOM      4  C   UNK A   0       3.109   5.659  19.319  0.00  0.00    +0.000 A 
ATOM      5  C   UNK A   0       2.342   5.087  20.341  0.00  0.00    +0.000 A 
ATOM      6  C   UNK A   0       1.420   5.868  21.044  0.00  0.00    +0.000 A 
ENDROOT
BRANCH   4   7
ATOM      7  C   UNK A   0       4.080   4.876  18.510  0.00  0.00    +0.000 C 
ATOM      8  O   UNK A   0       3.875   3.692  18.264  0.00  0.00    +0.000 OA
ATOM      9  N   GLU A   1       5.207   5.537  18.080  0.00  0.00    +0.000 N 
ATOM     10  H   GLU A   1       5.408   6.477  18.402  0.00  0.00    +0.000 HD
BRANCH   9  11
ATOM     11  CA  GLU A   1       6.237   4.870  17.284  0.00  0.00    +0.000 C 
BRANCH  11  12
ATOM     12  C   GLU A   1       7.477   4.760  18.179  0.00  0.00    +0.000 C 
ATOM     13  O   GLU A   1       7.574   5.316  19.265  0.00  0.00    +0.000 OA
BRANCH  12  14
ATOM     14  OXT GLU A   1       8.453   3.963  17.690  0.00  0.00    +0.000 OA
ATOM     15  HXT GLU A   1       8.721   4.153  16.763  0.00  0.00    +0.000 HD
ENDBRANCH  12  14
ENDBRANCH  11  12
BRANCH  11  16
ATOM     16  CB  GLU A   1       6.549   5.679  16.011  0.00  0.00    +0.000 C 
BRANCH  16  17
ATOM     17  CG  GLU A   1       5.840   5.194  14.755  0.00  0.00    +0.000 C 
BRANCH  17  18
ATOM     18  CD  GLU A   1       6.829   4.651  13.762  0.00  0.00    +0.000 C 
ATOM     19  OE1 GLU A   1       6.574   3.695  13.042  0.00  0.00    +0.000 OA
BRANCH  18  20
ATOM     20  OE2 GLU A   1       7.969   5.362  13.676  0.00  0.00    +0.000 OA
ATOM     21  HE2 GLU A   1       7.847   6.329  13.623  0.00  0.00    +0.000 HD
ENDBRANCH  18  20
ENDBRANCH  17  18
ENDBRANCH  16  17
ENDBRANCH  11  16
ENDBRANCH   9  11
ENDBRANCH   4   7
BRANCH   1  22
ATOM     22  C   UNK A   0       0.247   8.062  21.485  0.00  0.00    +0.000 C 
BRANCH  22  23
ATOM     23  C   UNK A   0       0.566   9.561  21.426  0.00  0.00    +0.000 C 
BRANCH  23  24
ATOM     24  C   UNK A   0      -0.633  10.342  20.889  0.00  0.00    +0.000 C 
BRANCH  24  25
ATOM     25  C   UNK A   0      -0.310  11.069  19.582  0.00  0.00    +0.000 C 
BRANCH  25  32
ATOM     26  N   UNK A   0      -6.486  12.061  17.226  0.00  0.00    +0.000 N 
ATOM     27  C   UNK A   0      -5.208  11.776  17.582  0.00  0.00    +0.000 A 
ATOM     28  N   UNK A   0      -4.514  10.932  16.870  0.00  0.00    +0.000 NA
ATOM     29  C   UNK A   0      -3.259  10.736  17.333  0.00  0.00    +0.000 A 
ATOM     30  N   UNK A   0      -2.361   9.900  16.743  0.00  0.00    +0.000 N 
ATOM     31  C   UNK A   0      -1.190   9.914  17.460  0.00  0.00    +0.000 A 
ATOM     32  C   UNK A   0      -1.337  10.783  18.534  0.00  0.00    +0.000 A 
ATOM     33  C   UNK A   0      -2.657  11.308  18.433  0.00  0.00    +0.000 A 
ATOM     34  C   UNK A   0      -3.445  12.244  19.203  0.00  0.00    +0.000 A 
ATOM     35  O   UNK A   0      -3.044  12.839  20.199  0.00  0.00    +0.000 OA
ATOM     36  N   UNK A   0      -4.722  12.417  18.700  0.00  0.00    +0.000 N 
ATOM     37  H   UNK A   0      -6.841  11.396  16.545  0.00  0.00    +0.000 HD
ATOM     38  H   UNK A   0      -7.141  12.229  17.984  0.00  0.00    +0.000 HD
ATOM     39  H   UNK A   0      -2.549   9.355  15.913  0.00  0.00    +0.000 HD
ATOM     40  H   UNK A   0      -5.292  13.090  19.185  0.00  0.00    +0.000 HD
ENDBRANCH  25  32
ENDBRANCH  24  25
ENDBRANCH  23  24
ENDBRANCH  22  23
ENDBRANCH   1  22
TORSDOF 13
ENDMDL
MODEL 4
REMARK VINA RESULT:      -7.8      1.658      2.216
REMARK  Name = 
REMARK  13 active torsions:
REMARK  status: ('A' for Active; 'I' for Inactive)
REMARK    1  A    between atoms: C_7  and  C_8
REMARK    2  A    between atoms: C_8  and  C_9
REMARK    3  A    between atoms: C_9  and  C_10
REMARK    4  A    between atoms: C_10  and  C_11
REMARK    5  A    between atoms: C_11  and  C_12
REMARK    6  A    between atoms: C_15  and  C_16
REMARK    7  A    between atoms: N_18  and  CA_19
REMARK    8  A    between atoms: CA_19  and  CB_20
REMARK    9  A    between atoms: CA_19  and  C_25
REMARK   10  A    between atoms: CB_20  and  CG_21
REMARK   11  A    between atoms: CG_21  and  CD_22
REMARK   12  A    between atoms: CD_22  and  OE2_24
REMARK   13  A    between atoms: C_25  and  OXT_27
REMARK                            x       y       z     vdW  Elec       q    Type
REMARK                         _______ _______ _______ _____ _____    ______ ____
ROOT
ATOM      1  C   UNK A   0       7.620   7.575  17.816  0.00  0.00    +0.000 A 
ATOM      2  C   UNK A   0       8.045   6.703  18.826  0.00  0.00    +0.000 A 
ATOM      3  C   UNK A   0       7.237   5.639  19.227  0.00  0.00    +0.000 A 
ATOM      4  C   UNK A   0       5.990   5.434  18.629  0.00  0.00    +0.000 A 
ATOM      5  C   UNK A   0       5.537   6.332  17.654  0.00  0.00    +0.000 A 
ATOM      6  C   UNK A   0       6.352   7.393  17.248  0.00  0.00    +0.000 A 
ENDROOT
BRANCH   4   7
ATOM      7  C   UNK A   0       5.189   4.265  19.078  0.00  0.00    +0.000 C 
ATOM      8  O   UNK A   0       5.665   3.135  19.052  0.00  0.00    +0.000 OA
ATOM      9  N   GLU A   1       3.902   4.516  19.495  0.00  0.00    +0.000 N 
ATOM     10  H   GLU A   1       3.497   5.439  19.388  0.00  0.00    +0.000 HD
BRANCH   9  11
ATOM     11  CA  GLU A   1       3.015   3.446  19.951  0.00  0.00    +0.000 C 
BRANCH  11  12
ATOM     12  C   GLU A   1       2.224   2.982  18.723  0.00  0.00    +0.000 C 
ATOM     13  O   GLU A   1       1.634   1.911  18.669  0.00  0.00    +0.000 OA
BRANCH  12  14
ATOM     14  OXT GLU A   1       2.193   3.872  17.706  0.00  0.00    +0.000 OA
ATOM     15  HXT GLU A   1       1.408   3.804  17.118  0.00  0.00    +0.000 HD
ENDBRANCH  12  14
ENDBRANCH  11  12
BRANCH  11  16
ATOM     16  CB  GLU A   1       2.068   3.958  21.052  0.00  0.00    +0.000 C 
BRANCH  16  17
ATOM     17  CG  GLU A   1       1.046   4.987  20.590  0.00  0.00    +0.000 C 
BRANCH  17  18
ATOM     18  CD  GLU A   1       1.698   6.323  20.372  0.00  0.00    +0.000 C 
ATOM     19  OE1 GLU A   1       2.134   6.668  19.281  0.00  0.00    +0.000 OA
BRANCH  18  20
ATOM     20  OE2 GLU A   1       1.674   7.130  21.450  0.00  0.00    +0.000 OA
ATOM     21  HE2 GLU A   1       1.181   6.778  22.215  0.00  0.00    +0.000 HD
ENDBRANCH  18  20
ENDBRANCH  17  18
ENDBRANCH  16  17
ENDBRANCH  11  16
ENDBRANCH   9  11
ENDBRANCH   4   7
BRANCH   1  22
ATOM     22  C   UNK A   0       8.508   8.705  17.358  0.00  0.00    +0.000 C 
BRANCH  22  23
ATOM     23  C   UNK A   0       8.379   9.950  18.244  0.00  0.00    +0.000 C 
BRANCH  23  24
ATOM     24  C   UNK A   0       9.216   9.793  19.512  0.00  0.00    +0.000 C 
BRANCH  24  25
ATOM     25  C   UNK A   0       9.690  11.139  20.064  0.00  0.00    +0.000 C 
BRANCH  25  32
ATOM     26  N   UNK A   0      10.783  16.358  16.033  0.00  0.00    +0.000 N 
ATOM     27  C   UNK A   0      10.699  15.251  16.814  0.00  0.00    +0.000 A 
ATOM     28  N   UNK A   0      11.656  14.365  16.783  0.00  0.00    +0.000 NA
ATOM     29  C   UNK A   0      11.448  13.314  17.605  0.00  0.00    +0.000 A 
ATOM     30  N   UNK A   0      12.318  12.275  17.732  0.00  0.00    +0.000 N 
ATOM     31  C   UNK A   0      11.813  11.367  18.632  0.00  0.00    +0.000 A 
ATOM     32  C   UNK A   0      10.590  11.836  19.095  0.00  0.00    +0.000 A 
ATOM     33  C   UNK A   0      10.376  13.083  18.441  0.00  0.00    +0.000 A 
ATOM     34  C   UNK A   0       9.330  14.081  18.462  0.00  0.00    +0.000 A 
ATOM     35  O   UNK A   0       8.322  14.020  19.160  0.00  0.00    +0.000 OA
ATOM     36  N   UNK A   0       9.578  15.141  17.607  0.00  0.00    +0.000 N 
ATOM     37  H   UNK A   0      11.505  16.261  15.326  0.00  0.00    +0.000 HD
ATOM     38  H   UNK A   0       9.910  16.711  15.652  0.00  0.00    +0.000 HD
ATOM     39  H   UNK A   0      13.191  12.197  17.230  0.00  0.00    +0.000 HD
ATOM     40  H   UNK A   0       8.893  15.877  17.620  0.00  0.00    +0.000 HD
ENDBRANCH  25  32
ENDBRANCH  24  25
ENDBRANCH  23  24
ENDBRANCH  22  23
ENDBRANCH   1  22
TORSDOF 13
ENDMDL
MODEL 5
REMARK VINA RESULT:      -7.8      8.598     11.176
REMARK  Name = 
REMARK  13 active torsions:
REMARK  status: ('A' for Active; 'I' for Inactive)
REMARK    1  A    between atoms: C_7  and  C_8
REMARK    2  A    between atoms: C_8  and  C_9
REMARK    3  A    between atoms: C_9  and  C_10
REMARK    4  A    between atoms: C_10  and  C_11
REMARK    5  A    between atoms: C_11  and  C_12
REMARK    6  A    between atoms: C_15  and  C_16
REMARK    7  A    between atoms: N_18  and  CA_19
REMARK    8  A    between atoms: CA_19  and  CB_20
REMARK    9  A    between atoms: CA_19  and  C_25
REMARK   10  A    between atoms: CB_20  and  CG_21
REMARK   11  A    between atoms: CG_21  and  CD_22
REMARK   12  A    between atoms: CD_22  and  OE2_24
REMARK   13  A    between atoms: C_25  and  OXT_27
REMARK                            x       y       z     vdW  Elec       q    Type
REMARK                         _______ _______ _______ _____ _____    ______ ____
ROOT
ATOM      1  C   UNK A   0       1.042   9.858  19.283  0.00  0.00    +0.000 A 
ATOM      2  C   UNK A   0       1.745   9.305  18.205  0.00  0.00    +0.000 A 
ATOM      3  C   UNK A   0       2.327   8.042  18.314  0.00  0.00    +0.000 A 
ATOM      4  C   UNK A   0       2.220   7.315  19.504  0.00  0.00    +0.000 A 
ATOM      5  C   UNK A   0       1.562   7.883  20.602  0.00  0.00    +0.000 A 
ATOM      6  C   UNK A   0       0.973   9.145  20.487  0.00  0.00    +0.000 A 
ENDROOT
BRANCH   4   7
ATOM      7  C   UNK A   0       2.835   5.963  19.548  0.00  0.00    +0.000 C 
ATOM      8  O   UNK A   0       2.388   5.098  20.296  0.00  0.00    +0.000 OA
ATOM      9  N   GLU A   1       3.924   5.747  18.736  0.00  0.00    +0.000 N 
ATOM     10  H   GLU A   1       4.345   6.515  18.225  0.00  0.00    +0.000 HD
BRANCH   9  11
ATOM     11  CA  GLU A   1       4.618   4.461  18.700  0.00  0.00    +0.000 C 
BRANCH  11  12
ATOM     12  C   GLU A   1       6.109   4.764  18.888  0.00  0.00    +0.000 C 
ATOM     13  O   GLU A   1       6.542   5.487  19.776  0.00  0.00    +0.000 OA
BRANCH  12  14
ATOM     14  OXT GLU A   1       6.925   4.133  18.013  0.00  0.00    +0.000 OA
ATOM     15  HXT GLU A   1       6.983   3.158  18.127  0.00  0.00    +0.000 HD
ENDBRANCH  12  14
ENDBRANCH  11  12
BRANCH  11  16
ATOM     16  CB  GLU A   1       4.369   3.747  17.358  0.00  0.00    +0.000 C 
BRANCH  16  17
ATOM     17  CG  GLU A   1       3.044   3.005  17.264  0.00  0.00    +0.000 C 
BRANCH  17  18
ATOM     18  CD  GLU A   1       2.924   1.990  18.367  0.00  0.00    +0.000 C 
ATOM     19  OE1 GLU A   1       3.707   1.057  18.485  0.00  0.00    +0.000 OA
BRANCH  18  20
ATOM     20  OE2 GLU A   1       1.945   2.255  19.253  0.00  0.00    +0.000 OA
ATOM     21  HE2 GLU A   1       2.250   2.609  20.110  0.00  0.00    +0.000 HD
ENDBRANCH  18  20
ENDBRANCH  17  18
ENDBRANCH  16  17
ENDBRANCH  11  16
ENDBRANCH   9  11
ENDBRANCH   4   7
BRANCH   1  22
ATOM     22  C   UNK A   0       0.383  11.208  19.153  0.00  0.00    +0.000 C 
BRANCH  22  23
ATOM     23  C   UNK A   0      -1.137  11.141  19.344  0.00  0.00    +0.000 C 
BRANCH  23  24
ATOM     24  C   UNK A   0      -1.550  11.883  20.615  0.00  0.00    +0.000 C 
BRANCH  24  25
ATOM     25  C   UNK A   0      -2.374  13.136  20.311  0.00  0.00    +0.000 C 
BRANCH  25  32
ATOM     26  N   UNK A   0      -7.388  13.584  24.707  0.00  0.00    +0.000 N 
ATOM     27  C   UNK A   0      -6.472  13.444  23.716  0.00  0.00    +0.000 A 
ATOM     28  N   UNK A   0      -6.827  12.907  22.581  0.00  0.00    +0.000 NA
ATOM     29  C   UNK A   0      -5.821  12.825  21.683  0.00  0.00    +0.000 A 
ATOM     30  N   UNK A   0      -5.968  12.302  20.435  0.00  0.00    +0.000 N 
ATOM     31  C   UNK A   0      -4.763  12.352  19.777  0.00  0.00    +0.000 A 
ATOM     32  C   UNK A   0      -3.820  12.923  20.622  0.00  0.00    +0.000 A 
ATOM     33  C   UNK A   0      -4.512  13.230  21.829  0.00  0.00    +0.000 A 
ATOM     34  C   UNK A   0      -4.144  13.827  23.093  0.00  0.00    +0.000 A 
ATOM     35  O   UNK A   0      -3.022  14.244  23.367  0.00  0.00    +0.000 OA
ATOM     36  N   UNK A   0      -5.198  13.892  23.986  0.00  0.00    +0.000 N 
ATOM     37  H   UNK A   0      -8.224  13.038  24.523  0.00  0.00    +0.000 HD
ATOM     38  H   UNK A   0      -7.049  13.468  25.658  0.00  0.00    +0.000 HD
ATOM     39  H   UNK A   0      -6.835  11.932  20.069  0.00  0.00    +0.000 HD
ATOM     40  H   UNK A   0      -4.994  14.336  24.866  0.00  0.00    +0.000 HD
ENDBRANCH  25  32
ENDBRANCH  24  25
ENDBRANCH  23  24
ENDBRANCH  22  23
ENDBRANCH   1  22
TORSDOF 13
ENDMDL
MODEL 6
REMARK VINA RESULT:      -7.8      7.412     10.612
REMARK  Name = 
REMARK  13 active torsions:
REMARK  status: ('A' for Active; 'I' for Inactive)
REMARK    1  A    between atoms: C_7  and  C_8
REMARK    2  A    between atoms: C_8  and  C_9
REMARK    3  A    between atoms: C_9  and  C_10
REMARK    4  A    between atoms: C_10  and  C_11
REMARK    5  A    between atoms: C_11  and  C_12
REMARK    6  A    between atoms: C_15  and  C_16
REMARK    7  A    between atoms: N_18  and  CA_19
REMARK    8  A    between atoms: CA_19  and  CB_20
REMARK    9  A    between atoms: CA_19  and  C_25
REMARK   10  A    between atoms: CB_20  and  CG_21
REMARK   11  A    between atoms: CG_21  and  CD_22
REMARK   12  A    between atoms: CD_22  and  OE2_24
REMARK   13  A    between atoms: C_25  and  OXT_27
REMARK                            x       y       z     vdW  Elec       q    Type
REMARK                         _______ _______ _______ _____ _____    ______ ____
ROOT
ATOM      1  C   UNK A   0       1.471   9.070  19.309  0.00  0.00    +0.000 A 
ATOM      2  C   UNK A   0       1.601   7.991  20.191  0.00  0.00    +0.000 A 
ATOM      3  C   UNK A   0       2.325   6.858  19.821  0.00  0.00    +0.000 A 
ATOM      4  C   UNK A   0       2.927   6.785  18.561  0.00  0.00    +0.000 A 
ATOM      5  C   UNK A   0       2.759   7.839  17.655  0.00  0.00    +0.000 A 
ATOM      6  C   UNK A   0       2.039   8.977  18.031  0.00  0.00    +0.000 A 
ENDROOT
BRANCH   4   7
ATOM      7  C   UNK A   0       3.711   5.565  18.236  0.00  0.00    +0.000 C 
ATOM      8  O   UNK A   0       3.215   4.451  18.369  0.00  0.00    +0.000 OA
ATOM      9  N   GLU A   1       5.005   5.752  17.808  0.00  0.00    +0.000 N 
ATOM     10  H   GLU A   1       5.425   6.674  17.827  0.00  0.00    +0.000 HD
BRANCH   9  11
ATOM     11  CA  GLU A   1       5.876   4.628  17.467  0.00  0.00    +0.000 C 
BRANCH  11  12
ATOM     12  C   GLU A   1       7.295   5.034  17.883  0.00  0.00    +0.000 C 
ATOM     13  O   GLU A   1       7.570   6.129  18.354  0.00  0.00    +0.000 OA
BRANCH  12  14
ATOM     14  OXT GLU A   1       8.225   4.066  17.724  0.00  0.00    +0.000 OA
ATOM     15  HXT GLU A   1       8.657   4.044  16.841  0.00  0.00    +0.000 HD
ENDBRANCH  12  14
ENDBRANCH  11  12
BRANCH  11  16
ATOM     16  CB  GLU A   1       5.812   4.328  15.958  0.00  0.00    +0.000 C 
BRANCH  16  17
ATOM     17  CG  GLU A   1       6.590   5.297  15.079  0.00  0.00    +0.000 C 
BRANCH  17  18
ATOM     18  CD  GLU A   1       6.887   4.679  13.741  0.00  0.00    +0.000 C 
ATOM     19  OE1 GLU A   1       6.355   3.642  13.368  0.00  0.00    +0.000 OA
BRANCH  18  20
ATOM     20  OE2 GLU A   1       7.709   5.413  12.967  0.00  0.00    +0.000 OA
ATOM     21  HE2 GLU A   1       8.311   4.895  12.400  0.00  0.00    +0.000 HD
ENDBRANCH  18  20
ENDBRANCH  17  18
ENDBRANCH  16  17
ENDBRANCH  11  16
ENDBRANCH   9  11
ENDBRANCH   4   7
BRANCH   1  22
ATOM     22  C   UNK A   0       0.717  10.310  19.722  0.00  0.00    +0.000 C 
BRANCH  22  23
ATOM     23  C   UNK A   0      -0.266  10.043  20.868  0.00  0.00    +0.000 C 
BRANCH  23  24
ATOM     24  C   UNK A   0      -0.375  11.268  21.775  0.00  0.00    +0.000 C 
BRANCH  24  25
ATOM     25  C   UNK A   0      -0.839  12.512  21.014  0.00  0.00    +0.000 C 
BRANCH  25  32
ATOM     26  N   UNK A   0      -6.048  11.872  16.875  0.00  0.00    +0.000 N 
ATOM     27  C   UNK A   0      -5.091  12.016  17.827  0.00  0.00    +0.000 A 
ATOM     28  N   UNK A   0      -5.437  12.295  19.053  0.00  0.00    +0.000 NA
ATOM     29  C   UNK A   0      -4.389  12.412  19.898  0.00  0.00    +0.000 A 
ATOM     30  N   UNK A   0      -4.520  12.697  21.223  0.00  0.00    +0.000 N 
ATOM     31  C   UNK A   0      -3.274  12.761  21.798  0.00  0.00    +0.000 A 
ATOM     32  C   UNK A   0      -2.321  12.509  20.820  0.00  0.00    +0.000 A 
ATOM     33  C   UNK A   0      -3.047  12.277  19.617  0.00  0.00    +0.000 A 
ATOM     34  C   UNK A   0      -2.688  11.964  18.252  0.00  0.00    +0.000 A 
ATOM     35  O   UNK A   0      -1.539  11.803  17.853  0.00  0.00    +0.000 OA
ATOM     36  N   UNK A   0      -3.786  11.852  17.418  0.00  0.00    +0.000 N 
ATOM     37  H   UNK A   0      -6.946  12.224  17.194  0.00  0.00    +0.000 HD
ATOM     38  H   UNK A   0      -5.812  12.196  15.942  0.00  0.00    +0.000 HD
ATOM     39  H   UNK A   0      -5.404  12.843  21.691  0.00  0.00    +0.000 HD
ATOM     40  H   UNK A   0      -3.582  11.597  16.466  0.00  0.00    +0.000 HD
ENDBRANCH  25  32
ENDBRANCH  24  25
ENDBRANCH  23  24
ENDBRANCH  22  23
ENDBRANCH   1  22
TORSDOF 13
ENDMDL
MODEL 7
REMARK VINA RESULT:      -7.7      8.414     11.374
REMARK  Name = 
REMARK  13 active torsions:
REMARK  status: ('A' for Active; 'I' for Inactive)
REMARK    1  A    between atoms: C_7  and  C_8
REMARK    2  A    between atoms: C_8  and  C_9
REMARK    3  A    between atoms: C_9  and  C_10
REMARK    4  A    between atoms: C_10  and  C_11
REMARK    5  A    between atoms: C_11  and  C_12
REMARK    6  A    between atoms: C_15  and  C_16
REMARK    7  A    between atoms: N_18  and  CA_19
REMARK    8  A    between atoms: CA_19  and  CB_20
REMARK    9  A    between atoms: CA_19  and  C_25
REMARK   10  A    between atoms: CB_20  and  CG_21
REMARK   11  A    between atoms: CG_21  and  CD_22
REMARK   12  A    between atoms: CD_22  and  OE2_24
REMARK   13  A    between atoms: C_25  and  OXT_27
REMARK                            x       y       z     vdW  Elec       q    Type
REMARK                         _______ _______ _______ _____ _____    ______ ____
ROOT
ATOM      1  C   UNK A   0       0.860   9.745  19.803  0.00  0.00    +0.000 A 
ATOM      2  C   UNK A   0       1.504   9.491  18.586  0.00  0.00    +0.000 A 
ATOM      3  C   UNK A   0       2.162   8.279  18.373  0.00  0.00    +0.000 A 
ATOM      4  C   UNK A   0       2.189   7.305  19.376  0.00  0.00    +0.000 A 
ATOM      5  C   UNK A   0       1.591   7.572  20.613  0.00  0.00    +0.000 A 
ATOM      6  C   UNK A   0       0.926   8.784  20.821  0.00  0.00    +0.000 A 
ENDROOT
BRANCH   4   7
ATOM      7  C   UNK A   0       2.879   6.022  19.078  0.00  0.00    +0.000 C 
ATOM      8  O   UNK A   0       2.535   4.985  19.635  0.00  0.00    +0.000 OA
ATOM      9  N   GLU A   1       3.918   6.069  18.177  0.00  0.00    +0.000 N 
ATOM     10  H   GLU A   1       4.258   6.958  17.829  0.00  0.00    +0.000 HD
BRANCH   9  11
ATOM     11  CA  GLU A   1       4.677   4.874  17.811  0.00  0.00    +0.000 C 
BRANCH  11  12
ATOM     12  C   GLU A   1       5.511   4.493  19.040  0.00  0.00    +0.000 C 
ATOM     13  O   GLU A   1       6.291   5.260  19.588  0.00  0.00    +0.000 OA
BRANCH  12  14
ATOM     14  OXT GLU A   1       5.289   3.242  19.503  0.00  0.00    +0.000 OA
ATOM     15  HXT GLU A   1       5.982   2.893  20.107  0.00  0.00    +0.000 HD
ENDBRANCH  12  14
ENDBRANCH  11  12
BRANCH  11  16
ATOM     16  CB  GLU A   1       5.585   5.157  16.600  0.00  0.00    +0.000 C 
BRANCH  16  17
ATOM     17  CG  GLU A   1       5.564   4.084  15.520  0.00  0.00    +0.000 C 
BRANCH  17  18
ATOM     18  CD  GLU A   1       6.596   4.371  14.466  0.00  0.00    +0.000 C 
ATOM     19  OE1 GLU A   1       7.473   5.211  14.621  0.00  0.00    +0.000 OA
BRANCH  18  20
ATOM     20  OE2 GLU A   1       6.523   3.565  13.390  0.00  0.00    +0.000 OA
ATOM     21  HE2 GLU A   1       6.055   2.721  13.539  0.00  0.00    +0.000 HD
ENDBRANCH  18  20
ENDBRANCH  17  18
ENDBRANCH  16  17
ENDBRANCH  11  16
ENDBRANCH   9  11
ENDBRANCH   4   7
BRANCH   1  22
ATOM     22  C   UNK A   0       0.120  11.041  20.020  0.00  0.00    +0.000 C 
BRANCH  22  23
ATOM     23  C   UNK A   0      -0.823  11.380  18.860  0.00  0.00    +0.000 C 
BRANCH  23  24
ATOM     24  C   UNK A   0      -2.203  11.767  19.388  0.00  0.00    +0.000 C 
BRANCH  24  25
ATOM     25  C   UNK A   0      -2.142  12.954  20.352  0.00  0.00    +0.000 C 
BRANCH  25  32
ATOM     26  N   UNK A   0      -7.381  13.484  24.469  0.00  0.00    +0.000 N 
ATOM     27  C   UNK A   0      -6.256  13.287  23.737  0.00  0.00    +0.000 A 
ATOM     28  N   UNK A   0      -5.262  12.615  24.250  0.00  0.00    +0.000 NA
ATOM     29  C   UNK A   0      -4.204  12.492  23.418  0.00  0.00    +0.000 A 
ATOM     30  N   UNK A   0      -3.061  11.830  23.747  0.00  0.00    +0.000 N 
ATOM     31  C   UNK A   0      -2.180  11.897  22.696  0.00  0.00    +0.000 A 
ATOM     32  C   UNK A   0      -2.771  12.619  21.666  0.00  0.00    +0.000 A 
ATOM     33  C   UNK A   0      -4.065  12.982  22.136  0.00  0.00    +0.000 A 
ATOM     34  C   UNK A   0      -5.182  13.718  21.588  0.00  0.00    +0.000 A 
ATOM     35  O   UNK A   0      -5.210  14.204  20.461  0.00  0.00    +0.000 OA
ATOM     36  N   UNK A   0      -6.244  13.824  22.469  0.00  0.00    +0.000 N 
ATOM     37  H   UNK A   0      -7.232  13.263  25.449  0.00  0.00    +0.000 HD
ATOM     38  H   UNK A   0      -7.857  14.372  24.338  0.00  0.00    +0.000 HD
ATOM     39  H   UNK A   0      -2.902  11.371  24.633  0.00  0.00    +0.000 HD
ATOM     40  H   UNK A   0      -7.057  14.297  22.112  0.00  0.00    +0.000 HD
ENDBRANCH  25  32
ENDBRANCH  24  25
ENDBRANCH  23  24
ENDBRANCH  22  23
ENDBRANCH   1  22
TORSDOF 13
ENDMDL
MODEL 8
REMARK VINA RESULT:      -7.6      1.222      1.680
REMARK  Name = 
REMARK  13 active torsions:
REMARK  status: ('A' for Active; 'I' for Inactive)
REMARK    1  A    between atoms: C_7  and  C_8
REMARK    2  A    between atoms: C_8  and  C_9
REMARK    3  A    between atoms: C_9  and  C_10
REMARK    4  A    between atoms: C_10  and  C_11
REMARK    5  A    between atoms: C_11  and  C_12
REMARK    6  A    between atoms: C_15  and  C_16
REMARK    7  A    between atoms: N_18  and  CA_19
REMARK    8  A    between atoms: CA_19  and  CB_20
REMARK    9  A    between atoms: CA_19  and  C_25
REMARK   10  A    between atoms: CB_20  and  CG_21
REMARK   11  A    between atoms: CG_21  and  CD_22
REMARK   12  A    between atoms: CD_22  and  OE2_24
REMARK   13  A    between atoms: C_25  and  OXT_27
REMARK                            x       y       z     vdW  Elec       q    Type
REMARK                         _______ _______ _______ _____ _____    ______ ____
ROOT
ATOM      1  C   UNK A   0       8.151   7.917  18.389  0.00  0.00    +0.000 A 
ATOM      2  C   UNK A   0       7.220   8.198  17.382  0.00  0.00    +0.000 A 
ATOM      3  C   UNK A   0       6.343   7.210  16.934  0.00  0.00    +0.000 A 
ATOM      4  C   UNK A   0       6.386   5.925  17.484  0.00  0.00    +0.000 A 
ATOM      5  C   UNK A   0       7.347   5.624  18.456  0.00  0.00    +0.000 A 
ATOM      6  C   UNK A   0       8.220   6.617  18.909  0.00  0.00    +0.000 A 
ENDROOT
BRANCH   4   7
ATOM      7  C   UNK A   0       5.405   4.925  16.987  0.00  0.00    +0.000 C 
ATOM      8  O   UNK A   0       5.601   4.330  15.932  0.00  0.00    +0.000 OA
ATOM      9  N   GLU A   1       4.280   4.724  17.752  0.00  0.00    +0.000 N 
ATOM     10  H   GLU A   1       4.087   5.317  18.551  0.00  0.00    +0.000 HD
BRANCH   9  11
ATOM     11  CA  GLU A   1       3.240   3.772  17.361  0.00  0.00    +0.000 C 
BRANCH  11  12
ATOM     12  C   GLU A   1       1.937   4.261  18.002  0.00  0.00    +0.000 C 
ATOM     13  O   GLU A   1       1.898   5.107  18.886  0.00  0.00    +0.000 OA
BRANCH  12  14
ATOM     14  OXT GLU A   1       0.816   3.711  17.485  0.00  0.00    +0.000 OA
ATOM     15  HXT GLU A   1       0.934   2.817  17.092  0.00  0.00    +0.000 HD
ENDBRANCH  12  14
ENDBRANCH  11  12
BRANCH  11  16
ATOM     16  CB  GLU A   1       3.592   2.354  17.848  0.00  0.00    +0.000 C 
BRANCH  16  17
ATOM     17  CG  GLU A   1       2.956   1.956  19.173  0.00  0.00    +0.000 C 
BRANCH  17  18
ATOM     18  CD  GLU A   1       3.888   2.244  20.317  0.00  0.00    +0.000 C 
ATOM     19  OE1 GLU A   1       3.482   2.504  21.441  0.00  0.00    +0.000 OA
BRANCH  18  20
ATOM     20  OE2 GLU A   1       5.192   2.099  20.013  0.00  0.00    +0.000 OA
ATOM     21  HE2 GLU A   1       5.420   2.277  19.081  0.00  0.00    +0.000 HD
ENDBRANCH  18  20
ENDBRANCH  17  18
ENDBRANCH  16  17
ENDBRANCH  11  16
ENDBRANCH   9  11
ENDBRANCH   4   7
BRANCH   1  22
ATOM     22  C   UNK A   0       9.076   8.995  18.898  0.00  0.00    +0.000 C 
BRANCH  22  23
ATOM     23  C   UNK A   0       8.829  10.347  18.220  0.00  0.00    +0.000 C 
BRANCH  23  24
ATOM     24  C   UNK A   0       9.443  11.478  19.043  0.00  0.00    +0.000 C 
BRANCH  24  25
ATOM     25  C   UNK A   0      10.909  11.729  18.681  0.00  0.00    +0.000 C 
BRANCH  25  32
ATOM     26  N   UNK A   0      11.071  18.405  18.969  0.00  0.00    +0.000 N 
ATOM     27  C   UNK A   0      11.073  17.063  18.764  0.00  0.00    +0.000 A 
ATOM     28  N   UNK A   0      11.223  16.595  17.556  0.00  0.00    +0.000 NA
ATOM     29  C   UNK A   0      11.204  15.245  17.492  0.00  0.00    +0.000 A 
ATOM     30  N   UNK A   0      11.346  14.545  16.333  0.00  0.00    +0.000 N 
ATOM     31  C   UNK A   0      11.269  13.201  16.604  0.00  0.00    +0.000 A 
ATOM     32  C   UNK A   0      11.076  13.033  17.969  0.00  0.00    +0.000 A 
ATOM     33  C   UNK A   0      11.049  14.344  18.524  0.00  0.00    +0.000 A 
ATOM     34  C   UNK A   0      10.889  14.887  19.854  0.00  0.00    +0.000 A 
ATOM     35  O   UNK A   0      10.750  14.213  20.870  0.00  0.00    +0.000 OA
ATOM     36  N   UNK A   0      10.912  16.270  19.879  0.00  0.00    +0.000 N 
ATOM     37  H   UNK A   0      10.967  18.915  18.096  0.00  0.00    +0.000 HD
ATOM     38  H   UNK A   0      10.455  18.752  19.698  0.00  0.00    +0.000 HD
ATOM     39  H   UNK A   0      11.478  14.966  15.425  0.00  0.00    +0.000 HD
ATOM     40  H   UNK A   0      10.842  16.688  20.792  0.00  0.00    +0.000 HD
ENDBRANCH  25  32
ENDBRANCH  24  25
ENDBRANCH  23  24
ENDBRANCH  22  23
ENDBRANCH   1  22
TORSDOF 13
ENDMDL
MODEL 9
REMARK VINA RESULT:      -7.6      7.851     10.444
REMARK  Name = 
REMARK  13 active torsions:
REMARK  status: ('A' for Active; 'I' for Inactive)
REMARK    1  A    between atoms: C_7  and  C_8
REMARK    2  A    between atoms: C_8  and  C_9
REMARK    3  A    between atoms: C_9  and  C_10
REMARK    4  A    between atoms: C_10  and  C_11
REMARK    5  A    between atoms: C_11  and  C_12
REMARK    6  A    between atoms: C_15  and  C_16
REMARK    7  A    between atoms: N_18  and  CA_19
REMARK    8  A    between atoms: CA_19  and  CB_20
REMARK    9  A    between atoms: CA_19  and  C_25
REMARK   10  A    between atoms: CB_20  and  CG_21
REMARK   11  A    between atoms: CG_21  and  CD_22
REMARK   12  A    between atoms: CD_22  and  OE2_24
REMARK   13  A    between atoms: C_25  and  OXT_27
REMARK                            x       y       z     vdW  Elec       q    Type
REMARK                         _______ _______ _______ _____ _____    ______ ____
ROOT
ATOM      1  C   UNK A   0       1.150  10.082  19.113  0.00  0.00    +0.000 A 
ATOM      2  C   UNK A   0       1.148   9.248  20.238  0.00  0.00    +0.000 A 
ATOM      3  C   UNK A   0       1.643   7.947  20.154  0.00  0.00    +0.000 A 
ATOM      4  C   UNK A   0       2.142   7.458  18.942  0.00  0.00    +0.000 A 
ATOM      5  C   UNK A   0       2.100   8.269  17.802  0.00  0.00    +0.000 A 
ATOM      6  C   UNK A   0       1.611   9.575  17.891  0.00  0.00    +0.000 A 
ENDROOT
BRANCH   4   7
ATOM      7  C   UNK A   0       2.684   6.073  18.923  0.00  0.00    +0.000 C 
ATOM      8  O   UNK A   0       2.235   5.218  19.679  0.00  0.00    +0.000 OA
ATOM      9  N   GLU A   1       3.709   5.818  18.043  0.00  0.00    +0.000 N 
ATOM     10  H   GLU A   1       4.141   6.573  17.522  0.00  0.00    +0.000 HD
BRANCH   9  11
ATOM     11  CA  GLU A   1       4.329   4.497  17.940  0.00  0.00    +0.000 C 
BRANCH  11  12
ATOM     12  C   GLU A   1       5.322   4.389  19.103  0.00  0.00    +0.000 C 
ATOM     13  O   GLU A   1       5.992   5.331  19.505  0.00  0.00    +0.000 OA
BRANCH  12  14
ATOM     14  OXT GLU A   1       5.374   3.169  19.684  0.00  0.00    +0.000 OA
ATOM     15  HXT GLU A   1       6.244   2.714  19.619  0.00  0.00    +0.000 HD
ENDBRANCH  12  14
ENDBRANCH  11  12
BRANCH  11  16
ATOM     16  CB  GLU A   1       5.048   4.339  16.588  0.00  0.00    +0.000 C 
BRANCH  16  17
ATOM     17  CG  GLU A   1       5.388   5.646  15.886  0.00  0.00    +0.000 C 
BRANCH  17  18
ATOM     18  CD  GLU A   1       6.876   5.852  15.838  0.00  0.00    +0.000 C 
ATOM     19  OE1 GLU A   1       7.475   6.499  16.687  0.00  0.00    +0.000 OA
BRANCH  18  20
ATOM     20  OE2 GLU A   1       7.491   5.189  14.840  0.00  0.00    +0.000 OA
ATOM     21  HE2 GLU A   1       8.207   5.683  14.398  0.00  0.00    +0.000 HD
ENDBRANCH  18  20
ENDBRANCH  17  18
ENDBRANCH  16  17
ENDBRANCH  11  16
ENDBRANCH   9  11
ENDBRANCH   4   7
BRANCH   1  22
ATOM     22  C   UNK A   0       0.647  11.501  19.212  0.00  0.00    +0.000 C 
BRANCH  22  23
ATOM     23  C   UNK A   0       1.658  12.436  19.886  0.00  0.00    +0.000 C 
BRANCH  23  24
ATOM     24  C   UNK A   0       0.961  13.329  20.910  0.00  0.00    +0.000 C 
BRANCH  24  25
ATOM     25  C   UNK A   0      -0.549  13.412  20.674  0.00  0.00    +0.000 C 
BRANCH  25  32
ATOM     26  N   UNK A   0      -6.023  13.040  24.491  0.00  0.00    +0.000 N 
ATOM     27  C   UNK A   0      -4.867  12.989  23.782  0.00  0.00    +0.000 A 
ATOM     28  N   UNK A   0      -3.982  12.071  24.059  0.00  0.00    +0.000 NA
ATOM     29  C   UNK A   0      -2.878  12.132  23.282  0.00  0.00    +0.000 A 
ATOM     30  N   UNK A   0      -1.829  11.271  23.396  0.00  0.00    +0.000 N 
ATOM     31  C   UNK A   0      -0.865  11.606  22.477  0.00  0.00    +0.000 A 
ATOM     32  C   UNK A   0      -1.306  12.707  21.753  0.00  0.00    +0.000 A 
ATOM     33  C   UNK A   0      -2.595  13.024  22.270  0.00  0.00    +0.000 A 
ATOM     34  C   UNK A   0      -3.593  14.028  21.979  0.00  0.00    +0.000 A 
ATOM     35  O   UNK A   0      -3.489  14.881  21.102  0.00  0.00    +0.000 OA
ATOM     36  N   UNK A   0      -4.707  13.934  22.794  0.00  0.00    +0.000 N 
ATOM     37  H   UNK A   0      -5.972  12.472  25.331  0.00  0.00    +0.000 HD
ATOM     38  H   UNK A   0      -6.405  13.965  24.669  0.00  0.00    +0.000 HD
ATOM     39  H   UNK A   0      -1.782  10.515  24.064  0.00  0.00    +0.000 HD
ATOM     40  H   UNK A   0      -5.444  14.591  22.599  0.00  0.00    +0.000 HD
ENDBRANCH  25  32
ENDBRANCH  24  25
ENDBRANCH  23  24
ENDBRANCH  22  23
ENDBRANCH   1  22
TORSDOF 13
ENDMDL
