MODEL 1
REMARK VINA RESULT:      -6.3      0.000      0.000
REMARK  Name = 
REMARK  5 active torsions:
REMARK  status: ('A' for Active; 'I' for Inactive)
REMARK    1  A    between atoms: C_1  and  C_2
REMARK    2  A    between atoms: C_2  and  C_3
REMARK    3  A    between atoms: N_11  and  C_12
REMARK    4  A    between atoms: C_12  and  C_13
REMARK    5  A    between atoms: C_21  and  O_22
REMARK                            x       y       z     vdW  Elec       q    Type
REMARK                         _______ _______ _______ _____ _____    ______ ____
ROOT
ATOM      1  C   UNL     1       0.472  13.287  19.594  0.00  0.00    +0.000 C 
ATOM      2  C   UNL     1       1.231  11.694  20.338  0.00  0.00    +0.000 C 
ATOM      3  C   UNL     1       0.361  10.599  21.538  0.00  0.00    +0.000 C 
ATOM      4  O   UNL     1       0.906   9.552  21.835  0.00  0.00    +0.000 OA
ATOM      5  C   UNL     1      -1.152  10.994  22.444  0.00  0.00    +0.000 C 
ATOM      6  C   UNL     1      -1.691  12.859  22.236  0.00  0.00    +0.000 C 
ATOM      7  C   UNL     1      -0.853  13.647  22.937  0.00  0.00    +0.000 C 
ATOM      8  C   UNL     1      -0.054  12.958  21.926  0.00  0.00    +0.000 C 
ATOM      9  N   UNL     1      -1.211  11.986  20.333  0.00  0.00    +0.000 NA
ATOM     10  C   UNL     1      -2.192  12.929  19.757  0.00  0.00    +0.000 C 
ATOM     11  C   UNL     1      -3.696  13.216  20.309  0.00  0.00    +0.000 C 
ATOM     12  C   UNL     1      -4.070  13.089  21.795  0.00  0.00    +0.000 A 
ATOM     13  C   UNL     1      -5.412  13.116  22.247  0.00  0.00    +0.000 A 
ATOM     14  C   UNL     1      -5.723  12.850  23.597  0.00  0.00    +0.000 A 
ATOM     15  C   UNL     1      -4.704  12.548  24.512  0.00  0.00    +0.000 A 
ATOM     16  C   UNL     1      -3.388  12.576  24.075  0.00  0.00    +0.000 A 
ATOM     17  C   UNL     1      -3.086  12.874  22.731  0.00  0.00    +0.000 A 
ATOM     18  C   UNL     1      -1.378  13.726  20.311  0.00  0.00    +0.000 C 
ENDROOT
BRANCH   1  20
ATOM     19  C   UNL     1       1.733  15.303  18.752  0.00  0.00    +0.000 C 
ATOM     20  C   UNL     1       0.959  14.067  18.337  0.00  0.00    +0.000 C 
ENDBRANCH   1  20
BRANCH  15  21
ATOM     21  O   UNL     1      -4.968  12.231  25.799  0.00  0.00    +0.000 OA
ATOM     22  H   UNL     1      -4.336  11.772  26.368  0.00  0.00    +0.000 HD
ENDBRANCH  15  21
BRANCH   9  23
ATOM     23  C   UNL     1      -1.088  10.908  19.158  0.00  0.00    +0.000 C 
BRANCH  23  24
ATOM     24  C   UNL     1      -1.877  10.978  17.791  0.00  0.00    +0.000 C 
ATOM     25  C   UNL     1      -1.617   9.592  17.073  0.00  0.00    +0.000 C 
ATOM     26  C   UNL     1      -2.992   9.957  17.502  0.00  0.00    +0.000 C 
ENDBRANCH  23  24
ENDBRANCH   9  23
TORSDOF 4
ENDMDL
MODEL 2
REMARK VINA RESULT:      -6.3      2.092      3.004
REMARK  Name = 
REMARK  5 active torsions:
REMARK  status: ('A' for Active; 'I' for Inactive)
REMARK    1  A    between atoms: C_1  and  C_2
REMARK    2  A    between atoms: C_2  and  C_3
REMARK    3  A    between atoms: N_11  and  C_12
REMARK    4  A    between atoms: C_12  and  C_13
REMARK    5  A    between atoms: C_21  and  O_22
REMARK                            x       y       z     vdW  Elec       q    Type
REMARK                         _______ _______ _______ _____ _____    ______ ____
ROOT
ATOM      1  C   UNL     1       0.854  13.056  19.191  0.00  0.00    +0.000 C 
ATOM      2  C   UNL     1       1.096  12.326  20.945  0.00  0.00    +0.000 C 
ATOM      3  C   UNL     1      -0.233  11.483  21.905  0.00  0.00    +0.000 C 
ATOM      4  O   UNL     1       0.087  10.953  22.953  0.00  0.00    +0.000 OA
ATOM      5  C   UNL     1      -1.999  11.497  21.526  0.00  0.00    +0.000 C 
ATOM      6  C   UNL     1      -2.454  12.740  20.091  0.00  0.00    +0.000 C 
ATOM      7  C   UNL     1      -2.359  14.004  20.548  0.00  0.00    +0.000 C 
ATOM      8  C   UNL     1      -1.031  13.405  20.658  0.00  0.00    +0.000 C 
ATOM      9  N   UNL     1      -0.764  11.531  19.547  0.00  0.00    +0.000 NA
ATOM     10  C   UNL     1      -1.218  11.687  18.150  0.00  0.00    +0.000 C 
ATOM     11  C   UNL     1      -2.736  11.488  17.598  0.00  0.00    +0.000 C 
ATOM     12  C   UNL     1      -3.975  11.763  18.467  0.00  0.00    +0.000 A 
ATOM     13  C   UNL     1      -5.281  11.380  18.075  0.00  0.00    +0.000 A 
ATOM     14  C   UNL     1      -6.369  11.516  18.962  0.00  0.00    +0.000 A 
ATOM     15  C   UNL     1      -6.171  12.030  20.252  0.00  0.00    +0.000 A 
ATOM     16  C   UNL     1      -4.900  12.452  20.612  0.00  0.00    +0.000 A 
ATOM     17  C   UNL     1      -3.825  12.341  19.706  0.00  0.00    +0.000 A 
ATOM     18  C   UNL     1      -1.048  12.895  18.492  0.00  0.00    +0.000 C 
ENDROOT
BRANCH   1  20
ATOM     19  C   UNL     1       2.446  14.866  18.447  0.00  0.00    +0.000 C 
ATOM     20  C   UNL     1       1.963  13.454  18.173  0.00  0.00    +0.000 C 
ENDBRANCH   1  20
BRANCH  15  21
ATOM     21  O   UNL     1      -7.178  12.120  21.148  0.00  0.00    +0.000 OA
ATOM     22  H   UNL     1      -7.035  12.334  22.080  0.00  0.00    +0.000 HD
ENDBRANCH  15  21
BRANCH   9  23
ATOM     23  C   UNL     1       0.202  10.262  19.419  0.00  0.00    +0.000 C 
BRANCH  23  24
ATOM     24  C   UNL     1       0.605   9.576  18.054  0.00  0.00    +0.000 C 
ATOM     25  C   UNL     1       2.155   9.843  17.880  0.00  0.00    +0.000 C 
ATOM     26  C   UNL     1       1.657   8.453  18.048  0.00  0.00    +0.000 C 
ENDBRANCH  23  24
ENDBRANCH   9  23
TORSDOF 4
ENDMDL
MODEL 3
REMARK VINA RESULT:      -6.2      2.429      5.872
REMARK  Name = 
REMARK  5 active torsions:
REMARK  status: ('A' for Active; 'I' for Inactive)
REMARK    1  A    between atoms: C_1  and  C_2
REMARK    2  A    between atoms: C_2  and  C_3
REMARK    3  A    between atoms: N_11  and  C_12
REMARK    4  A    between atoms: C_12  and  C_13
REMARK    5  A    between atoms: C_21  and  O_22
REMARK                            x       y       z     vdW  Elec       q    Type
REMARK                         _______ _______ _______ _____ _____    ______ ____
ROOT
ATOM      1  C   UNL     1      -0.485  11.043  22.192  0.00  0.00    +0.000 C 
ATOM      2  C   UNL     1      -2.174  11.930  22.025  0.00  0.00    +0.000 C 
ATOM      3  C   UNL     1      -2.480  13.365  20.909  0.00  0.00    +0.000 C 
ATOM      4  O   UNL     1      -3.629  13.754  20.803  0.00  0.00    +0.000 OA
ATOM      5  C   UNL     1      -1.222  14.359  20.075  0.00  0.00    +0.000 C 
ATOM      6  C   UNL     1       0.589  13.936  20.667  0.00  0.00    +0.000 C 
ATOM      7  C   UNL     1       0.777  14.418  21.911  0.00  0.00    +0.000 C 
ATOM      8  C   UNL     1      -0.307  13.441  21.986  0.00  0.00    +0.000 C 
ATOM      9  N   UNL     1      -0.509  12.143  20.227  0.00  0.00    +0.000 NA
ATOM     10  C   UNL     1       0.794  11.541  19.875  0.00  0.00    +0.000 C 
ATOM     11  C   UNL     1       1.939  12.201  18.925  0.00  0.00    +0.000 C 
ATOM     12  C   UNL     1       2.142  13.721  18.810  0.00  0.00    +0.000 A 
ATOM     13  C   UNL     1       2.976  14.306  17.825  0.00  0.00    +0.000 A 
ATOM     14  C   UNL     1       3.022  15.705  17.657  0.00  0.00    +0.000 A 
ATOM     15  C   UNL     1       2.235  16.541  18.463  0.00  0.00    +0.000 A 
ATOM     16  C   UNL     1       1.461  15.966  19.461  0.00  0.00    +0.000 A 
ATOM     17  C   UNL     1       1.447  14.569  19.641  0.00  0.00    +0.000 A 
ATOM     18  C   UNL     1       0.995  11.881  21.079  0.00  0.00    +0.000 C 
ENDROOT
BRANCH   1  20
ATOM     19  C   UNL     1      -0.417   8.557  21.767  0.00  0.00    +0.000 C 
ATOM     20  C   UNL     1      -0.212   9.640  22.809  0.00  0.00    +0.000 C 
ENDBRANCH   1  20
BRANCH  15  21
ATOM     21  O   UNL     1       2.208  17.881  18.293  0.00  0.00    +0.000 OA
ATOM     22  H   UNL     1       1.390  18.378  18.158  0.00  0.00    +0.000 HD
ENDBRANCH  15  21
BRANCH   9  23
ATOM     23  C   UNL     1      -1.521  11.134  19.509  0.00  0.00    +0.000 C 
BRANCH  23  24
ATOM     24  C   UNL     1      -1.374  10.624  18.021  0.00  0.00    +0.000 C 
ATOM     25  C   UNL     1      -2.722   9.864  17.692  0.00  0.00    +0.000 C 
ATOM     26  C   UNL     1      -2.370  11.102  16.949  0.00  0.00    +0.000 C 
ENDBRANCH  23  24
ENDBRANCH   9  23
TORSDOF 4
ENDMDL
MODEL 4
REMARK VINA RESULT:      -6.0      1.982      3.604
REMARK  Name = 
REMARK  5 active torsions:
REMARK  status: ('A' for Active; 'I' for Inactive)
REMARK    1  A    between atoms: C_1  and  C_2
REMARK    2  A    between atoms: C_2  and  C_3
REMARK    3  A    between atoms: N_11  and  C_12
REMARK    4  A    between atoms: C_12  and  C_13
REMARK    5  A    between atoms: C_21  and  O_22
REMARK                            x       y       z     vdW  Elec       q    Type
REMARK                         _______ _______ _______ _____ _____    ______ ____
ROOT
ATOM      1  C   UNL     1       1.743  13.376  19.879  0.00  0.00    +0.000 C 
ATOM      2  C   UNL     1       0.647  12.550  18.542  0.00  0.00    +0.000 C 
ATOM      3  C   UNL     1      -1.161  12.250  18.731  0.00  0.00    +0.000 C 
ATOM      4  O   UNL     1      -1.762  11.835  17.757  0.00  0.00    +0.000 OA
ATOM      5  C   UNL     1      -2.110  12.362  20.264  0.00  0.00    +0.000 C 
ATOM      6  C   UNL     1      -0.977  12.592  21.837  0.00  0.00    +0.000 C 
ATOM      7  C   UNL     1      -0.342  11.435  22.104  0.00  0.00    +0.000 C 
ATOM      8  C   UNL     1       0.086  11.866  20.775  0.00  0.00    +0.000 C 
ATOM      9  N   UNL     1      -0.399  13.948  20.274  0.00  0.00    +0.000 NA
ATOM     10  C   UNL     1       0.043  14.856  21.352  0.00  0.00    +0.000 C 
ATOM     11  C   UNL     1      -0.800  15.260  22.684  0.00  0.00    +0.000 C 
ATOM     12  C   UNL     1      -1.818  14.310  23.337  0.00  0.00    +0.000 A 
ATOM     13  C   UNL     1      -2.712  14.732  24.352  0.00  0.00    +0.000 A 
ATOM     14  C   UNL     1      -3.726  13.873  24.822  0.00  0.00    +0.000 A 
ATOM     15  C   UNL     1      -3.868  12.584  24.285  0.00  0.00    +0.000 A 
ATOM     16  C   UNL     1      -2.957  12.158  23.330  0.00  0.00    +0.000 A 
ATOM     17  C   UNL     1      -1.927  13.013  22.891  0.00  0.00    +0.000 A 
ATOM     18  C   UNL     1       0.745  13.829  21.591  0.00  0.00    +0.000 C 
ENDROOT
BRANCH   1  20
ATOM     19  C   UNL     1       3.340  14.474  18.264  0.00  0.00    +0.000 C 
ATOM     20  C   UNL     1       3.162  13.989  19.690  0.00  0.00    +0.000 C 
ENDBRANCH   1  20
BRANCH  15  21
ATOM     21  O   UNL     1      -4.864  11.755  24.668  0.00  0.00    +0.000 OA
ATOM     22  H   UNL     1      -5.617  12.047  25.198  0.00  0.00    +0.000 HD
ENDBRANCH  15  21
BRANCH   9  23
ATOM     23  C   UNL     1      -0.509  14.959  19.040  0.00  0.00    +0.000 C 
BRANCH  23  24
ATOM     24  C   UNL     1      -0.546  16.533  19.172  0.00  0.00    +0.000 C 
ATOM     25  C   UNL     1       0.728  17.059  18.395  0.00  0.00    +0.000 C 
ATOM     26  C   UNL     1      -0.632  17.402  17.904  0.00  0.00    +0.000 C 
ENDBRANCH  23  24
ENDBRANCH   9  23
TORSDOF 4
ENDMDL
MODEL 5
REMARK VINA RESULT:      -6.0      2.346      6.208
REMARK  Name = 
REMARK  5 active torsions:
REMARK  status: ('A' for Active; 'I' for Inactive)
REMARK    1  A    between atoms: C_1  and  C_2
REMARK    2  A    between atoms: C_2  and  C_3
REMARK    3  A    between atoms: N_11  and  C_12
REMARK    4  A    between atoms: C_12  and  C_13
REMARK    5  A    between atoms: C_21  and  O_22
REMARK                            x       y       z     vdW  Elec       q    Type
REMARK                         _______ _______ _______ _____ _____    ______ ____
ROOT
ATOM      1  C   UNL     1      -1.283  11.210  18.480  0.00  0.00    +0.000 C 
ATOM      2  C   UNL     1      -0.629  10.287  20.025  0.00  0.00    +0.000 C 
ATOM      3  C   UNL     1       0.646  10.965  21.170  0.00  0.00    +0.000 C 
ATOM      4  O   UNL     1       0.880  10.332  22.183  0.00  0.00    +0.000 OA
ATOM      5  C   UNL     1       1.703  12.399  20.866  0.00  0.00    +0.000 C 
ATOM      6  C   UNL     1       1.563  13.065  19.036  0.00  0.00    +0.000 C 
ATOM      7  C   UNL     1       2.180  12.208  18.200  0.00  0.00    +0.000 C 
ATOM      8  C   UNL     1       1.089  11.476  18.840  0.00  0.00    +0.000 C 
ATOM      9  N   UNL     1      -0.385  12.730  19.878  0.00  0.00    +0.000 NA
ATOM     10  C   UNL     1      -0.853  13.818  18.995  0.00  0.00    +0.000 C 
ATOM     11  C   UNL     1      -0.149  15.272  18.797  0.00  0.00    +0.000 C 
ATOM     12  C   UNL     1       1.366  15.485  18.946  0.00  0.00    +0.000 A 
ATOM     13  C   UNL     1       1.953  16.774  18.999  0.00  0.00    +0.000 A 
ATOM     14  C   UNL     1       3.325  16.930  19.283  0.00  0.00    +0.000 A 
ATOM     15  C   UNL     1       4.131  15.807  19.524  0.00  0.00    +0.000 A 
ATOM     16  C   UNL     1       3.562  14.546  19.419  0.00  0.00    +0.000 A 
ATOM     17  C   UNL     1       2.196  14.400  19.103  0.00  0.00    +0.000 A 
ATOM     18  C   UNL     1      -0.379  13.001  18.152  0.00  0.00    +0.000 C 
ENDROOT
BRANCH   1  20
ATOM     19  C   UNL     1      -2.274   9.936  16.542  0.00  0.00    +0.000 C 
ATOM     20  C   UNL     1      -2.578  10.901  17.673  0.00  0.00    +0.000 C 
ENDBRANCH   1  20
BRANCH  15  21
ATOM     21  O   UNL     1       5.435  15.920  19.857  0.00  0.00    +0.000 OA
ATOM     22  H   UNL     1       5.936  16.740  19.752  0.00  0.00    +0.000 HD
ENDBRANCH  15  21
BRANCH   9  23
ATOM     23  C   UNL     1      -1.573  12.664  20.947  0.00  0.00    +0.000 C 
BRANCH  23  24
ATOM     24  C   UNL     1      -1.918  13.812  21.975  0.00  0.00    +0.000 C 
ATOM     25  C   UNL     1      -1.273  13.367  23.350  0.00  0.00    +0.000 C 
ATOM     26  C   UNL     1      -0.780  14.588  22.662  0.00  0.00    +0.000 C 
ENDBRANCH  23  24
ENDBRANCH   9  23
TORSDOF 4
ENDMDL
MODEL 6
REMARK VINA RESULT:      -6.0      2.950      6.320
REMARK  Name = 
REMARK  5 active torsions:
REMARK  status: ('A' for Active; 'I' for Inactive)
REMARK    1  A    between atoms: C_1  and  C_2
REMARK    2  A    between atoms: C_2  and  C_3
REMARK    3  A    between atoms: N_11  and  C_12
REMARK    4  A    between atoms: C_12  and  C_13
REMARK    5  A    between atoms: C_21  and  O_22
REMARK                            x       y       z     vdW  Elec       q    Type
REMARK                         _______ _______ _______ _____ _____    ______ ____
ROOT
ATOM      1  C   UNL     1      -1.414  12.171  21.707  0.00  0.00    +0.000 C 
ATOM      2  C   UNL     1      -2.302  11.778  20.056  0.00  0.00    +0.000 C 
ATOM      3  C   UNL     1      -1.666  12.274  18.399  0.00  0.00    +0.000 C 
ATOM      4  O   UNL     1      -2.260  11.851  17.424  0.00  0.00    +0.000 OA
ATOM      5  C   UNL     1      -0.339  13.457  18.072  0.00  0.00    +0.000 C 
ATOM      6  C   UNL     1       0.236  14.408  19.677  0.00  0.00    +0.000 C 
ATOM      7  C   UNL     1      -0.712  15.297  20.033  0.00  0.00    +0.000 C 
ATOM      8  C   UNL     1      -1.318  13.969  20.099  0.00  0.00    +0.000 C 
ATOM      9  N   UNL     1       0.102  12.296  20.047  0.00  0.00    +0.000 NA
ATOM     10  C   UNL     1       1.175  12.496  21.043  0.00  0.00    +0.000 C 
ATOM     11  C   UNL     1       2.556  13.329  20.823  0.00  0.00    +0.000 C 
ATOM     12  C   UNL     1       2.656  14.526  19.863  0.00  0.00    +0.000 A 
ATOM     13  C   UNL     1       3.895  15.108  19.498  0.00  0.00    +0.000 A 
ATOM     14  C   UNL     1       3.957  16.107  18.504  0.00  0.00    +0.000 A 
ATOM     15  C   UNL     1       2.788  16.536  17.858  0.00  0.00    +0.000 A 
ATOM     16  C   UNL     1       1.572  16.001  18.257  0.00  0.00    +0.000 A 
ATOM     17  C   UNL     1       1.518  15.026  19.273  0.00  0.00    +0.000 A 
ATOM     18  C   UNL     1       0.279  13.275  21.485  0.00  0.00    +0.000 C 
ENDROOT
BRANCH   1  20
ATOM     19  C   UNL     1      -0.879  10.216  23.208  0.00  0.00    +0.000 C 
ATOM     20  C   UNL     1      -1.663  11.509  23.094  0.00  0.00    +0.000 C 
ENDBRANCH   1  20
BRANCH  15  21
ATOM     21  O   UNL     1       2.815  17.448  16.861  0.00  0.00    +0.000 OA
ATOM     22  H   UNL     1       2.239  18.224  16.841  0.00  0.00    +0.000 HD
ENDBRANCH  15  21
BRANCH   9  23
ATOM     23  C   UNL     1       0.189  10.717  19.810  0.00  0.00    +0.000 C 
BRANCH  23  24
ATOM     24  C   UNL     1       1.463   9.961  19.262  0.00  0.00    +0.000 C 
ATOM     25  C   UNL     1       1.047   9.387  17.847  0.00  0.00    +0.000 C 
ATOM     26  C   UNL     1       2.112  10.418  17.944  0.00  0.00    +0.000 C 
ENDBRANCH  23  24
ENDBRANCH   9  23
TORSDOF 4
ENDMDL
MODEL 7
REMARK VINA RESULT:      -5.9      2.089      5.985
REMARK  Name = 
REMARK  5 active torsions:
REMARK  status: ('A' for Active; 'I' for Inactive)
REMARK    1  A    between atoms: C_1  and  C_2
REMARK    2  A    between atoms: C_2  and  C_3
REMARK    3  A    between atoms: N_11  and  C_12
REMARK    4  A    between atoms: C_12  and  C_13
REMARK    5  A    between atoms: C_21  and  O_22
REMARK                            x       y       z     vdW  Elec       q    Type
REMARK                         _______ _______ _______ _____ _____    ______ ____
ROOT
ATOM      1  C   UNL     1      -1.280  10.876  18.620  0.00  0.00    +0.000 C 
ATOM      2  C   UNL     1      -0.528  10.020  20.159  0.00  0.00    +0.000 C 
ATOM      3  C   UNL     1       0.760  10.780  21.236  0.00  0.00    +0.000 C 
ATOM      4  O   UNL     1       1.059  10.183  22.254  0.00  0.00    +0.000 OA
ATOM      5  C   UNL     1       1.742  12.249  20.857  0.00  0.00    +0.000 C 
ATOM      6  C   UNL     1       1.503  12.862  19.019  0.00  0.00    +0.000 C 
ATOM      7  C   UNL     1       2.123  12.010  18.179  0.00  0.00    +0.000 C 
ATOM      8  C   UNL     1       1.090  11.250  18.879  0.00  0.00    +0.000 C 
ATOM      9  N   UNL     1      -0.395  12.466  19.945  0.00  0.00    +0.000 NA
ATOM     10  C   UNL     1      -0.943  13.511  19.056  0.00  0.00    +0.000 C 
ATOM     11  C   UNL     1      -0.311  14.989  18.796  0.00  0.00    +0.000 C 
ATOM     12  C   UNL     1       1.199  15.269  18.880  0.00  0.00    +0.000 A 
ATOM     13  C   UNL     1       1.731  16.582  18.878  0.00  0.00    +0.000 A 
ATOM     14  C   UNL     1       3.106  16.803  19.104  0.00  0.00    +0.000 A 
ATOM     15  C   UNL     1       3.967  15.721  19.339  0.00  0.00    +0.000 A 
ATOM     16  C   UNL     1       3.450  14.435  19.287  0.00  0.00    +0.000 A 
ATOM     17  C   UNL     1       2.080  14.224  19.029  0.00  0.00    +0.000 A 
ATOM     18  C   UNL     1      -0.467  12.694  18.213  0.00  0.00    +0.000 C 
ENDROOT
BRANCH   1  20
ATOM     19  C   UNL     1      -2.271   9.971  16.483  0.00  0.00    +0.000 C 
ATOM     20  C   UNL     1      -2.591  10.492  17.872  0.00  0.00    +0.000 C 
ENDBRANCH   1  20
BRANCH  15  21
ATOM     21  O   UNL     1       5.278  15.897  19.618  0.00  0.00    +0.000 OA
ATOM     22  H   UNL     1       5.873  16.402  19.048  0.00  0.00    +0.000 HD
ENDBRANCH  15  21
BRANCH   9  23
ATOM     23  C   UNL     1      -1.537  12.378  21.061  0.00  0.00    +0.000 C 
BRANCH  23  24
ATOM     24  C   UNL     1      -2.729  13.403  21.207  0.00  0.00    +0.000 C 
ATOM     25  C   UNL     1      -4.002  12.669  20.620  0.00  0.00    +0.000 C 
ATOM     26  C   UNL     1      -3.955  13.030  22.061  0.00  0.00    +0.000 C 
ENDBRANCH  23  24
ENDBRANCH   9  23
TORSDOF 4
ENDMDL
MODEL 8
REMARK VINA RESULT:      -5.9      2.673      6.404
REMARK  Name = 
REMARK  5 active torsions:
REMARK  status: ('A' for Active; 'I' for Inactive)
REMARK    1  A    between atoms: C_1  and  C_2
REMARK    2  A    between atoms: C_2  and  C_3
REMARK    3  A    between atoms: N_11  and  C_12
REMARK    4  A    between atoms: C_12  and  C_13
REMARK    5  A    between atoms: C_21  and  O_22
REMARK                            x       y       z     vdW  Elec       q    Type
REMARK                         _______ _______ _______ _____ _____    ______ ____
ROOT
ATOM      1  C   UNL     1      -1.524  12.384  21.728  0.00  0.00    +0.000 C 
ATOM      2  C   UNL     1      -2.265  11.854  20.044  0.00  0.00    +0.000 C 
ATOM      3  C   UNL     1      -1.521  12.277  18.411  0.00  0.00    +0.000 C 
ATOM      4  O   UNL     1      -2.021  11.771  17.423  0.00  0.00    +0.000 OA
ATOM      5  C   UNL     1      -0.219  13.493  18.110  0.00  0.00    +0.000 C 
ATOM      6  C   UNL     1       0.193  14.563  19.690  0.00  0.00    +0.000 C 
ATOM      7  C   UNL     1      -0.813  15.430  19.918  0.00  0.00    +0.000 C 
ATOM      8  C   UNL     1      -1.372  14.084  20.022  0.00  0.00    +0.000 C 
ATOM      9  N   UNL     1       0.111  12.473  20.183  0.00  0.00    +0.000 NA
ATOM     10  C   UNL     1       1.095  12.779  21.242  0.00  0.00    +0.000 C 
ATOM     11  C   UNL     1       2.457  13.655  21.074  0.00  0.00    +0.000 C 
ATOM     12  C   UNL     1       2.585  14.795  20.051  0.00  0.00    +0.000 A 
ATOM     13  C   UNL     1       3.825  15.407  19.744  0.00  0.00    +0.000 A 
ATOM     14  C   UNL     1       3.926  16.346  18.696  0.00  0.00    +0.000 A 
ATOM     15  C   UNL     1       2.796  16.685  17.938  0.00  0.00    +0.000 A 
ATOM     16  C   UNL     1       1.574  16.123  18.277  0.00  0.00    +0.000 A 
ATOM     17  C   UNL     1       1.479  15.209  19.347  0.00  0.00    +0.000 A 
ATOM     18  C   UNL     1       0.138  13.543  21.565  0.00  0.00    +0.000 C 
ENDROOT
BRANCH   1  20
ATOM     19  C   UNL     1      -3.210  12.290  23.603  0.00  0.00    +0.000 C 
ATOM     20  C   UNL     1      -1.855  11.796  23.132  0.00  0.00    +0.000 C 
ENDBRANCH   1  20
BRANCH  15  21
ATOM     21  O   UNL     1       2.866  17.535  16.890  0.00  0.00    +0.000 OA
ATOM     22  H   UNL     1       2.319  18.329  16.819  0.00  0.00    +0.000 HD
ENDBRANCH  15  21
BRANCH   9  23
ATOM     23  C   UNL     1       0.276  10.888  20.054  0.00  0.00    +0.000 C 
BRANCH  23  24
ATOM     24  C   UNL     1       0.938   9.963  21.150  0.00  0.00    +0.000 C 
ATOM     25  C   UNL     1      -0.147   8.865  21.499  0.00  0.00    +0.000 C 
ATOM     26  C   UNL     1       1.135   8.463  20.864  0.00  0.00    +0.000 C 
ENDBRANCH  23  24
ENDBRANCH   9  23
TORSDOF 4
ENDMDL
MODEL 9
REMARK VINA RESULT:      -5.8      3.320      5.872
REMARK  Name = 
REMARK  5 active torsions:
REMARK  status: ('A' for Active; 'I' for Inactive)
REMARK    1  A    between atoms: C_1  and  C_2
REMARK    2  A    between atoms: C_2  and  C_3
REMARK    3  A    between atoms: N_11  and  C_12
REMARK    4  A    between atoms: C_12  and  C_13
REMARK    5  A    between atoms: C_21  and  O_22
REMARK                            x       y       z     vdW  Elec       q    Type
REMARK                         _______ _______ _______ _____ _____    ______ ____
ROOT
ATOM      1  C   UNL     1      -0.437  10.128  20.779  0.00  0.00    +0.000 C 
ATOM      2  C   UNL     1      -1.644   9.900  19.309  0.00  0.00    +0.000 C 
ATOM      3  C   UNL     1      -1.806  11.093  17.913  0.00  0.00    +0.000 C 
ATOM      4  O   UNL     1      -2.516  10.766  16.980  0.00  0.00    +0.000 OA
ATOM      5  C   UNL     1      -1.140  12.772  17.857  0.00  0.00    +0.000 C 
ATOM      6  C   UNL     1      -0.410  13.351  19.572  0.00  0.00    +0.000 C 
ATOM      7  C   UNL     1      -1.421  13.588  20.431  0.00  0.00    +0.000 C 
ATOM      8  C   UNL     1      -1.492  12.177  20.060  0.00  0.00    +0.000 C 
ATOM      9  N   UNL     1       0.299  11.388  19.065  0.00  0.00    +0.000 NA
ATOM     10  C   UNL     1       1.513  11.727  19.836  0.00  0.00    +0.000 C 
ATOM     11  C   UNL     1       2.379  13.101  19.722  0.00  0.00    +0.000 C 
ATOM     12  C   UNL     1       1.745  14.448  19.336  0.00  0.00    +0.000 A 
ATOM     13  C   UNL     1       2.520  15.590  19.017  0.00  0.00    +0.000 A 
ATOM     14  C   UNL     1       1.909  16.763  18.527  0.00  0.00    +0.000 A 
ATOM     15  C   UNL     1       0.519  16.812  18.343  0.00  0.00    +0.000 A 
ATOM     16  C   UNL     1      -0.240  15.709  18.707  0.00  0.00    +0.000 A 
ATOM     17  C   UNL     1       0.379  14.554  19.226  0.00  0.00    +0.000 A 
ATOM     18  C   UNL     1       0.612  11.867  20.716  0.00  0.00    +0.000 C 
ENDROOT
BRANCH   1  20
ATOM     19  C   UNL     1      -0.173   9.530  23.215  0.00  0.00    +0.000 C 
ATOM     20  C   UNL     1       0.030   9.043  21.793  0.00  0.00    +0.000 C 
ENDBRANCH   1  20
BRANCH  15  21
ATOM     21  O   UNL     1      -0.096  17.896  17.820  0.00  0.00    +0.000 OA
ATOM     22  H   UNL     1       0.331  18.760  17.750  0.00  0.00    +0.000 HD
ENDBRANCH  15  21
BRANCH   9  23
ATOM     23  C   UNL     1       0.821  10.154  18.191  0.00  0.00    +0.000 C 
BRANCH  23  24
ATOM     24  C   UNL     1       2.269   9.530  18.295  0.00  0.00    +0.000 C 
ATOM     25  C   UNL     1       2.078   8.115  18.977  0.00  0.00    +0.000 C 
ATOM     26  C   UNL     1       2.580   8.203  17.581  0.00  0.00    +0.000 C 
ENDBRANCH  23  24
ENDBRANCH   9  23
TORSDOF 4
ENDMDL
