MODEL 1
REMARK VINA RESULT:      -8.3      0.000      0.000
REMARK  Name = 
REMARK  3 active torsions:
REMARK  status: ('A' for Active; 'I' for Inactive)
REMARK    1  A    between atoms: C_4  and  N_5
REMARK    2  A    between atoms: C_13  and  N_14
REMARK    3  A    between atoms: N_14  and  C_15
REMARK                            x       y       z     vdW  Elec       q    Type
REMARK                         _______ _______ _______ _____ _____    ______ ____
ROOT
ATOM      1  N   UNL     1       1.923   8.038  20.117  0.00  0.00    +0.000 N 
ATOM      2  C   UNL     1       2.114   6.679  20.126  0.00  0.00    +0.000 A 
ATOM      3  N   UNL     1       1.247   5.783  20.505  0.00  0.00    +0.000 NA
ATOM      4  C   UNL     1       1.673   4.493  20.457  0.00  0.00    +0.000 A 
ATOM      5  N   UNL     1       1.008   3.447  20.839  0.00  0.00    +0.000 NA
ATOM      6  C   UNL     1       1.917   2.423  20.624  0.00  0.00    +0.000 A 
ATOM      7  N   UNL     1       3.086   2.733  20.131  0.00  0.00    +0.000 NA
ATOM      8  C   UNL     1       3.004   4.093  19.994  0.00  0.00    +0.000 A 
ATOM      9  C   UNL     1       3.874   5.057  19.641  0.00  0.00    +0.000 A 
ATOM     10  N   UNL     1       3.386   6.350  19.705  0.00  0.00    +0.000 N 
ATOM     11  H   UNL     1       2.619   8.592  19.646  0.00  0.00    +0.000 HD
ATOM     12  H   UNL     1       4.025   7.060  19.395  0.00  0.00    +0.000 HD
ENDROOT
BRANCH   1  16
ATOM     13  C   UNL     1      -0.698  10.583  22.252  0.00  0.00    +0.000 A 
ATOM     14  C   UNL     1      -0.619  10.631  20.866  0.00  0.00    +0.000 A 
ATOM     15  C   UNL     1       0.228   9.752  20.187  0.00  0.00    +0.000 A 
ATOM     16  C   UNL     1       1.026   8.817  20.875  0.00  0.00    +0.000 A 
ATOM     17  C   UNL     1       0.929   8.785  22.268  0.00  0.00    +0.000 A 
ATOM     18  C   UNL     1       0.069   9.656  22.952  0.00  0.00    +0.000 A 
ENDBRANCH   1  16
BRANCH   9  19
ATOM     19  N   UNL     1       5.201   4.860  19.300  0.00  0.00    +0.000 N 
ATOM     20  H   UNL     1       5.861   5.297  19.931  0.00  0.00    +0.000 HD
BRANCH  19  21
ATOM     21  C   UNL     1       5.725   4.576  17.963  0.00  0.00    +0.000 C 
ATOM     22  C   UNL     1       5.150   5.572  16.944  0.00  0.00    +0.000 C 
ATOM     23  C   UNL     1       5.643   7.007  17.142  0.00  0.00    +0.000 C 
ATOM     24  C   UNL     1       7.161   7.117  17.257  0.00  0.00    +0.000 C 
ATOM     25  C   UNL     1       7.785   6.083  18.191  0.00  0.00    +0.000 C 
ATOM     26  C   UNL     1       7.256   4.666  17.963  0.00  0.00    +0.000 C 
ENDBRANCH  19  21
ENDBRANCH   9  19
TORSDOF 3
ENDMDL
MODEL 2
REMARK VINA RESULT:      -8.3      0.790      1.823
REMARK  Name = 
REMARK  3 active torsions:
REMARK  status: ('A' for Active; 'I' for Inactive)
REMARK    1  A    between atoms: C_4  and  N_5
REMARK    2  A    between atoms: C_13  and  N_14
REMARK    3  A    between atoms: N_14  and  C_15
REMARK                            x       y       z     vdW  Elec       q    Type
REMARK                         _______ _______ _______ _____ _____    ______ ____
ROOT
ATOM      1  N   UNL     1       1.765   8.237  19.968  0.00  0.00    +0.000 N 
ATOM      2  C   UNL     1       2.090   6.908  20.066  0.00  0.00    +0.000 A 
ATOM      3  N   UNL     1       1.417   5.998  20.710  0.00  0.00    +0.000 NA
ATOM      4  C   UNL     1       1.950   4.748  20.694  0.00  0.00    +0.000 A 
ATOM      5  N   UNL     1       1.490   3.704  21.311  0.00  0.00    +0.000 NA
ATOM      6  C   UNL     1       2.432   2.735  21.002  0.00  0.00    +0.000 A 
ATOM      7  N   UNL     1       3.434   3.077  20.237  0.00  0.00    +0.000 NA
ATOM      8  C   UNL     1       3.189   4.401  19.991  0.00  0.00    +0.000 A 
ATOM      9  C   UNL     1       3.863   5.383  19.365  0.00  0.00    +0.000 A 
ATOM     10  N   UNL     1       3.272   6.633  19.410  0.00  0.00    +0.000 N 
ATOM     11  H   UNL     1       2.287   8.786  19.305  0.00  0.00    +0.000 HD
ATOM     12  H   UNL     1       3.756   7.349  18.901  0.00  0.00    +0.000 HD
ENDROOT
BRANCH   1  16
ATOM     13  C   UNL     1      -0.662  10.394  22.683  0.00  0.00    +0.000 A 
ATOM     14  C   UNL     1       0.299   9.497  23.133  0.00  0.00    +0.000 A 
ATOM     15  C   UNL     1       1.111   8.828  22.213  0.00  0.00    +0.000 A 
ATOM     16  C   UNL     1       0.972   9.027  20.826  0.00  0.00    +0.000 A 
ATOM     17  C   UNL     1       0.001   9.934  20.396  0.00  0.00    +0.000 A 
ATOM     18  C   UNL     1      -0.805  10.618  21.317  0.00  0.00    +0.000 A 
ENDBRANCH   1  16
BRANCH   9  19
ATOM     19  N   UNL     1       5.102   5.252  18.762  0.00  0.00    +0.000 N 
ATOM     20  H   UNL     1       5.761   4.688  19.284  0.00  0.00    +0.000 HD
BRANCH  19  21
ATOM     21  C   UNL     1       5.711   6.179  17.808  0.00  0.00    +0.000 C 
ATOM     22  C   UNL     1       7.217   5.901  17.681  0.00  0.00    +0.000 C 
ATOM     23  C   UNL     1       7.540   4.560  17.017  0.00  0.00    +0.000 C 
ATOM     24  C   UNL     1       6.804   4.344  15.697  0.00  0.00    +0.000 C 
ATOM     25  C   UNL     1       5.320   4.698  15.754  0.00  0.00    +0.000 C 
ATOM     26  C   UNL     1       5.045   6.040  16.434  0.00  0.00    +0.000 C 
ENDBRANCH  19  21
ENDBRANCH   9  19
TORSDOF 3
ENDMDL
MODEL 3
REMARK VINA RESULT:      -8.2      0.766      1.522
REMARK  Name = 
REMARK  3 active torsions:
REMARK  status: ('A' for Active; 'I' for Inactive)
REMARK    1  A    between atoms: C_4  and  N_5
REMARK    2  A    between atoms: C_13  and  N_14
REMARK    3  A    between atoms: N_14  and  C_15
REMARK                            x       y       z     vdW  Elec       q    Type
REMARK                         _______ _______ _______ _____ _____    ______ ____
ROOT
ATOM      1  N   UNL     1       1.792   8.083  20.012  0.00  0.00    +0.000 N 
ATOM      2  C   UNL     1       2.111   6.750  20.072  0.00  0.00    +0.000 A 
ATOM      3  N   UNL     1       1.425   5.821  20.674  0.00  0.00    +0.000 NA
ATOM      4  C   UNL     1       1.955   4.571  20.626  0.00  0.00    +0.000 A 
ATOM      5  N   UNL     1       1.481   3.508  21.201  0.00  0.00    +0.000 NA
ATOM      6  C   UNL     1       2.426   2.548  20.875  0.00  0.00    +0.000 A 
ATOM      7  N   UNL     1       3.441   2.911  20.139  0.00  0.00    +0.000 NA
ATOM      8  C   UNL     1       3.204   4.243  19.932  0.00  0.00    +0.000 A 
ATOM      9  C   UNL     1       3.891   5.243  19.350  0.00  0.00    +0.000 A 
ATOM     10  N   UNL     1       3.303   6.492  19.426  0.00  0.00    +0.000 N 
ATOM     11  H   UNL     1       2.326   8.652  19.376  0.00  0.00    +0.000 HD
ATOM     12  H   UNL     1       3.797   7.224  18.949  0.00  0.00    +0.000 HD
ENDROOT
BRANCH   1  16
ATOM     13  C   UNL     1      -0.564  10.585  22.483  0.00  0.00    +0.000 A 
ATOM     14  C   UNL     1      -0.630  10.674  21.098  0.00  0.00    +0.000 A 
ATOM     15  C   UNL     1       0.132   9.808  20.309  0.00  0.00    +0.000 A 
ATOM     16  C   UNL     1       0.987   8.847  20.882  0.00  0.00    +0.000 A 
ATOM     17  C   UNL     1       1.036   8.774  22.277  0.00  0.00    +0.000 A 
ATOM     18  C   UNL     1       0.261   9.630  23.072  0.00  0.00    +0.000 A 
ENDBRANCH   1  16
BRANCH   9  19
ATOM     19  N   UNL     1       5.140   5.127  18.763  0.00  0.00    +0.000 N 
ATOM     20  H   UNL     1       5.783   4.533  19.271  0.00  0.00    +0.000 HD
BRANCH  19  21
ATOM     21  C   UNL     1       5.774   6.092  17.865  0.00  0.00    +0.000 C 
ATOM     22  C   UNL     1       7.252   5.728  17.651  0.00  0.00    +0.000 C 
ATOM     23  C   UNL     1       7.457   4.432  16.863  0.00  0.00    +0.000 C 
ATOM     24  C   UNL     1       6.659   4.378  15.564  0.00  0.00    +0.000 C 
ATOM     25  C   UNL     1       5.206   4.821  15.714  0.00  0.00    +0.000 C 
ATOM     26  C   UNL     1       5.049   6.115  16.514  0.00  0.00    +0.000 C 
ENDBRANCH  19  21
ENDBRANCH   9  19
TORSDOF 3
ENDMDL
MODEL 4
REMARK VINA RESULT:      -8.2      4.165      6.570
REMARK  Name = 
REMARK  3 active torsions:
REMARK  status: ('A' for Active; 'I' for Inactive)
REMARK    1  A    between atoms: C_4  and  N_5
REMARK    2  A    between atoms: C_13  and  N_14
REMARK    3  A    between atoms: N_14  and  C_15
REMARK                            x       y       z     vdW  Elec       q    Type
REMARK                         _______ _______ _______ _____ _____    ______ ____
ROOT
ATOM      1  N   UNL     1       3.969   2.580  18.180  0.00  0.00    +0.000 N 
ATOM      2  C   UNL     1       4.861   3.475  17.644  0.00  0.00    +0.000 A 
ATOM      3  N   UNL     1       5.291   4.565  18.212  0.00  0.00    +0.000 NA
ATOM      4  C   UNL     1       6.151   5.315  17.474  0.00  0.00    +0.000 A 
ATOM      5  N   UNL     1       6.659   6.461  17.808  0.00  0.00    +0.000 NA
ATOM      6  C   UNL     1       7.405   6.794  16.687  0.00  0.00    +0.000 A 
ATOM      7  N   UNL     1       7.419   5.954  15.688  0.00  0.00    +0.000 NA
ATOM      8  C   UNL     1       6.607   4.944  16.131  0.00  0.00    +0.000 A 
ATOM      9  C   UNL     1       6.111   3.823  15.576  0.00  0.00    +0.000 A 
ATOM     10  N   UNL     1       5.245   3.097  16.374  0.00  0.00    +0.000 N 
ATOM     11  H   UNL     1       3.857   1.704  17.697  0.00  0.00    +0.000 HD
ATOM     12  H   UNL     1       4.916   2.238  15.971  0.00  0.00    +0.000 HD
ENDROOT
BRANCH   1  16
ATOM     13  C   UNL     1       1.126   2.973  21.291  0.00  0.00    +0.000 A 
ATOM     14  C   UNL     1       2.457   2.683  21.565  0.00  0.00    +0.000 A 
ATOM     15  C   UNL     1       3.380   2.597  20.519  0.00  0.00    +0.000 A 
ATOM     16  C   UNL     1       2.993   2.783  19.178  0.00  0.00    +0.000 A 
ATOM     17  C   UNL     1       1.651   3.076  18.925  0.00  0.00    +0.000 A 
ATOM     18  C   UNL     1       0.726   3.178  19.973  0.00  0.00    +0.000 A 
ENDBRANCH   1  16
BRANCH   9  19
ATOM     19  N   UNL     1       6.340   3.396  14.279  0.00  0.00    +0.000 N 
ATOM     20  H   UNL     1       7.095   2.728  14.190  0.00  0.00    +0.000 HD
BRANCH  19  21
ATOM     21  C   UNL     1       6.014   4.121  13.051  0.00  0.00    +0.000 C 
ATOM     22  C   UNL     1       7.271   4.287  12.182  0.00  0.00    +0.000 C 
ATOM     23  C   UNL     1       7.795   2.972  11.602  0.00  0.00    +0.000 C 
ATOM     24  C   UNL     1       6.719   2.146  10.902  0.00  0.00    +0.000 C 
ATOM     25  C   UNL     1       5.418   2.032  11.692  0.00  0.00    +0.000 C 
ATOM     26  C   UNL     1       4.938   3.369  12.260  0.00  0.00    +0.000 C 
ENDBRANCH  19  21
ENDBRANCH   9  19
TORSDOF 3
ENDMDL
MODEL 5
REMARK VINA RESULT:      -8.2      4.153      6.485
REMARK  Name = 
REMARK  3 active torsions:
REMARK  status: ('A' for Active; 'I' for Inactive)
REMARK    1  A    between atoms: C_4  and  N_5
REMARK    2  A    between atoms: C_13  and  N_14
REMARK    3  A    between atoms: N_14  and  C_15
REMARK                            x       y       z     vdW  Elec       q    Type
REMARK                         _______ _______ _______ _____ _____    ______ ____
ROOT
ATOM      1  N   UNL     1       4.057   2.448  18.232  0.00  0.00    +0.000 N 
ATOM      2  C   UNL     1       4.910   3.385  17.705  0.00  0.00    +0.000 A 
ATOM      3  N   UNL     1       5.306   4.479  18.289  0.00  0.00    +0.000 NA
ATOM      4  C   UNL     1       6.131   5.274  17.557  0.00  0.00    +0.000 A 
ATOM      5  N   UNL     1       6.600   6.432  17.908  0.00  0.00    +0.000 NA
ATOM      6  C   UNL     1       7.322   6.812  16.788  0.00  0.00    +0.000 A 
ATOM      7  N   UNL     1       7.357   5.992  15.772  0.00  0.00    +0.000 NA
ATOM      8  C   UNL     1       6.587   4.945  16.203  0.00  0.00    +0.000 A 
ATOM      9  C   UNL     1       6.126   3.817  15.632  0.00  0.00    +0.000 A 
ATOM     10  N   UNL     1       5.295   3.045  16.424  0.00  0.00    +0.000 N 
ATOM     11  H   UNL     1       3.972   1.578  17.733  0.00  0.00    +0.000 HD
ATOM     12  H   UNL     1       4.993   2.183  16.008  0.00  0.00    +0.000 HD
ENDROOT
BRANCH   1  16
ATOM     13  C   UNL     1       1.051   3.104  21.137  0.00  0.00    +0.000 A 
ATOM     14  C   UNL     1       0.766   3.174  19.779  0.00  0.00    +0.000 A 
ATOM     15  C   UNL     1       1.772   2.915  18.844  0.00  0.00    +0.000 A 
ATOM     16  C   UNL     1       3.084   2.597  19.242  0.00  0.00    +0.000 A 
ATOM     17  C   UNL     1       3.348   2.530  20.612  0.00  0.00    +0.000 A 
ATOM     18  C   UNL     1       2.338   2.775  21.553  0.00  0.00    +0.000 A 
ENDBRANCH   1  16
BRANCH   9  19
ATOM     19  N   UNL     1       6.358   3.423  14.325  0.00  0.00    +0.000 N 
ATOM     20  H   UNL     1       7.114   2.758  14.221  0.00  0.00    +0.000 HD
BRANCH  19  21
ATOM     21  C   UNL     1       6.034   4.178  13.115  0.00  0.00    +0.000 C 
ATOM     22  C   UNL     1       7.272   4.295  12.212  0.00  0.00    +0.000 C 
ATOM     23  C   UNL     1       7.715   2.962  11.603  0.00  0.00    +0.000 C 
ATOM     24  C   UNL     1       6.581   2.198  10.925  0.00  0.00    +0.000 C 
ATOM     25  C   UNL     1       5.298   2.138  11.751  0.00  0.00    +0.000 C 
ATOM     26  C   UNL     1       4.900   3.489  12.347  0.00  0.00    +0.000 C 
ENDBRANCH  19  21
ENDBRANCH   9  19
TORSDOF 3
ENDMDL
MODEL 6
REMARK VINA RESULT:      -8.1      4.372      6.838
REMARK  Name = 
REMARK  3 active torsions:
REMARK  status: ('A' for Active; 'I' for Inactive)
REMARK    1  A    between atoms: C_4  and  N_5
REMARK    2  A    between atoms: C_13  and  N_14
REMARK    3  A    between atoms: N_14  and  C_15
REMARK                            x       y       z     vdW  Elec       q    Type
REMARK                         _______ _______ _______ _____ _____    ______ ____
ROOT
ATOM      1  N   UNL     1       8.182   7.552  18.710  0.00  0.00    +0.000 N 
ATOM      2  C   UNL     1       7.673   6.621  17.840  0.00  0.00    +0.000 A 
ATOM      3  N   UNL     1       7.737   6.668  16.540  0.00  0.00    +0.000 NA
ATOM      4  C   UNL     1       7.131   5.644  15.882  0.00  0.00    +0.000 A 
ATOM      5  N   UNL     1       7.017   5.513  14.597  0.00  0.00    +0.000 NA
ATOM      6  C   UNL     1       6.281   4.344  14.482  0.00  0.00    +0.000 A 
ATOM      7  N   UNL     1       5.935   3.726  15.579  0.00  0.00    +0.000 NA
ATOM      8  C   UNL     1       6.461   4.528  16.556  0.00  0.00    +0.000 A 
ATOM      9  C   UNL     1       6.396   4.540  17.900  0.00  0.00    +0.000 A 
ATOM     10  N   UNL     1       7.033   5.603  18.516  0.00  0.00    +0.000 N 
ATOM     11  H   UNL     1       8.203   7.301  19.685  0.00  0.00    +0.000 HD
ATOM     12  H   UNL     1       7.022   5.580  19.520  0.00  0.00    +0.000 HD
ENDROOT
BRANCH   1  16
ATOM     13  C   UNL     1       9.020  11.681  18.309  0.00  0.00    +0.000 A 
ATOM     14  C   UNL     1       9.669  10.904  19.261  0.00  0.00    +0.000 A 
ATOM     15  C   UNL     1       9.398   9.536  19.343  0.00  0.00    +0.000 A 
ATOM     16  C   UNL     1       8.465   8.916  18.490  0.00  0.00    +0.000 A 
ATOM     17  C   UNL     1       7.826   9.715  17.539  0.00  0.00    +0.000 A 
ATOM     18  C   UNL     1       8.106  11.086  17.444  0.00  0.00    +0.000 A 
ENDBRANCH   1  16
BRANCH   9  19
ATOM     19  N   UNL     1       5.700   3.635  18.682  0.00  0.00    +0.000 N 
ATOM     20  H   UNL     1       5.866   2.666  18.442  0.00  0.00    +0.000 HD
BRANCH  19  21
ATOM     21  C   UNL     1       4.451   3.883  19.402  0.00  0.00    +0.000 C 
ATOM     22  C   UNL     1       3.441   4.592  18.485  0.00  0.00    +0.000 C 
ATOM     23  C   UNL     1       2.935   3.716  17.336  0.00  0.00    +0.000 C 
ATOM     24  C   UNL     1       2.436   2.347  17.790  0.00  0.00    +0.000 C 
ATOM     25  C   UNL     1       3.367   1.647  18.776  0.00  0.00    +0.000 C 
ATOM     26  C   UNL     1       3.854   2.562  19.901  0.00  0.00    +0.000 C 
ENDBRANCH  19  21
ENDBRANCH   9  19
TORSDOF 3
ENDMDL
MODEL 7
REMARK VINA RESULT:      -8.1      0.151      1.006
REMARK  Name = 
REMARK  3 active torsions:
REMARK  status: ('A' for Active; 'I' for Inactive)
REMARK    1  A    between atoms: C_4  and  N_5
REMARK    2  A    between atoms: C_13  and  N_14
REMARK    3  A    between atoms: N_14  and  C_15
REMARK                            x       y       z     vdW  Elec       q    Type
REMARK                         _______ _______ _______ _____ _____    ______ ____
ROOT
ATOM      1  N   UNL     1       1.984   8.098  20.094  0.00  0.00    +0.000 N 
ATOM      2  C   UNL     1       2.144   6.736  20.109  0.00  0.00    +0.000 A 
ATOM      3  N   UNL     1       1.253   5.862  20.482  0.00  0.00    +0.000 NA
ATOM      4  C   UNL     1       1.649   4.562  20.442  0.00  0.00    +0.000 A 
ATOM      5  N   UNL     1       0.957   3.532  20.821  0.00  0.00    +0.000 NA
ATOM      6  C   UNL     1       1.844   2.487  20.616  0.00  0.00    +0.000 A 
ATOM      7  N   UNL     1       3.024   2.768  20.133  0.00  0.00    +0.000 NA
ATOM      8  C   UNL     1       2.975   4.129  19.991  0.00  0.00    +0.000 A 
ATOM      9  C   UNL     1       3.870   5.072  19.643  0.00  0.00    +0.000 A 
ATOM     10  N   UNL     1       3.411   6.376  19.699  0.00  0.00    +0.000 N 
ATOM     11  H   UNL     1       2.697   8.635  19.627  0.00  0.00    +0.000 HD
ATOM     12  H   UNL     1       4.069   7.070  19.393  0.00  0.00    +0.000 HD
ENDROOT
BRANCH   1  16
ATOM     13  C   UNL     1      -0.718  10.301  22.493  0.00  0.00    +0.000 A 
ATOM     14  C   UNL     1       0.264   9.502  23.064  0.00  0.00    +0.000 A 
ATOM     15  C   UNL     1       1.166   8.817  22.246  0.00  0.00    +0.000 A 
ATOM     16  C   UNL     1       1.098   8.901  20.842  0.00  0.00    +0.000 A 
ATOM     17  C   UNL     1       0.104   9.712  20.289  0.00  0.00    +0.000 A 
ATOM     18  C   UNL     1      -0.793  10.413  21.107  0.00  0.00    +0.000 A 
ENDBRANCH   1  16
BRANCH   9  19
ATOM     19  N   UNL     1       5.195   4.844  19.314  0.00  0.00    +0.000 N 
ATOM     20  H   UNL     1       5.859   5.270  19.948  0.00  0.00    +0.000 HD
BRANCH  19  21
ATOM     21  C   UNL     1       5.723   4.540  17.984  0.00  0.00    +0.000 C 
ATOM     22  C   UNL     1       5.121   5.496  16.942  0.00  0.00    +0.000 C 
ATOM     23  C   UNL     1       5.579   6.948  17.103  0.00  0.00    +0.000 C 
ATOM     24  C   UNL     1       7.094   7.098  17.212  0.00  0.00    +0.000 C 
ATOM     25  C   UNL     1       7.745   6.103  18.169  0.00  0.00    +0.000 C 
ATOM     26  C   UNL     1       7.251   4.668  17.978  0.00  0.00    +0.000 C 
ENDBRANCH  19  21
ENDBRANCH   9  19
TORSDOF 3
ENDMDL
MODEL 8
REMARK VINA RESULT:      -7.9      3.863      8.066
REMARK  Name = 
REMARK  3 active torsions:
REMARK  status: ('A' for Active; 'I' for Inactive)
REMARK    1  A    between atoms: C_4  and  N_5
REMARK    2  A    between atoms: C_13  and  N_14
REMARK    3  A    between atoms: N_14  and  C_15
REMARK                            x       y       z     vdW  Elec       q    Type
REMARK                         _______ _______ _______ _____ _____    ______ ____
ROOT
ATOM      1  N   UNL     1       4.991   4.618  14.951  0.00  0.00    +0.000 N 
ATOM      2  C   UNL     1       5.512   4.848  16.199  0.00  0.00    +0.000 A 
ATOM      3  N   UNL     1       6.733   5.214  16.467  0.00  0.00    +0.000 NA
ATOM      4  C   UNL     1       7.033   5.351  17.786  0.00  0.00    +0.000 A 
ATOM      5  N   UNL     1       8.192   5.647  18.287  0.00  0.00    +0.000 NA
ATOM      6  C   UNL     1       7.945   5.602  19.651  0.00  0.00    +0.000 A 
ATOM      7  N   UNL     1       6.734   5.317  20.047  0.00  0.00    +0.000 NA
ATOM      8  C   UNL     1       6.066   5.134  18.866  0.00  0.00    +0.000 A 
ATOM      9  C   UNL     1       4.825   4.728  18.539  0.00  0.00    +0.000 A 
ATOM     10  N   UNL     1       4.575   4.610  17.184  0.00  0.00    +0.000 N 
ATOM     11  H   UNL     1       3.992   4.502  14.889  0.00  0.00    +0.000 HD
ATOM     12  H   UNL     1       3.634   4.353  16.947  0.00  0.00    +0.000 HD
ENDROOT
BRANCH   1  16
ATOM     13  C   UNL     1       6.935   3.338  11.417  0.00  0.00    +0.000 A 
ATOM     14  C   UNL     1       5.691   2.834  11.776  0.00  0.00    +0.000 A 
ATOM     15  C   UNL     1       5.057   3.305  12.929  0.00  0.00    +0.000 A 
ATOM     16  C   UNL     1       5.656   4.274  13.756  0.00  0.00    +0.000 A 
ATOM     17  C   UNL     1       6.906   4.768  13.375  0.00  0.00    +0.000 A 
ATOM     18  C   UNL     1       7.538   4.310  12.211  0.00  0.00    +0.000 A 
ENDBRANCH   1  16
BRANCH   9  19
ATOM     19  N   UNL     1       3.835   4.363  19.435  0.00  0.00    +0.000 N 
ATOM     20  H   UNL     1       3.503   5.121  20.018  0.00  0.00    +0.000 HD
BRANCH  19  21
ATOM     21  C   UNL     1       3.597   3.024  19.974  0.00  0.00    +0.000 C 
ATOM     22  C   UNL     1       2.480   3.066  21.029  0.00  0.00    +0.000 C 
ATOM     23  C   UNL     1       1.100   3.386  20.450  0.00  0.00    +0.000 C 
ATOM     24  C   UNL     1       0.727   2.515  19.254  0.00  0.00    +0.000 C 
ATOM     25  C   UNL     1       1.844   2.371  18.224  0.00  0.00    +0.000 C 
ATOM     26  C   UNL     1       3.205   2.060  18.848  0.00  0.00    +0.000 C 
ENDBRANCH  19  21
ENDBRANCH   9  19
TORSDOF 3
ENDMDL
MODEL 9
REMARK VINA RESULT:      -7.8      4.404      6.803
REMARK  Name = 
REMARK  3 active torsions:
REMARK  status: ('A' for Active; 'I' for Inactive)
REMARK    1  A    between atoms: C_4  and  N_5
REMARK    2  A    between atoms: C_13  and  N_14
REMARK    3  A    between atoms: N_14  and  C_15
REMARK                            x       y       z     vdW  Elec       q    Type
REMARK                         _______ _______ _______ _____ _____    ______ ____
ROOT
ATOM      1  N   UNL     1       8.196   7.534  18.852  0.00  0.00    +0.000 N 
ATOM      2  C   UNL     1       7.722   6.613  17.952  0.00  0.00    +0.000 A 
ATOM      3  N   UNL     1       7.828   6.679  16.656  0.00  0.00    +0.000 NA
ATOM      4  C   UNL     1       7.250   5.662  15.964  0.00  0.00    +0.000 A 
ATOM      5  N   UNL     1       7.179   5.549  14.673  0.00  0.00    +0.000 NA
ATOM      6  C   UNL     1       6.453   4.378  14.517  0.00  0.00    +0.000 A 
ATOM      7  N   UNL     1       6.075   3.743  15.593  0.00  0.00    +0.000 NA
ATOM      8  C   UNL     1       6.563   4.533  16.599  0.00  0.00    +0.000 A 
ATOM      9  C   UNL     1       6.454   4.525  17.940  0.00  0.00    +0.000 A 
ATOM     10  N   UNL     1       7.065   5.582  18.592  0.00  0.00    +0.000 N 
ATOM     11  H   UNL     1       8.186   7.269  19.823  0.00  0.00    +0.000 HD
ATOM     12  H   UNL     1       7.020   5.544  19.594  0.00  0.00    +0.000 HD
ENDROOT
BRANCH   1  16
ATOM     13  C   UNL     1       9.048  11.596  18.025  0.00  0.00    +0.000 A 
ATOM     14  C   UNL     1       8.071  10.907  17.316  0.00  0.00    +0.000 A 
ATOM     15  C   UNL     1       7.787   9.577  17.639  0.00  0.00    +0.000 A 
ATOM     16  C   UNL     1       8.479   8.902  18.662  0.00  0.00    +0.000 A 
ATOM     17  C   UNL     1       9.456   9.614  19.363  0.00  0.00    +0.000 A 
ATOM     18  C   UNL     1       9.734  10.953  19.053  0.00  0.00    +0.000 A 
ENDBRANCH   1  16
BRANCH   9  19
ATOM     19  N   UNL     1       5.737   3.605  18.685  0.00  0.00    +0.000 N 
ATOM     20  H   UNL     1       5.896   2.642  18.419  0.00  0.00    +0.000 HD
BRANCH  19  21
ATOM     21  C   UNL     1       4.481   3.847  19.395  0.00  0.00    +0.000 C 
ATOM     22  C   UNL     1       3.480   4.564  18.475  0.00  0.00    +0.000 C 
ATOM     23  C   UNL     1       2.986   3.700  17.312  0.00  0.00    +0.000 C 
ATOM     24  C   UNL     1       2.482   2.327  17.748  0.00  0.00    +0.000 C 
ATOM     25  C   UNL     1       3.404   1.617  18.736  0.00  0.00    +0.000 C 
ATOM     26  C   UNL     1       3.879   2.521  19.875  0.00  0.00    +0.000 C 
ENDBRANCH  19  21
ENDBRANCH   9  19
TORSDOF 3
ENDMDL
