MODEL 1
REMARK VINA RESULT:      -7.8      0.000      0.000
REMARK  Name = 
REMARK  4 active torsions:
REMARK  status: ('A' for Active; 'I' for Inactive)
REMARK    1  A    between atoms: C_1  and  C_2
REMARK    2  A    between atoms: C_5  and  N_6
REMARK    3  A    between atoms: C_14  and  C_15
REMARK    4  A    between atoms: C_23  and  C_25
REMARK                            x       y       z     vdW  Elec       q    Type
REMARK                         _______ _______ _______ _____ _____    ______ ____
ROOT
ATOM      1  N   UNL     1       3.440  15.463  19.187  0.00  0.00    +0.000 N 
ATOM      2  C   UNL     1       2.491  14.646  18.620  0.00  0.00    +0.000 C 
ATOM      3  O   UNL     1       2.718  13.845  17.716  0.00  0.00    +0.000 OA
ATOM      4  N   UNL     1       1.211  14.774  19.142  0.00  0.00    +0.000 N 
ATOM      5  C   UNL     1       0.749  15.766  20.137  0.00  0.00    +0.000 C 
ATOM      6  C   UNL     1       0.202  15.059  21.391  0.00  0.00    +0.000 C 
ATOM      7  C   UNL     1      -0.725  13.991  20.937  0.00  0.00    +0.000 A 
ATOM      8  C   UNL     1      -0.760  13.457  19.666  0.00  0.00    +0.000 A 
ATOM      9  C   UNL     1      -1.818  12.505  19.695  0.00  0.00    +0.000 A 
ATOM     10  N   UNL     1      -2.424  12.518  20.897  0.00  0.00    +0.000 NA
ATOM     11  N   UNL     1      -1.741  13.421  21.654  0.00  0.00    +0.000 N 
ATOM     12  C   UNL     1      -2.141  13.710  22.977  0.00  0.00    +0.000 C 
ATOM     13  O   UNL     1      -1.302  14.191  23.739  0.00  0.00    +0.000 OA
ATOM     14  C   UNL     1       0.165  13.894  18.578  0.00  0.00    +0.000 C 
ATOM     15  H   UNL     1       3.218  15.873  20.076  0.00  0.00    +0.000 HD
ENDROOT
BRANCH   1  20
ATOM     16  C   UNL     1       8.940  16.210  17.790  0.00  0.00    +0.000 C 
ATOM     17  C   UNL     1       7.497  16.001  18.130  0.00  0.00    +0.000 A 
ATOM     18  C   UNL     1       6.840  14.823  17.765  0.00  0.00    +0.000 A 
ATOM     19  C   UNL     1       5.495  14.628  18.094  0.00  0.00    +0.000 A 
ATOM     20  C   UNL     1       4.790  15.601  18.798  0.00  0.00    +0.000 A 
ATOM     21  C   UNL     1       5.439  16.794  19.140  0.00  0.00    +0.000 A 
ATOM     22  C   UNL     1       6.784  16.991  18.814  0.00  0.00    +0.000 A 
ENDBRANCH   1  20
BRANCH   9  23
ATOM     23  C   UNL     1      -2.280  11.596  18.634  0.00  0.00    +0.000 A 
ATOM     24  C   UNL     1      -1.398  10.657  18.077  0.00  0.00    +0.000 A 
ATOM     25  C   UNL     1      -1.808   9.809  17.042  0.00  0.00    +0.000 A 
ATOM     26  C   UNL     1      -3.108   9.886  16.555  0.00  0.00    +0.000 A 
ATOM     27  C   UNL     1      -4.003  10.798  17.108  0.00  0.00    +0.000 A 
ATOM     28  C   UNL     1      -3.593  11.644  18.145  0.00  0.00    +0.000 A 
ENDBRANCH   9  23
BRANCH  12  29
ATOM     29  C   UNL     1      -3.535  13.549  23.459  0.00  0.00    +0.000 A 
ATOM     30  C   UNL     1      -4.536  14.404  22.992  0.00  0.00    +0.000 A 
ATOM     31  C   UNL     1      -5.862  14.195  23.373  0.00  0.00    +0.000 A 
ATOM     32  C   UNL     1      -6.189  13.121  24.202  0.00  0.00    +0.000 A 
ATOM     33  C   UNL     1      -5.197  12.251  24.651  0.00  0.00    +0.000 A 
ATOM     34  C   UNL     1      -3.871  12.460  24.279  0.00  0.00    +0.000 A 
ENDBRANCH  12  29
TORSDOF 3
ENDMDL
MODEL 2
REMARK VINA RESULT:      -7.8      4.341      5.790
REMARK  Name = 
REMARK  4 active torsions:
REMARK  status: ('A' for Active; 'I' for Inactive)
REMARK    1  A    between atoms: C_1  and  C_2
REMARK    2  A    between atoms: C_5  and  N_6
REMARK    3  A    between atoms: C_14  and  C_15
REMARK    4  A    between atoms: C_23  and  C_25
REMARK                            x       y       z     vdW  Elec       q    Type
REMARK                         _______ _______ _______ _____ _____    ______ ____
ROOT
ATOM      1  N   UNL     1       0.864  10.339  19.848  0.00  0.00    +0.000 N 
ATOM      2  C   UNL     1      -0.444  10.706  19.628  0.00  0.00    +0.000 C 
ATOM      3  O   UNL     1      -1.278   9.996  19.071  0.00  0.00    +0.000 OA
ATOM      4  N   UNL     1      -0.789  11.970  20.087  0.00  0.00    +0.000 N 
ATOM      5  C   UNL     1       0.118  12.988  20.663  0.00  0.00    +0.000 C 
ATOM      6  C   UNL     1      -0.316  13.349  22.096  0.00  0.00    +0.000 C 
ATOM      7  C   UNL     1      -1.781  13.601  22.073  0.00  0.00    +0.000 A 
ATOM      8  C   UNL     1      -2.643  13.183  21.081  0.00  0.00    +0.000 A 
ATOM      9  C   UNL     1      -3.919  13.680  21.467  0.00  0.00    +0.000 A 
ATOM     10  N   UNL     1      -3.812  14.413  22.592  0.00  0.00    +0.000 NA
ATOM     11  N   UNL     1      -2.503  14.348  22.961  0.00  0.00    +0.000 N 
ATOM     12  C   UNL     1      -2.033  15.045  24.096  0.00  0.00    +0.000 C 
ATOM     13  O   UNL     1      -0.991  14.653  24.620  0.00  0.00    +0.000 OA
ATOM     14  C   UNL     1      -2.192  12.394  19.894  0.00  0.00    +0.000 C 
ATOM     15  H   UNL     1       1.377  10.865  20.531  0.00  0.00    +0.000 HD
ENDROOT
BRANCH   1  20
ATOM     16  C   UNL     1       3.562   5.683  17.899  0.00  0.00    +0.000 C 
ATOM     17  C   UNL     1       2.837   6.884  18.423  0.00  0.00    +0.000 A 
ATOM     18  C   UNL     1       2.340   6.904  19.729  0.00  0.00    +0.000 A 
ATOM     19  C   UNL     1       1.674   8.032  20.218  0.00  0.00    +0.000 A 
ATOM     20  C   UNL     1       1.501   9.157  19.415  0.00  0.00    +0.000 A 
ATOM     21  C   UNL     1       1.975   9.127  18.097  0.00  0.00    +0.000 A 
ATOM     22  C   UNL     1       2.642   8.002  17.606  0.00  0.00    +0.000 A 
ENDBRANCH   1  20
BRANCH   9  23
ATOM     23  C   UNL     1      -5.225  13.500  20.813  0.00  0.00    +0.000 A 
ATOM     24  C   UNL     1      -5.801  14.554  20.088  0.00  0.00    +0.000 A 
ATOM     25  C   UNL     1      -7.059  14.415  19.490  0.00  0.00    +0.000 A 
ATOM     26  C   UNL     1      -7.754  13.216  19.606  0.00  0.00    +0.000 A 
ATOM     27  C   UNL     1      -7.189  12.152  20.305  0.00  0.00    +0.000 A 
ATOM     28  C   UNL     1      -5.930  12.292  20.901  0.00  0.00    +0.000 A 
ENDBRANCH   9  23
BRANCH  12  29
ATOM     29  C   UNL     1      -2.681  16.271  24.623  0.00  0.00    +0.000 A 
ATOM     30  C   UNL     1      -1.940  17.447  24.759  0.00  0.00    +0.000 A 
ATOM     31  C   UNL     1      -2.571  18.622  25.167  0.00  0.00    +0.000 A 
ATOM     32  C   UNL     1      -3.945  18.627  25.418  0.00  0.00    +0.000 A 
ATOM     33  C   UNL     1      -4.692  17.462  25.261  0.00  0.00    +0.000 A 
ATOM     34  C   UNL     1      -4.065  16.284  24.861  0.00  0.00    +0.000 A 
ENDBRANCH  12  29
TORSDOF 3
ENDMDL
MODEL 3
REMARK VINA RESULT:      -7.8      4.398      7.208
REMARK  Name = 
REMARK  4 active torsions:
REMARK  status: ('A' for Active; 'I' for Inactive)
REMARK    1  A    between atoms: C_1  and  C_2
REMARK    2  A    between atoms: C_5  and  N_6
REMARK    3  A    between atoms: C_14  and  C_15
REMARK    4  A    between atoms: C_23  and  C_25
REMARK                            x       y       z     vdW  Elec       q    Type
REMARK                         _______ _______ _______ _____ _____    ______ ____
ROOT
ATOM      1  N   UNL     1       1.315   7.059  21.084  0.00  0.00    +0.000 N 
ATOM      2  C   UNL     1       1.560   8.308  20.563  0.00  0.00    +0.000 C 
ATOM      3  O   UNL     1       2.053   8.511  19.455  0.00  0.00    +0.000 OA
ATOM      4  N   UNL     1       1.206   9.372  21.381  0.00  0.00    +0.000 N 
ATOM      5  C   UNL     1       0.719   9.300  22.776  0.00  0.00    +0.000 C 
ATOM      6  C   UNL     1      -0.680   9.932  22.894  0.00  0.00    +0.000 C 
ATOM      7  C   UNL     1      -0.640  11.245  22.199  0.00  0.00    +0.000 A 
ATOM      8  C   UNL     1       0.310  11.626  21.276  0.00  0.00    +0.000 A 
ATOM      9  C   UNL     1      -0.038  12.959  20.917  0.00  0.00    +0.000 A 
ATOM     10  N   UNL     1      -1.097  13.373  21.636  0.00  0.00    +0.000 NA
ATOM     11  N   UNL     1      -1.466  12.314  22.409  0.00  0.00    +0.000 N 
ATOM     12  C   UNL     1      -2.538  12.420  23.322  0.00  0.00    +0.000 C 
ATOM     13  O   UNL     1      -3.090  11.381  23.684  0.00  0.00    +0.000 OA
ATOM     14  C   UNL     1       1.429  10.732  20.847  0.00  0.00    +0.000 C 
ATOM     15  H   UNL     1       0.679   7.005  21.859  0.00  0.00    +0.000 HD
ENDROOT
BRANCH   1  20
ATOM     16  C   UNL     1       2.929   2.079  18.770  0.00  0.00    +0.000 C 
ATOM     17  C   UNL     1       2.479   3.378  19.365  0.00  0.00    +0.000 A 
ATOM     18  C   UNL     1       1.210   3.500  19.937  0.00  0.00    +0.000 A 
ATOM     19  C   UNL     1       0.799   4.712  20.501  0.00  0.00    +0.000 A 
ATOM     20  C   UNL     1       1.650   5.815  20.510  0.00  0.00    +0.000 A 
ATOM     21  C   UNL     1       2.912   5.701  19.913  0.00  0.00    +0.000 A 
ATOM     22  C   UNL     1       3.326   4.491  19.349  0.00  0.00    +0.000 A 
ENDBRANCH   1  20
BRANCH   9  23
ATOM     23  C   UNL     1       0.594  13.852  19.933  0.00  0.00    +0.000 A 
ATOM     24  C   UNL     1       1.712  13.418  19.203  0.00  0.00    +0.000 A 
ATOM     25  C   UNL     1       2.350  14.266  18.290  0.00  0.00    +0.000 A 
ATOM     26  C   UNL     1       1.874  15.557  18.092  0.00  0.00    +0.000 A 
ATOM     27  C   UNL     1       0.755  15.999  18.794  0.00  0.00    +0.000 A 
ATOM     28  C   UNL     1       0.117  15.150  19.705  0.00  0.00    +0.000 A 
ENDBRANCH   9  23
BRANCH  12  29
ATOM     29  C   UNL     1      -2.964  13.704  23.931  0.00  0.00    +0.000 A 
ATOM     30  C   UNL     1      -2.055  14.456  24.678  0.00  0.00    +0.000 A 
ATOM     31  C   UNL     1      -2.428  15.706  25.171  0.00  0.00    +0.000 A 
ATOM     32  C   UNL     1      -3.700  16.213  24.902  0.00  0.00    +0.000 A 
ATOM     33  C   UNL     1      -4.603  15.476  24.137  0.00  0.00    +0.000 A 
ATOM     34  C   UNL     1      -4.237  14.225  23.647  0.00  0.00    +0.000 A 
ENDBRANCH  12  29
TORSDOF 3
ENDMDL
MODEL 4
REMARK VINA RESULT:      -7.7      4.424      7.296
REMARK  Name = 
REMARK  4 active torsions:
REMARK  status: ('A' for Active; 'I' for Inactive)
REMARK    1  A    between atoms: C_1  and  C_2
REMARK    2  A    between atoms: C_5  and  N_6
REMARK    3  A    between atoms: C_14  and  C_15
REMARK    4  A    between atoms: C_23  and  C_25
REMARK                            x       y       z     vdW  Elec       q    Type
REMARK                         _______ _______ _______ _____ _____    ______ ____
ROOT
ATOM      1  N   UNL     1       1.387   7.008  21.057  0.00  0.00    +0.000 N 
ATOM      2  C   UNL     1       1.672   8.247  20.533  0.00  0.00    +0.000 C 
ATOM      3  O   UNL     1       2.198   8.431  19.437  0.00  0.00    +0.000 OA
ATOM      4  N   UNL     1       1.319   9.324  21.334  0.00  0.00    +0.000 N 
ATOM      5  C   UNL     1       0.794   9.273  22.716  0.00  0.00    +0.000 C 
ATOM      6  C   UNL     1      -0.594   9.935  22.792  0.00  0.00    +0.000 C 
ATOM      7  C   UNL     1      -0.509  11.242  22.089  0.00  0.00    +0.000 A 
ATOM      8  C   UNL     1       0.474  11.596  21.189  0.00  0.00    +0.000 A 
ATOM      9  C   UNL     1       0.164  12.933  20.811  0.00  0.00    +0.000 A 
ATOM     10  N   UNL     1      -0.906  13.375  21.499  0.00  0.00    +0.000 NA
ATOM     11  N   UNL     1      -1.317  12.329  22.269  0.00  0.00    +0.000 N 
ATOM     12  C   UNL     1      -2.410  12.464  23.153  0.00  0.00    +0.000 C 
ATOM     13  O   UNL     1      -2.993  11.440  23.507  0.00  0.00    +0.000 OA
ATOM     14  C   UNL     1       1.584  10.676  20.796  0.00  0.00    +0.000 C 
ATOM     15  H   UNL     1       0.729   6.972  21.815  0.00  0.00    +0.000 HD
ENDROOT
BRANCH   1  20
ATOM     16  C   UNL     1       2.443   1.866  18.775  0.00  0.00    +0.000 C 
ATOM     17  C   UNL     1       2.194   3.212  19.383  0.00  0.00    +0.000 A 
ATOM     18  C   UNL     1       3.197   4.184  19.400  0.00  0.00    +0.000 A 
ATOM     19  C   UNL     1       2.956   5.443  19.960  0.00  0.00    +0.000 A 
ATOM     20  C   UNL     1       1.711   5.752  20.501  0.00  0.00    +0.000 A 
ATOM     21  C   UNL     1       0.713   4.769  20.508  0.00  0.00    +0.000 A 
ATOM     22  C   UNL     1       0.950   3.510  19.949  0.00  0.00    +0.000 A 
ENDBRANCH   1  20
BRANCH   9  23
ATOM     23  C   UNL     1       0.840  13.805  19.839  0.00  0.00    +0.000 A 
ATOM     24  C   UNL     1       1.963  13.340  19.136  0.00  0.00    +0.000 A 
ATOM     25  C   UNL     1       2.642  14.167  18.234  0.00  0.00    +0.000 A 
ATOM     26  C   UNL     1       2.204  15.469  18.019  0.00  0.00    +0.000 A 
ATOM     27  C   UNL     1       1.080  15.942  18.693  0.00  0.00    +0.000 A 
ATOM     28  C   UNL     1       0.400  15.113  19.593  0.00  0.00    +0.000 A 
ENDBRANCH   9  23
BRANCH  12  29
ATOM     29  C   UNL     1      -2.825  13.762  23.741  0.00  0.00    +0.000 A 
ATOM     30  C   UNL     1      -4.128  14.228  23.552  0.00  0.00    +0.000 A 
ATOM     31  C   UNL     1      -4.544  15.401  24.182  0.00  0.00    +0.000 A 
ATOM     32  C   UNL     1      -3.667  16.096  25.016  0.00  0.00    +0.000 A 
ATOM     33  C   UNL     1      -2.373  15.622  25.226  0.00  0.00    +0.000 A 
ATOM     34  C   UNL     1      -1.951  14.455  24.594  0.00  0.00    +0.000 A 
ENDBRANCH  12  29
TORSDOF 3
ENDMDL
MODEL 5
REMARK VINA RESULT:      -7.7      4.369      5.744
REMARK  Name = 
REMARK  4 active torsions:
REMARK  status: ('A' for Active; 'I' for Inactive)
REMARK    1  A    between atoms: C_1  and  C_2
REMARK    2  A    between atoms: C_5  and  N_6
REMARK    3  A    between atoms: C_14  and  C_15
REMARK    4  A    between atoms: C_23  and  C_25
REMARK                            x       y       z     vdW  Elec       q    Type
REMARK                         _______ _______ _______ _____ _____    ______ ____
ROOT
ATOM      1  N   UNL     1       0.753  10.304  19.640  0.00  0.00    +0.000 N 
ATOM      2  C   UNL     1      -0.551  10.664  19.394  0.00  0.00    +0.000 C 
ATOM      3  O   UNL     1      -1.360   9.964  18.789  0.00  0.00    +0.000 OA
ATOM      4  N   UNL     1      -0.925  11.908  19.885  0.00  0.00    +0.000 N 
ATOM      5  C   UNL     1      -0.048  12.915  20.522  0.00  0.00    +0.000 C 
ATOM      6  C   UNL     1      -0.528  13.222  21.952  0.00  0.00    +0.000 C 
ATOM      7  C   UNL     1      -1.994  13.460  21.893  0.00  0.00    +0.000 A 
ATOM      8  C   UNL     1      -2.821  13.066  20.863  0.00  0.00    +0.000 A 
ATOM      9  C   UNL     1      -4.114  13.536  21.227  0.00  0.00    +0.000 A 
ATOM     10  N   UNL     1      -4.049  14.231  22.379  0.00  0.00    +0.000 NA
ATOM     11  N   UNL     1      -2.751  14.168  22.784  0.00  0.00    +0.000 N 
ATOM     12  C   UNL     1      -2.323  14.831  23.956  0.00  0.00    +0.000 C 
ATOM     13  O   UNL     1      -1.292  14.433  24.498  0.00  0.00    +0.000 OA
ATOM     14  C   UNL     1      -2.326  12.323  19.664  0.00  0.00    +0.000 C 
ATOM     15  H   UNL     1       1.240  10.811  20.356  0.00  0.00    +0.000 HD
ENDROOT
BRANCH   1  20
ATOM     16  C   UNL     1       3.342   5.467  18.007  0.00  0.00    +0.000 C 
ATOM     17  C   UNL     1       2.684   6.748  18.418  0.00  0.00    +0.000 A 
ATOM     18  C   UNL     1       2.515   7.790  17.502  0.00  0.00    +0.000 A 
ATOM     19  C   UNL     1       1.890   8.980  17.887  0.00  0.00    +0.000 A 
ATOM     20  C   UNL     1       1.417   9.144  19.187  0.00  0.00    +0.000 A 
ATOM     21  C   UNL     1       1.610   8.110  20.113  0.00  0.00    +0.000 A 
ATOM     22  C   UNL     1       2.233   6.920  19.731  0.00  0.00    +0.000 A 
ENDBRANCH   1  20
BRANCH   9  23
ATOM     23  C   UNL     1      -5.398  13.364  20.529  0.00  0.00    +0.000 A 
ATOM     24  C   UNL     1      -6.000  12.097  20.465  0.00  0.00    +0.000 A 
ATOM     25  C   UNL     1      -7.203  11.905  19.775  0.00  0.00    +0.000 A 
ATOM     26  C   UNL     1      -7.820  12.979  19.144  0.00  0.00    +0.000 A 
ATOM     27  C   UNL     1      -7.247  14.247  19.212  0.00  0.00    +0.000 A 
ATOM     28  C   UNL     1      -6.046  14.438  19.905  0.00  0.00    +0.000 A 
ENDBRANCH   9  23
BRANCH  12  29
ATOM     29  C   UNL     1      -3.001  16.032  24.504  0.00  0.00    +0.000 A 
ATOM     30  C   UNL     1      -2.249  17.150  24.870  0.00  0.00    +0.000 A 
ATOM     31  C   UNL     1      -2.893  18.311  25.298  0.00  0.00    +0.000 A 
ATOM     32  C   UNL     1      -4.288  18.361  25.341  0.00  0.00    +0.000 A 
ATOM     33  C   UNL     1      -5.043  17.255  24.954  0.00  0.00    +0.000 A 
ATOM     34  C   UNL     1      -4.404  16.092  24.533  0.00  0.00    +0.000 A 
ENDBRANCH  12  29
TORSDOF 3
ENDMDL
MODEL 6
REMARK VINA RESULT:      -7.7      4.663      8.240
REMARK  Name = 
REMARK  4 active torsions:
REMARK  status: ('A' for Active; 'I' for Inactive)
REMARK    1  A    between atoms: C_1  and  C_2
REMARK    2  A    between atoms: C_5  and  N_6
REMARK    3  A    between atoms: C_14  and  C_15
REMARK    4  A    between atoms: C_23  and  C_25
REMARK                            x       y       z     vdW  Elec       q    Type
REMARK                         _______ _______ _______ _____ _____    ______ ____
ROOT
ATOM      1  N   UNL     1       2.335   7.386  19.229  0.00  0.00    +0.000 N 
ATOM      2  C   UNL     1       1.463   8.122  19.999  0.00  0.00    +0.000 C 
ATOM      3  O   UNL     1       1.023   7.756  21.086  0.00  0.00    +0.000 OA
ATOM      4  N   UNL     1       1.092   9.348  19.465  0.00  0.00    +0.000 N 
ATOM      5  C   UNL     1       1.433   9.878  18.127  0.00  0.00    +0.000 C 
ATOM      6  C   UNL     1       2.215  11.199  18.252  0.00  0.00    +0.000 C 
ATOM      7  C   UNL     1       1.488  12.063  19.218  0.00  0.00    +0.000 A 
ATOM      8  C   UNL     1       0.558  11.620  20.134  0.00  0.00    +0.000 A 
ATOM      9  C   UNL     1       0.113  12.794  20.806  0.00  0.00    +0.000 A 
ATOM     10  N   UNL     1       0.697  13.884  20.273  0.00  0.00    +0.000 NA
ATOM     11  N   UNL     1       1.545  13.425  19.311  0.00  0.00    +0.000 N 
ATOM     12  C   UNL     1       2.299  14.320  18.521  0.00  0.00    +0.000 C 
ATOM     13  O   UNL     1       3.315  13.890  17.976  0.00  0.00    +0.000 OA
ATOM     14  C   UNL     1       0.177  10.181  20.273  0.00  0.00    +0.000 C 
ATOM     15  H   UNL     1       2.833   7.877  18.508  0.00  0.00    +0.000 HD
ENDROOT
BRANCH   1  20
ATOM     16  C   UNL     1       4.491   2.179  20.226  0.00  0.00    +0.000 C 
ATOM     17  C   UNL     1       3.900   3.530  19.961  0.00  0.00    +0.000 A 
ATOM     18  C   UNL     1       2.622   3.852  20.422  0.00  0.00    +0.000 A 
ATOM     19  C   UNL     1       2.079   5.118  20.181  0.00  0.00    +0.000 A 
ATOM     20  C   UNL     1       2.806   6.081  19.486  0.00  0.00    +0.000 A 
ATOM     21  C   UNL     1       4.077   5.750  19.000  0.00  0.00    +0.000 A 
ATOM     22  C   UNL     1       4.623   4.485  19.239  0.00  0.00    +0.000 A 
ENDBRANCH   1  20
BRANCH   9  23
ATOM     23  C   UNL     1      -0.842  12.925  21.917  0.00  0.00    +0.000 A 
ATOM     24  C   UNL     1      -0.783  14.039  22.769  0.00  0.00    +0.000 A 
ATOM     25  C   UNL     1      -1.659  14.165  23.853  0.00  0.00    +0.000 A 
ATOM     26  C   UNL     1      -2.608  13.178  24.097  0.00  0.00    +0.000 A 
ATOM     27  C   UNL     1      -2.693  12.074  23.252  0.00  0.00    +0.000 A 
ATOM     28  C   UNL     1      -1.819  11.952  22.166  0.00  0.00    +0.000 A 
ENDBRANCH   9  23
BRANCH  12  29
ATOM     29  C   UNL     1       1.878  15.716  18.246  0.00  0.00    +0.000 A 
ATOM     30  C   UNL     1       2.687  16.548  17.468  0.00  0.00    +0.000 A 
ATOM     31  C   UNL     1       2.247  17.828  17.133  0.00  0.00    +0.000 A 
ATOM     32  C   UNL     1       0.992  18.270  17.557  0.00  0.00    +0.000 A 
ATOM     33  C   UNL     1       0.172  17.435  18.313  0.00  0.00    +0.000 A 
ATOM     34  C   UNL     1       0.610  16.158  18.656  0.00  0.00    +0.000 A 
ENDBRANCH  12  29
TORSDOF 3
ENDMDL
MODEL 7
REMARK VINA RESULT:      -7.7      4.731      8.035
REMARK  Name = 
REMARK  4 active torsions:
REMARK  status: ('A' for Active; 'I' for Inactive)
REMARK    1  A    between atoms: C_1  and  C_2
REMARK    2  A    between atoms: C_5  and  N_6
REMARK    3  A    between atoms: C_14  and  C_15
REMARK    4  A    between atoms: C_23  and  C_25
REMARK                            x       y       z     vdW  Elec       q    Type
REMARK                         _______ _______ _______ _____ _____    ______ ____
ROOT
ATOM      1  N   UNL     1       2.563   7.378  19.040  0.00  0.00    +0.000 N 
ATOM      2  C   UNL     1       1.528   7.993  19.707  0.00  0.00    +0.000 C 
ATOM      3  O   UNL     1       0.976   7.532  20.703  0.00  0.00    +0.000 OA
ATOM      4  N   UNL     1       1.124   9.211  19.178  0.00  0.00    +0.000 N 
ATOM      5  C   UNL     1       1.599   9.841  17.926  0.00  0.00    +0.000 C 
ATOM      6  C   UNL     1       2.230  11.215  18.218  0.00  0.00    +0.000 C 
ATOM      7  C   UNL     1       1.299  11.959  19.105  0.00  0.00    +0.000 A 
ATOM      8  C   UNL     1       0.295  11.389  19.859  0.00  0.00    +0.000 A 
ATOM      9  C   UNL     1      -0.345  12.482  20.508  0.00  0.00    +0.000 A 
ATOM     10  N   UNL     1       0.204  13.646  20.111  0.00  0.00    +0.000 NA
ATOM     11  N   UNL     1       1.217  13.314  19.263  0.00  0.00    +0.000 N 
ATOM     12  C   UNL     1       1.989  14.313  18.629  0.00  0.00    +0.000 C 
ATOM     13  O   UNL     1       3.106  14.001  18.218  0.00  0.00    +0.000 OA
ATOM     14  C   UNL     1       0.032   9.918  19.880  0.00  0.00    +0.000 C 
ATOM     15  H   UNL     1       3.109   7.948  18.420  0.00  0.00    +0.000 HD
ENDROOT
BRANCH   1  20
ATOM     16  C   UNL     1       4.544   2.120  20.129  0.00  0.00    +0.000 C 
ATOM     17  C   UNL     1       4.051   3.507  19.853  0.00  0.00    +0.000 A 
ATOM     18  C   UNL     1       4.900   4.469  19.299  0.00  0.00    +0.000 A 
ATOM     19  C   UNL     1       4.433   5.759  19.033  0.00  0.00    +0.000 A 
ATOM     20  C   UNL     1       3.112   6.106  19.307  0.00  0.00    +0.000 A 
ATOM     21  C   UNL     1       2.267   5.150  19.887  0.00  0.00    +0.000 A 
ATOM     22  C   UNL     1       2.731   3.859  20.154  0.00  0.00    +0.000 A 
ENDBRANCH   1  20
BRANCH   9  23
ATOM     23  C   UNL     1      -1.454  12.470  21.475  0.00  0.00    +0.000 A 
ATOM     24  C   UNL     1      -2.654  13.137  21.179  0.00  0.00    +0.000 A 
ATOM     25  C   UNL     1      -3.707  13.168  22.100  0.00  0.00    +0.000 A 
ATOM     26  C   UNL     1      -3.575  12.528  23.328  0.00  0.00    +0.000 A 
ATOM     27  C   UNL     1      -2.399  11.847  23.631  0.00  0.00    +0.000 A 
ATOM     28  C   UNL     1      -1.348  11.814  22.708  0.00  0.00    +0.000 A 
ENDBRANCH   9  23
BRANCH  12  29
ATOM     29  C   UNL     1       1.483  15.681  18.355  0.00  0.00    +0.000 A 
ATOM     30  C   UNL     1       2.344  16.650  17.835  0.00  0.00    +0.000 A 
ATOM     31  C   UNL     1       1.847  17.907  17.492  0.00  0.00    +0.000 A 
ATOM     32  C   UNL     1       0.488  18.189  17.648  0.00  0.00    +0.000 A 
ATOM     33  C   UNL     1      -0.378  17.216  18.144  0.00  0.00    +0.000 A 
ATOM     34  C   UNL     1       0.115  15.962  18.495  0.00  0.00    +0.000 A 
ENDBRANCH  12  29
TORSDOF 3
ENDMDL
MODEL 8
REMARK VINA RESULT:      -7.6      0.733      1.134
REMARK  Name = 
REMARK  4 active torsions:
REMARK  status: ('A' for Active; 'I' for Inactive)
REMARK    1  A    between atoms: C_1  and  C_2
REMARK    2  A    between atoms: C_5  and  N_6
REMARK    3  A    between atoms: C_14  and  C_15
REMARK    4  A    between atoms: C_23  and  C_25
REMARK                            x       y       z     vdW  Elec       q    Type
REMARK                         _______ _______ _______ _____ _____    ______ ____
ROOT
ATOM      1  N   UNL     1       3.467  14.950  19.521  0.00  0.00    +0.000 N 
ATOM      2  C   UNL     1       2.509  14.216  18.862  0.00  0.00    +0.000 C 
ATOM      3  O   UNL     1       2.749  13.412  17.964  0.00  0.00    +0.000 OA
ATOM      4  N   UNL     1       1.203  14.435  19.280  0.00  0.00    +0.000 N 
ATOM      5  C   UNL     1       0.737  15.447  20.253  0.00  0.00    +0.000 C 
ATOM      6  C   UNL     1       0.036  14.768  21.444  0.00  0.00    +0.000 C 
ATOM      7  C   UNL     1      -0.929  13.780  20.895  0.00  0.00    +0.000 A 
ATOM      8  C   UNL     1      -0.899  13.268  19.614  0.00  0.00    +0.000 A 
ATOM      9  C   UNL     1      -2.025  12.400  19.537  0.00  0.00    +0.000 A 
ATOM     10  N   UNL     1      -2.726  12.444  20.686  0.00  0.00    +0.000 NA
ATOM     11  N   UNL     1      -2.042  13.282  21.514  0.00  0.00    +0.000 N 
ATOM     12  C   UNL     1      -2.527  13.582  22.805  0.00  0.00    +0.000 C 
ATOM     13  O   UNL     1      -1.721  13.986  23.643  0.00  0.00    +0.000 OA
ATOM     14  C   UNL     1       0.145  13.647  18.614  0.00  0.00    +0.000 C 
ATOM     15  H   UNL     1       3.203  15.363  20.397  0.00  0.00    +0.000 HD
ENDROOT
BRANCH   1  20
ATOM     16  C   UNL     1       9.124  15.028  18.654  0.00  0.00    +0.000 C 
ATOM     17  C   UNL     1       7.640  15.025  18.858  0.00  0.00    +0.000 A 
ATOM     18  C   UNL     1       6.771  14.962  17.766  0.00  0.00    +0.000 A 
ATOM     19  C   UNL     1       5.386  14.948  17.961  0.00  0.00    +0.000 A 
ATOM     20  C   UNL     1       4.851  14.988  19.246  0.00  0.00    +0.000 A 
ATOM     21  C   UNL     1       5.721  15.077  20.340  0.00  0.00    +0.000 A 
ATOM     22  C   UNL     1       7.106  15.091  20.148  0.00  0.00    +0.000 A 
ENDBRANCH   1  20
BRANCH   9  23
ATOM     23  C   UNL     1      -2.465  11.545  18.425  0.00  0.00    +0.000 A 
ATOM     24  C   UNL     1      -1.607  10.560  17.911  0.00  0.00    +0.000 A 
ATOM     25  C   UNL     1      -1.993   9.760  16.829  0.00  0.00    +0.000 A 
ATOM     26  C   UNL     1      -3.245   9.933  16.250  0.00  0.00    +0.000 A 
ATOM     27  C   UNL     1      -4.118  10.892  16.758  0.00  0.00    +0.000 A 
ATOM     28  C   UNL     1      -3.732  11.689  17.842  0.00  0.00    +0.000 A 
ENDBRANCH   9  23
BRANCH  12  29
ATOM     29  C   UNL     1      -3.965  13.524  23.168  0.00  0.00    +0.000 A 
ATOM     30  C   UNL     1      -4.411  12.580  24.095  0.00  0.00    +0.000 A 
ATOM     31  C   UNL     1      -5.744  12.586  24.505  0.00  0.00    +0.000 A 
ATOM     32  C   UNL     1      -6.626  13.546  24.005  0.00  0.00    +0.000 A 
ATOM     33  C   UNL     1      -6.179  14.505  23.097  0.00  0.00    +0.000 A 
ATOM     34  C   UNL     1      -4.850  14.498  22.679  0.00  0.00    +0.000 A 
ENDBRANCH  12  29
TORSDOF 3
ENDMDL
MODEL 9
REMARK VINA RESULT:      -7.6      4.385      5.728
REMARK  Name = 
REMARK  4 active torsions:
REMARK  status: ('A' for Active; 'I' for Inactive)
REMARK    1  A    between atoms: C_1  and  C_2
REMARK    2  A    between atoms: C_5  and  N_6
REMARK    3  A    between atoms: C_14  and  C_15
REMARK    4  A    between atoms: C_23  and  C_25
REMARK                            x       y       z     vdW  Elec       q    Type
REMARK                         _______ _______ _______ _____ _____    ______ ____
ROOT
ATOM      1  N   UNL     1       0.796  10.135  19.736  0.00  0.00    +0.000 N 
ATOM      2  C   UNL     1      -0.484  10.472  19.363  0.00  0.00    +0.000 C 
ATOM      3  O   UNL     1      -1.250   9.723  18.760  0.00  0.00    +0.000 OA
ATOM      4  N   UNL     1      -0.887  11.752  19.719  0.00  0.00    +0.000 N 
ATOM      5  C   UNL     1      -0.056  12.810  20.334  0.00  0.00    +0.000 C 
ATOM      6  C   UNL     1      -0.640  13.235  21.693  0.00  0.00    +0.000 C 
ATOM      7  C   UNL     1      -2.096  13.465  21.506  0.00  0.00    +0.000 A 
ATOM      8  C   UNL     1      -2.846  12.985  20.453  0.00  0.00    +0.000 A 
ATOM      9  C   UNL     1      -4.160  13.482  20.679  0.00  0.00    +0.000 A 
ATOM     10  N   UNL     1      -4.179  14.271  21.770  0.00  0.00    +0.000 NA
ATOM     11  N   UNL     1      -2.914  14.244  22.276  0.00  0.00    +0.000 N 
ATOM     12  C   UNL     1      -2.572  15.003  23.416  0.00  0.00    +0.000 C 
ATOM     13  O   UNL     1      -1.586  14.653  24.065  0.00  0.00    +0.000 OA
ATOM     14  C   UNL     1      -2.267  12.145  19.361  0.00  0.00    +0.000 C 
ATOM     15  H   UNL     1       1.231  10.702  20.441  0.00  0.00    +0.000 HD
ENDROOT
BRANCH   1  20
ATOM     16  C   UNL     1       3.717   5.425  18.307  0.00  0.00    +0.000 C 
ATOM     17  C   UNL     1       2.934   6.641  18.695  0.00  0.00    +0.000 A 
ATOM     18  C   UNL     1       2.358   6.744  19.964  0.00  0.00    +0.000 A 
ATOM     19  C   UNL     1       1.636   7.885  20.326  0.00  0.00    +0.000 A 
ATOM     20  C   UNL     1       1.487   8.943  19.432  0.00  0.00    +0.000 A 
ATOM     21  C   UNL     1       2.041   8.829  18.150  0.00  0.00    +0.000 A 
ATOM     22  C   UNL     1       2.763   7.690  17.786  0.00  0.00    +0.000 A 
ENDBRANCH   1  20
BRANCH   9  23
ATOM     23  C   UNL     1      -5.389  13.250  19.904  0.00  0.00    +0.000 A 
ATOM     24  C   UNL     1      -5.848  11.941  19.686  0.00  0.00    +0.000 A 
ATOM     25  C   UNL     1      -6.995  11.698  18.921  0.00  0.00    +0.000 A 
ATOM     26  C   UNL     1      -7.699  12.761  18.367  0.00  0.00    +0.000 A 
ATOM     27  C   UNL     1      -7.269  14.067  18.588  0.00  0.00    +0.000 A 
ATOM     28  C   UNL     1      -6.124  14.310  19.355  0.00  0.00    +0.000 A 
ENDBRANCH   9  23
BRANCH  12  29
ATOM     29  C   UNL     1      -3.283  16.244  23.811  0.00  0.00    +0.000 A 
ATOM     30  C   UNL     1      -4.071  16.258  24.964  0.00  0.00    +0.000 A 
ATOM     31  C   UNL     1      -4.664  17.449  25.385  0.00  0.00    +0.000 A 
ATOM     32  C   UNL     1      -4.453  18.627  24.667  0.00  0.00    +0.000 A 
ATOM     33  C   UNL     1      -3.648  18.622  23.529  0.00  0.00    +0.000 A 
ATOM     34  C   UNL     1      -3.059  17.434  23.101  0.00  0.00    +0.000 A 
ENDBRANCH  12  29
TORSDOF 3
ENDMDL
