MODEL 1
REMARK VINA RESULT:      -8.3      0.000      0.000
REMARK  Name = 
REMARK  7 active torsions:
REMARK  status: ('A' for Active; 'I' for Inactive)
REMARK    1  A    between atoms: C_2  and  C_19
REMARK    2  A    between atoms: N_3  and  C_4
REMARK    3  A    between atoms: C_4  and  C_5
REMARK    4  A    between atoms: C_5  and  C_6
REMARK    5  A    between atoms: C_9  and  C_10
REMARK    6  A    between atoms: C_10  and  N_11
REMARK    7  A    between atoms: C_22  and  C_23
REMARK                            x       y       z     vdW  Elec       q    Type
REMARK                         _______ _______ _______ _____ _____    ______ ____
ROOT
ATOM      1  O   UNL     1       2.787   4.197  17.832  0.00  0.00    +0.000 OA
ATOM      2  C   UNL     1       3.349   5.193  18.266  0.00  0.00    +0.000 C 
ATOM      3  N   UNL     1       4.697   5.429  18.172  0.00  0.00    +0.000 N 
ATOM      4  H   UNL     1       5.105   6.099  18.811  0.00  0.00    +0.000 HD
ENDROOT
BRANCH   2   5
ATOM      5  C   UNL     1       2.586   6.240  18.988  0.00  0.00    +0.000 A 
ATOM      6  C   UNL     1       2.482   7.502  18.418  0.00  0.00    +0.000 A 
ATOM      7  C   UNL     1       1.795   8.510  19.095  0.00  0.00    +0.000 A 
ATOM      8  C   UNL     1       1.189   8.279  20.347  0.00  0.00    +0.000 A 
ATOM      9  C   UNL     1       1.301   6.992  20.896  0.00  0.00    +0.000 A 
ATOM     10  C   UNL     1       2.001   5.980  20.233  0.00  0.00    +0.000 A 
BRANCH   8  11
ATOM     11  C   UNL     1       0.490   9.376  21.054  0.00  0.00    +0.000 A 
ATOM     12  C   UNL     1       0.422  10.667  20.497  0.00  0.00    +0.000 A 
ATOM     13  C   UNL     1      -0.149  11.737  21.191  0.00  0.00    +0.000 A 
ATOM     14  C   UNL     1      -0.688  11.527  22.454  0.00  0.00    +0.000 A 
ATOM     15 CL   UNL     1      -1.362  12.848  23.325  0.00  0.00    +0.000 Cl
ATOM     16  C   UNL     1      -0.675  10.255  23.018  0.00  0.00    +0.000 A 
ATOM     17  C   UNL     1      -0.088   9.191  22.325  0.00  0.00    +0.000 A 
ENDBRANCH   8  11
ENDBRANCH   2   5
BRANCH   3  18
ATOM     18  C   UNL     1       5.568   4.473  17.528  0.00  0.00    +0.000 C 
BRANCH  18  19
ATOM     19  C   UNL     1       7.008   4.646  17.990  0.00  0.00    +0.000 C 
BRANCH  19  20
ATOM     20  C   UNL     1       7.379   6.101  18.042  0.00  0.00    +0.000 A 
ATOM     21  C   UNL     1       6.886   6.994  17.087  0.00  0.00    +0.000 A 
ATOM     22  C   UNL     1       7.271   8.333  17.114  0.00  0.00    +0.000 A 
ATOM     23  C   UNL     1       8.160   8.796  18.095  0.00  0.00    +0.000 A 
ATOM     24  C   UNL     1       8.667   7.895  19.036  0.00  0.00    +0.000 A 
ATOM     25  C   UNL     1       8.279   6.556  19.012  0.00  0.00    +0.000 A 
BRANCH  23  26
ATOM     26  C   UNL     1       8.573  10.249  18.114  0.00  0.00    +0.000 C 
BRANCH  26  27
ATOM     27  N   UNL     1       9.712  10.541  19.017  0.00  0.00    +0.000 NA
ATOM     28  C   UNL     1      10.817  11.156  18.264  0.00  0.00    +0.000 C 
ATOM     29  C   UNL     1      11.921  11.751  19.142  0.00  0.00    +0.000 C 
ATOM     30  C   UNL     1      11.346  12.704  20.169  0.00  0.00    +0.000 C 
ATOM     31  C   UNL     1      10.319  11.958  21.014  0.00  0.00    +0.000 C 
ATOM     32  C   UNL     1       9.221  11.364  20.133  0.00  0.00    +0.000 C 
ENDBRANCH  26  27
ENDBRANCH  23  26
ENDBRANCH  19  20
ENDBRANCH  18  19
ENDBRANCH   3  18
TORSDOF 7
ENDMDL
MODEL 2
REMARK VINA RESULT:      -8.2      0.997      1.416
REMARK  Name = 
REMARK  7 active torsions:
REMARK  status: ('A' for Active; 'I' for Inactive)
REMARK    1  A    between atoms: C_2  and  C_19
REMARK    2  A    between atoms: N_3  and  C_4
REMARK    3  A    between atoms: C_4  and  C_5
REMARK    4  A    between atoms: C_5  and  C_6
REMARK    5  A    between atoms: C_9  and  C_10
REMARK    6  A    between atoms: C_10  and  N_11
REMARK    7  A    between atoms: C_22  and  C_23
REMARK                            x       y       z     vdW  Elec       q    Type
REMARK                         _______ _______ _______ _____ _____    ______ ____
ROOT
ATOM      1  O   UNL     1       3.815   4.995  17.176  0.00  0.00    +0.000 OA
ATOM      2  C   UNL     1       4.004   5.630  18.205  0.00  0.00    +0.000 C 
ATOM      3  N   UNL     1       5.018   5.384  19.095  0.00  0.00    +0.000 N 
ATOM      4  H   UNL     1       4.915   5.739  20.037  0.00  0.00    +0.000 HD
ENDROOT
BRANCH   2   5
ATOM      5  C   UNL     1       3.089   6.730  18.595  0.00  0.00    +0.000 A 
ATOM      6  C   UNL     1       2.849   7.752  17.685  0.00  0.00    +0.000 A 
ATOM      7  C   UNL     1       2.016   8.812  18.043  0.00  0.00    +0.000 A 
ATOM      8  C   UNL     1       1.397   8.872  19.308  0.00  0.00    +0.000 A 
ATOM      9  C   UNL     1       1.648   7.821  20.205  0.00  0.00    +0.000 A 
ATOM     10  C   UNL     1       2.494   6.763  19.862  0.00  0.00    +0.000 A 
BRANCH   8  11
ATOM     11  C   UNL     1       0.540  10.024  19.670  0.00  0.00    +0.000 A 
ATOM     12  C   UNL     1       0.319  10.364  21.017  0.00  0.00    +0.000 A 
ATOM     13  C   UNL     1      -0.560  11.388  21.381  0.00  0.00    +0.000 A 
ATOM     14  C   UNL     1      -1.219  12.110  20.394  0.00  0.00    +0.000 A 
ATOM     15 CL   UNL     1      -2.326  13.348  20.839  0.00  0.00    +0.000 Cl
ATOM     16  C   UNL     1      -0.991  11.828  19.051  0.00  0.00    +0.000 A 
ATOM     17  C   UNL     1      -0.122  10.792  18.693  0.00  0.00    +0.000 A 
ENDBRANCH   8  11
ENDBRANCH   2   5
BRANCH   3  18
ATOM     18  C   UNL     1       5.960   4.316  18.860  0.00  0.00    +0.000 C 
BRANCH  18  19
ATOM     19  C   UNL     1       6.979   4.707  17.798  0.00  0.00    +0.000 C 
BRANCH  19  20
ATOM     20  C   UNL     1       7.324   6.165  17.903  0.00  0.00    +0.000 A 
ATOM     21  C   UNL     1       6.800   7.086  16.992  0.00  0.00    +0.000 A 
ATOM     22  C   UNL     1       7.161   8.430  17.067  0.00  0.00    +0.000 A 
ATOM     23  C   UNL     1       8.057   8.870  18.053  0.00  0.00    +0.000 A 
ATOM     24  C   UNL     1       8.595   7.941  18.950  0.00  0.00    +0.000 A 
ATOM     25  C   UNL     1       8.231   6.597  18.877  0.00  0.00    +0.000 A 
BRANCH  23  26
ATOM     26  C   UNL     1       8.444  10.328  18.125  0.00  0.00    +0.000 C 
BRANCH  26  27
ATOM     27  N   UNL     1       9.710  10.583  18.853  0.00  0.00    +0.000 NA
ATOM     28  C   UNL     1      10.681  11.255  17.975  0.00  0.00    +0.000 C 
ATOM     29  C   UNL     1      11.906  11.812  18.703  0.00  0.00    +0.000 C 
ATOM     30  C   UNL     1      11.496  12.695  19.863  0.00  0.00    +0.000 C 
ATOM     31  C   UNL     1      10.618  11.887  20.813  0.00  0.00    +0.000 C 
ATOM     32  C   UNL     1       9.397  11.332  20.080  0.00  0.00    +0.000 C 
ENDBRANCH  26  27
ENDBRANCH  23  26
ENDBRANCH  19  20
ENDBRANCH  18  19
ENDBRANCH   3  18
TORSDOF 7
ENDMDL
MODEL 3
REMARK VINA RESULT:      -8.2      1.110      1.673
REMARK  Name = 
REMARK  7 active torsions:
REMARK  status: ('A' for Active; 'I' for Inactive)
REMARK    1  A    between atoms: C_2  and  C_19
REMARK    2  A    between atoms: N_3  and  C_4
REMARK    3  A    between atoms: C_4  and  C_5
REMARK    4  A    between atoms: C_5  and  C_6
REMARK    5  A    between atoms: C_9  and  C_10
REMARK    6  A    between atoms: C_10  and  N_11
REMARK    7  A    between atoms: C_22  and  C_23
REMARK                            x       y       z     vdW  Elec       q    Type
REMARK                         _______ _______ _______ _____ _____    ______ ____
ROOT
ATOM      1  O   UNL     1       2.877   4.250  19.740  0.00  0.00    +0.000 OA
ATOM      2  C   UNL     1       3.368   5.354  19.544  0.00  0.00    +0.000 C 
ATOM      3  N   UNL     1       4.688   5.576  19.245  0.00  0.00    +0.000 N 
ATOM      4  H   UNL     1       5.058   6.505  19.406  0.00  0.00    +0.000 HD
ENDROOT
BRANCH   2   5
ATOM      5  C   UNL     1       2.543   6.580  19.660  0.00  0.00    +0.000 A 
ATOM      6  C   UNL     1       2.525   7.475  18.598  0.00  0.00    +0.000 A 
ATOM      7  C   UNL     1       1.780   8.650  18.699  0.00  0.00    +0.000 A 
ATOM      8  C   UNL     1       1.029   8.953  19.853  0.00  0.00    +0.000 A 
ATOM      9  C   UNL     1       1.057   8.027  20.908  0.00  0.00    +0.000 A 
ATOM     10  C   UNL     1       1.813   6.855  20.824  0.00  0.00    +0.000 A 
BRANCH   8  11
ATOM     11  C   UNL     1       0.271  10.222  19.942  0.00  0.00    +0.000 A 
ATOM     12  C   UNL     1       0.555  11.164  20.948  0.00  0.00    +0.000 A 
ATOM     13  C   UNL     1      -0.210  12.322  21.106  0.00  0.00    +0.000 A 
ATOM     14  C   UNL     1      -1.266  12.571  20.240  0.00  0.00    +0.000 A 
ATOM     15 CL   UNL     1      -2.231  13.979  20.452  0.00  0.00    +0.000 Cl
ATOM     16  C   UNL     1      -1.549  11.682  19.207  0.00  0.00    +0.000 A 
ATOM     17  C   UNL     1      -0.789  10.516  19.063  0.00  0.00    +0.000 A 
ENDBRANCH   8  11
ENDBRANCH   2   5
BRANCH   3  18
ATOM     18  C   UNL     1       5.615   4.474  19.140  0.00  0.00    +0.000 C 
BRANCH  18  19
ATOM     19  C   UNL     1       6.577   4.677  17.978  0.00  0.00    +0.000 C 
BRANCH  19  20
ATOM     20  C   UNL     1       7.092   6.087  17.953  0.00  0.00    +0.000 A 
ATOM     21  C   UNL     1       8.102   6.490  18.831  0.00  0.00    +0.000 A 
ATOM     22  C   UNL     1       8.542   7.812  18.834  0.00  0.00    +0.000 A 
ATOM     23  C   UNL     1       7.974   8.751  17.962  0.00  0.00    +0.000 A 
ATOM     24  C   UNL     1       6.949   8.349  17.099  0.00  0.00    +0.000 A 
ATOM     25  C   UNL     1       6.511   7.026  17.093  0.00  0.00    +0.000 A 
BRANCH  23  26
ATOM     26  C   UNL     1       8.456  10.183  17.975  0.00  0.00    +0.000 C 
BRANCH  26  27
ATOM     27  N   UNL     1       9.602  10.427  18.883  0.00  0.00    +0.000 NA
ATOM     28  C   UNL     1      10.697  11.093  18.159  0.00  0.00    +0.000 C 
ATOM     29  C   UNL     1      11.805  11.640  19.061  0.00  0.00    +0.000 C 
ATOM     30  C   UNL     1      11.235  12.525  20.150  0.00  0.00    +0.000 C 
ATOM     31  C   UNL     1      10.220  11.722  20.958  0.00  0.00    +0.000 C 
ATOM     32  C   UNL     1       9.117  11.177  20.052  0.00  0.00    +0.000 C 
ENDBRANCH  26  27
ENDBRANCH  23  26
ENDBRANCH  19  20
ENDBRANCH  18  19
ENDBRANCH   3  18
TORSDOF 7
ENDMDL
MODEL 4
REMARK VINA RESULT:      -8.0      4.384      6.918
REMARK  Name = 
REMARK  7 active torsions:
REMARK  status: ('A' for Active; 'I' for Inactive)
REMARK    1  A    between atoms: C_2  and  C_19
REMARK    2  A    between atoms: N_3  and  C_4
REMARK    3  A    between atoms: C_4  and  C_5
REMARK    4  A    between atoms: C_5  and  C_6
REMARK    5  A    between atoms: C_9  and  C_10
REMARK    6  A    between atoms: C_10  and  N_11
REMARK    7  A    between atoms: C_22  and  C_23
REMARK                            x       y       z     vdW  Elec       q    Type
REMARK                         _______ _______ _______ _____ _____    ______ ____
ROOT
ATOM      1  O   UNL     1      -0.160  11.558  18.555  0.00  0.00    +0.000 OA
ATOM      2  C   UNL     1       0.943  11.236  18.977  0.00  0.00    +0.000 C 
ATOM      3  N   UNL     1       1.888  12.118  19.435  0.00  0.00    +0.000 N 
ATOM      4  H   UNL     1       2.850  11.803  19.467  0.00  0.00    +0.000 HD
ENDROOT
BRANCH   2   5
ATOM      5  C   UNL     1       1.364   9.814  18.987  0.00  0.00    +0.000 A 
ATOM      6  C   UNL     1       1.916   9.275  17.832  0.00  0.00    +0.000 A 
ATOM      7  C   UNL     1       2.290   7.931  17.809  0.00  0.00    +0.000 A 
ATOM      8  C   UNL     1       2.134   7.100  18.937  0.00  0.00    +0.000 A 
ATOM      9  C   UNL     1       1.583   7.673  20.094  0.00  0.00    +0.000 A 
ATOM     10  C   UNL     1       1.190   9.014  20.122  0.00  0.00    +0.000 A 
BRANCH   8  11
ATOM     11  C   UNL     1       2.514   5.671  18.874  0.00  0.00    +0.000 A 
ATOM     12  C   UNL     1       3.599   5.178  19.622  0.00  0.00    +0.000 A 
ATOM     13  C   UNL     1       4.032   3.855  19.505  0.00  0.00    +0.000 A 
ATOM     14  C   UNL     1       3.367   2.989  18.646  0.00  0.00    +0.000 A 
ATOM     15 CL   UNL     1       3.918   1.369  18.474  0.00  0.00    +0.000 Cl
ATOM     16  C   UNL     1       2.264   3.431  17.923  0.00  0.00    +0.000 A 
ATOM     17  C   UNL     1       1.845   4.761  18.033  0.00  0.00    +0.000 A 
ENDBRANCH   8  11
ENDBRANCH   2   5
BRANCH   3  18
ATOM     18  C   UNL     1       1.626  13.537  19.445  0.00  0.00    +0.000 C 
BRANCH  18  19
ATOM     19  C   UNL     1       2.544  14.257  20.425  0.00  0.00    +0.000 C 
BRANCH  19  20
ATOM     20  C   UNL     1       3.882  14.529  19.800  0.00  0.00    +0.000 A 
ATOM     21  C   UNL     1       4.987  14.841  20.595  0.00  0.00    +0.000 A 
ATOM     22  C   UNL     1       6.214  15.138  20.006  0.00  0.00    +0.000 A 
ATOM     23  C   UNL     1       6.351  15.133  18.610  0.00  0.00    +0.000 A 
ATOM     24  C   UNL     1       5.237  14.840  17.817  0.00  0.00    +0.000 A 
ATOM     25  C   UNL     1       4.010  14.538  18.406  0.00  0.00    +0.000 A 
BRANCH  23  26
ATOM     26  C   UNL     1       7.684  15.459  17.980  0.00  0.00    +0.000 C 
BRANCH  26  27
ATOM     27  N   UNL     1       8.770  14.518  18.342  0.00  0.00    +0.000 NA
ATOM     28  C   UNL     1       8.500  13.183  17.782  0.00  0.00    +0.000 C 
ATOM     29  C   UNL     1       9.686  12.219  17.856  0.00  0.00    +0.000 C 
ATOM     30  C   UNL     1      10.930  12.837  17.253  0.00  0.00    +0.000 C 
ATOM     31  C   UNL     1      11.239  14.138  17.985  0.00  0.00    +0.000 C 
ATOM     32  C   UNL     1      10.051  15.097  17.910  0.00  0.00    +0.000 C 
ENDBRANCH  26  27
ENDBRANCH  23  26
ENDBRANCH  19  20
ENDBRANCH  18  19
ENDBRANCH   3  18
TORSDOF 7
ENDMDL
MODEL 5
REMARK VINA RESULT:      -8.0      4.284      6.809
REMARK  Name = 
REMARK  7 active torsions:
REMARK  status: ('A' for Active; 'I' for Inactive)
REMARK    1  A    between atoms: C_2  and  C_19
REMARK    2  A    between atoms: N_3  and  C_4
REMARK    3  A    between atoms: C_4  and  C_5
REMARK    4  A    between atoms: C_5  and  C_6
REMARK    5  A    between atoms: C_9  and  C_10
REMARK    6  A    between atoms: C_10  and  N_11
REMARK    7  A    between atoms: C_22  and  C_23
REMARK                            x       y       z     vdW  Elec       q    Type
REMARK                         _______ _______ _______ _____ _____    ______ ____
ROOT
ATOM      1  O   UNL     1      -0.468  11.977  18.971  0.00  0.00    +0.000 OA
ATOM      2  C   UNL     1       0.729  11.723  18.979  0.00  0.00    +0.000 C 
ATOM      3  N   UNL     1       1.724  12.664  18.908  0.00  0.00    +0.000 N 
ATOM      4  H   UNL     1       2.643  12.358  18.613  0.00  0.00    +0.000 HD
ENDROOT
BRANCH   2   5
ATOM      5  C   UNL     1       1.205  10.320  19.028  0.00  0.00    +0.000 A 
ATOM      6  C   UNL     1       1.010   9.590  20.193  0.00  0.00    +0.000 A 
ATOM      7  C   UNL     1       1.478   8.278  20.272  0.00  0.00    +0.000 A 
ATOM      8  C   UNL     1       2.138   7.662  19.189  0.00  0.00    +0.000 A 
ATOM      9  C   UNL     1       2.313   8.419  18.019  0.00  0.00    +0.000 A 
ATOM     10  C   UNL     1       1.864   9.740  17.937  0.00  0.00    +0.000 A 
BRANCH   8  11
ATOM     11  C   UNL     1       2.649   6.278  19.312  0.00  0.00    +0.000 A 
ATOM     12  C   UNL     1       3.554   5.756  18.370  0.00  0.00    +0.000 A 
ATOM     13  C   UNL     1       3.974   4.424  18.414  0.00  0.00    +0.000 A 
ATOM     14  C   UNL     1       3.509   3.591  19.424  0.00  0.00    +0.000 A 
ATOM     15 CL   UNL     1       3.997   1.943  19.464  0.00  0.00    +0.000 Cl
ATOM     16  C   UNL     1       2.646   4.086  20.397  0.00  0.00    +0.000 A 
ATOM     17  C   UNL     1       2.217   5.416  20.338  0.00  0.00    +0.000 A 
ENDBRANCH   8  11
ENDBRANCH   2   5
BRANCH   3  18
ATOM     18  C   UNL     1       1.404  14.069  18.816  0.00  0.00    +0.000 C 
BRANCH  18  19
ATOM     19  C   UNL     1       2.223  14.884  19.808  0.00  0.00    +0.000 C 
BRANCH  19  20
ATOM     20  C   UNL     1       3.679  14.862  19.440  0.00  0.00    +0.000 A 
ATOM     21  C   UNL     1       4.662  14.910  20.432  0.00  0.00    +0.000 A 
ATOM     22  C   UNL     1       6.010  14.936  20.082  0.00  0.00    +0.000 A 
ATOM     23  C   UNL     1       6.394  14.920  18.733  0.00  0.00    +0.000 A 
ATOM     24  C   UNL     1       5.406  14.893  17.743  0.00  0.00    +0.000 A 
ATOM     25  C   UNL     1       4.057  14.863  18.093  0.00  0.00    +0.000 A 
BRANCH  23  26
ATOM     26  C   UNL     1       7.858  14.951  18.363  0.00  0.00    +0.000 C 
BRANCH  26  27
ATOM     27  N   UNL     1       8.617  13.755  18.799  0.00  0.00    +0.000 NA
ATOM     28  C   UNL     1       8.580  12.716  17.757  0.00  0.00    +0.000 C 
ATOM     29  C   UNL     1       9.558  11.562  17.985  0.00  0.00    +0.000 C 
ATOM     30  C   UNL     1      10.965  12.077  18.212  0.00  0.00    +0.000 C 
ATOM     31  C   UNL     1      10.956  13.028  19.403  0.00  0.00    +0.000 C 
ATOM     32  C   UNL     1       9.976  14.177  19.171  0.00  0.00    +0.000 C 
ENDBRANCH  26  27
ENDBRANCH  23  26
ENDBRANCH  19  20
ENDBRANCH  18  19
ENDBRANCH   3  18
TORSDOF 7
ENDMDL
MODEL 6
REMARK VINA RESULT:      -8.0      5.426     10.990
REMARK  Name = 
REMARK  7 active torsions:
REMARK  status: ('A' for Active; 'I' for Inactive)
REMARK    1  A    between atoms: C_2  and  C_19
REMARK    2  A    between atoms: N_3  and  C_4
REMARK    3  A    between atoms: C_4  and  C_5
REMARK    4  A    between atoms: C_5  and  C_6
REMARK    5  A    between atoms: C_9  and  C_10
REMARK    6  A    between atoms: C_10  and  N_11
REMARK    7  A    between atoms: C_22  and  C_23
REMARK                            x       y       z     vdW  Elec       q    Type
REMARK                         _______ _______ _______ _____ _____    ______ ____
ROOT
ATOM      1  O   UNL     1      -0.386   7.957  21.885  0.00  0.00    +0.000 OA
ATOM      2  C   UNL     1       0.479   8.572  21.277  0.00  0.00    +0.000 C 
ATOM      3  N   UNL     1       0.672   9.928  21.359  0.00  0.00    +0.000 N 
ATOM      4  H   UNL     1       1.185  10.377  20.611  0.00  0.00    +0.000 HD
ENDROOT
BRANCH   2   5
ATOM      5  C   UNL     1       1.392   7.871  20.343  0.00  0.00    +0.000 A 
ATOM      6  C   UNL     1       1.765   8.512  19.169  0.00  0.00    +0.000 A 
ATOM      7  C   UNL     1       2.598   7.857  18.260  0.00  0.00    +0.000 A 
ATOM      8  C   UNL     1       3.085   6.558  18.507  0.00  0.00    +0.000 A 
ATOM      9  C   UNL     1       2.700   5.936  19.706  0.00  0.00    +0.000 A 
ATOM     10  C   UNL     1       1.853   6.577  20.614  0.00  0.00    +0.000 A 
BRANCH   8  11
ATOM     11  C   UNL     1       3.945   5.878  17.511  0.00  0.00    +0.000 A 
ATOM     12  C   UNL     1       4.691   6.618  16.577  0.00  0.00    +0.000 A 
ATOM     13  C   UNL     1       5.434   5.995  15.570  0.00  0.00    +0.000 A 
ATOM     14  C   UNL     1       5.460   4.608  15.496  0.00  0.00    +0.000 A 
ATOM     15 CL   UNL     1       6.345   3.837  14.239  0.00  0.00    +0.000 Cl
ATOM     16  C   UNL     1       4.767   3.844  16.430  0.00  0.00    +0.000 A 
ATOM     17  C   UNL     1       4.014   4.474  17.426  0.00  0.00    +0.000 A 
ENDBRANCH   8  11
ENDBRANCH   2   5
BRANCH   3  18
ATOM     18  C   UNL     1      -0.171  10.741  22.202  0.00  0.00    +0.000 C 
BRANCH  18  19
ATOM     19  C   UNL     1      -0.428  12.103  21.568  0.00  0.00    +0.000 C 
BRANCH  19  20
ATOM     20  C   UNL     1      -1.326  11.971  20.372  0.00  0.00    +0.000 A 
ATOM     21  C   UNL     1      -2.605  12.534  20.378  0.00  0.00    +0.000 A 
ATOM     22  C   UNL     1      -3.450  12.369  19.282  0.00  0.00    +0.000 A 
ATOM     23  C   UNL     1      -3.028  11.632  18.166  0.00  0.00    +0.000 A 
ATOM     24  C   UNL     1      -1.755  11.053  18.172  0.00  0.00    +0.000 A 
ATOM     25  C   UNL     1      -0.908  11.221  19.266  0.00  0.00    +0.000 A 
BRANCH  23  26
ATOM     26  C   UNL     1      -3.952  11.456  16.984  0.00  0.00    +0.000 C 
BRANCH  26  27
ATOM     27  N   UNL     1      -5.375  11.265  17.351  0.00  0.00    +0.000 NA
ATOM     28  C   UNL     1      -5.486  10.412  18.546  0.00  0.00    +0.000 C 
ATOM     29  C   UNL     1      -6.882  10.383  19.170  0.00  0.00    +0.000 C 
ATOM     30  C   UNL     1      -7.389  11.786  19.436  0.00  0.00    +0.000 C 
ATOM     31  C   UNL     1      -7.393  12.565  18.125  0.00  0.00    +0.000 C 
ATOM     32  C   UNL     1      -5.997  12.589  17.505  0.00  0.00    +0.000 C 
ENDBRANCH  26  27
ENDBRANCH  23  26
ENDBRANCH  19  20
ENDBRANCH  18  19
ENDBRANCH   3  18
TORSDOF 7
ENDMDL
MODEL 7
REMARK VINA RESULT:      -7.9      5.371     11.589
REMARK  Name = 
REMARK  7 active torsions:
REMARK  status: ('A' for Active; 'I' for Inactive)
REMARK    1  A    between atoms: C_2  and  C_19
REMARK    2  A    between atoms: N_3  and  C_4
REMARK    3  A    between atoms: C_4  and  C_5
REMARK    4  A    between atoms: C_5  and  C_6
REMARK    5  A    between atoms: C_9  and  C_10
REMARK    6  A    between atoms: C_10  and  N_11
REMARK    7  A    between atoms: C_22  and  C_23
REMARK                            x       y       z     vdW  Elec       q    Type
REMARK                         _______ _______ _______ _____ _____    ______ ____
ROOT
ATOM      1  O   UNL     1      -0.994   9.758  20.131  0.00  0.00    +0.000 OA
ATOM      2  C   UNL     1       0.051   9.399  20.657  0.00  0.00    +0.000 C 
ATOM      3  N   UNL     1       0.424   9.711  21.939  0.00  0.00    +0.000 N 
ATOM      4  H   UNL     1       1.406   9.642  22.175  0.00  0.00    +0.000 HD
ENDROOT
BRANCH   2   5
ATOM      5  C   UNL     1       1.045   8.601  19.899  0.00  0.00    +0.000 A 
ATOM      6  C   UNL     1       1.415   9.027  18.630  0.00  0.00    +0.000 A 
ATOM      7  C   UNL     1       2.324   8.274  17.887  0.00  0.00    +0.000 A 
ATOM      8  C   UNL     1       2.892   7.088  18.395  0.00  0.00    +0.000 A 
ATOM      9  C   UNL     1       2.508   6.685  19.684  0.00  0.00    +0.000 A 
ATOM     10  C   UNL     1       1.585   7.423  20.430  0.00  0.00    +0.000 A 
BRANCH   8  11
ATOM     11  C   UNL     1       3.833   6.295  17.572  0.00  0.00    +0.000 A 
ATOM     12  C   UNL     1       4.705   6.925  16.665  0.00  0.00    +0.000 A 
ATOM     13  C   UNL     1       5.533   6.190  15.812  0.00  0.00    +0.000 A 
ATOM     14  C   UNL     1       5.519   4.802  15.870  0.00  0.00    +0.000 A 
ATOM     15 CL   UNL     1       6.512   3.893  14.800  0.00  0.00    +0.000 Cl
ATOM     16  C   UNL     1       4.700   4.148  16.786  0.00  0.00    +0.000 A 
ATOM     17  C   UNL     1       3.863   4.889  17.626  0.00  0.00    +0.000 A 
ENDBRANCH   8  11
ENDBRANCH   2   5
BRANCH   3  18
ATOM     18  C   UNL     1      -0.431  10.517  22.779  0.00  0.00    +0.000 C 
BRANCH  18  19
ATOM     19  C   UNL     1      -0.491  11.954  22.279  0.00  0.00    +0.000 C 
BRANCH  19  20
ATOM     20  C   UNL     1      -1.912  12.372  22.031  0.00  0.00    +0.000 A 
ATOM     21  C   UNL     1      -2.286  12.924  20.803  0.00  0.00    +0.000 A 
ATOM     22  C   UNL     1      -3.596  13.352  20.595  0.00  0.00    +0.000 A 
ATOM     23  C   UNL     1      -4.550  13.238  21.617  0.00  0.00    +0.000 A 
ATOM     24  C   UNL     1      -4.167  12.703  22.852  0.00  0.00    +0.000 A 
ATOM     25  C   UNL     1      -2.857  12.272  23.058  0.00  0.00    +0.000 A 
BRANCH  23  26
ATOM     26  C   UNL     1      -5.967  13.707  21.384  0.00  0.00    +0.000 C 
BRANCH  26  27
ATOM     27  N   UNL     1      -6.800  12.753  20.614  0.00  0.00    +0.000 NA
ATOM     28  C   UNL     1      -6.089  12.312  19.404  0.00  0.00    +0.000 C 
ATOM     29  C   UNL     1      -6.737  11.122  18.692  0.00  0.00    +0.000 C 
ATOM     30  C   UNL     1      -6.971   9.974  19.653  0.00  0.00    +0.000 C 
ATOM     31  C   UNL     1      -7.844  10.464  20.803  0.00  0.00    +0.000 C 
ATOM     32  C   UNL     1      -7.193  11.653  21.508  0.00  0.00    +0.000 C 
ENDBRANCH  26  27
ENDBRANCH  23  26
ENDBRANCH  19  20
ENDBRANCH  18  19
ENDBRANCH   3  18
TORSDOF 7
ENDMDL
MODEL 8
REMARK VINA RESULT:      -7.9      4.232      6.616
REMARK  Name = 
REMARK  7 active torsions:
REMARK  status: ('A' for Active; 'I' for Inactive)
REMARK    1  A    between atoms: C_2  and  C_19
REMARK    2  A    between atoms: N_3  and  C_4
REMARK    3  A    between atoms: C_4  and  C_5
REMARK    4  A    between atoms: C_5  and  C_6
REMARK    5  A    between atoms: C_9  and  C_10
REMARK    6  A    between atoms: C_10  and  N_11
REMARK    7  A    between atoms: C_22  and  C_23
REMARK                            x       y       z     vdW  Elec       q    Type
REMARK                         _______ _______ _______ _____ _____    ______ ____
ROOT
ATOM      1  O   UNL     1      -0.002  12.578  18.717  0.00  0.00    +0.000 OA
ATOM      2  C   UNL     1       1.005  12.156  19.269  0.00  0.00    +0.000 C 
ATOM      3  N   UNL     1       1.963  12.946  19.851  0.00  0.00    +0.000 N 
ATOM      4  H   UNL     1       2.880  12.544  19.998  0.00  0.00    +0.000 HD
ENDROOT
BRANCH   2   5
ATOM      5  C   UNL     1       1.289  10.701  19.316  0.00  0.00    +0.000 A 
ATOM      6  C   UNL     1       1.765  10.078  18.169  0.00  0.00    +0.000 A 
ATOM      7  C   UNL     1       2.009   8.704  18.182  0.00  0.00    +0.000 A 
ATOM      8  C   UNL     1       1.796   7.926  19.337  0.00  0.00    +0.000 A 
ATOM      9  C   UNL     1       1.324   8.582  20.485  0.00  0.00    +0.000 A 
ATOM     10  C   UNL     1       1.060   9.955  20.478  0.00  0.00    +0.000 A 
BRANCH   8  11
ATOM     11  C   UNL     1       2.037   6.465  19.312  0.00  0.00    +0.000 A 
ATOM     12  C   UNL     1       2.430   5.819  18.125  0.00  0.00    +0.000 A 
ATOM     13  C   UNL     1       2.571   4.430  18.058  0.00  0.00    +0.000 A 
ATOM     14  C   UNL     1       2.343   3.661  19.191  0.00  0.00    +0.000 A 
ATOM     15 CL   UNL     1       2.483   1.949  19.104  0.00  0.00    +0.000 Cl
ATOM     16  C   UNL     1       1.995   4.271  20.393  0.00  0.00    +0.000 A 
ATOM     17  C   UNL     1       1.840   5.660  20.450  0.00  0.00    +0.000 A 
ENDBRANCH   8  11
ENDBRANCH   2   5
BRANCH   3  18
ATOM     18  C   UNL     1       1.833  14.384  19.843  0.00  0.00    +0.000 C 
BRANCH  18  19
ATOM     19  C   UNL     1       2.577  14.995  18.663  0.00  0.00    +0.000 C 
BRANCH  19  20
ATOM     20  C   UNL     1       4.062  14.905  18.866  0.00  0.00    +0.000 A 
ATOM     21  C   UNL     1       4.623  15.139  20.124  0.00  0.00    +0.000 A 
ATOM     22  C   UNL     1       6.005  15.100  20.295  0.00  0.00    +0.000 A 
ATOM     23  C   UNL     1       6.847  14.831  19.206  0.00  0.00    +0.000 A 
ATOM     24  C   UNL     1       6.284  14.617  17.944  0.00  0.00    +0.000 A 
ATOM     25  C   UNL     1       4.900  14.653  17.774  0.00  0.00    +0.000 A 
BRANCH  23  26
ATOM     26  C   UNL     1       8.345  14.792  19.401  0.00  0.00    +0.000 C 
BRANCH  26  27
ATOM     27  N   UNL     1       8.919  13.426  19.407  0.00  0.00    +0.000 NA
ATOM     28  C   UNL     1       9.883  13.270  18.306  0.00  0.00    +0.000 C 
ATOM     29  C   UNL     1      10.735  12.002  18.392  0.00  0.00    +0.000 C 
ATOM     30  C   UNL     1      11.407  11.887  19.745  0.00  0.00    +0.000 C 
ATOM     31  C   UNL     1      10.337  11.899  20.830  0.00  0.00    +0.000 C 
ATOM     32  C   UNL     1       9.487  13.167  20.739  0.00  0.00    +0.000 C 
ENDBRANCH  26  27
ENDBRANCH  23  26
ENDBRANCH  19  20
ENDBRANCH  18  19
ENDBRANCH   3  18
TORSDOF 7
ENDMDL
MODEL 9
REMARK VINA RESULT:      -7.9      5.380     11.150
REMARK  Name = 
REMARK  7 active torsions:
REMARK  status: ('A' for Active; 'I' for Inactive)
REMARK    1  A    between atoms: C_2  and  C_19
REMARK    2  A    between atoms: N_3  and  C_4
REMARK    3  A    between atoms: C_4  and  C_5
REMARK    4  A    between atoms: C_5  and  C_6
REMARK    5  A    between atoms: C_9  and  C_10
REMARK    6  A    between atoms: C_10  and  N_11
REMARK    7  A    between atoms: C_22  and  C_23
REMARK                            x       y       z     vdW  Elec       q    Type
REMARK                         _______ _______ _______ _____ _____    ______ ____
ROOT
ATOM      1  O   UNL     1       1.350   5.432  21.066  0.00  0.00    +0.000 OA
ATOM      2  C   UNL     1       1.886   6.299  20.390  0.00  0.00    +0.000 C 
ATOM      3  N   UNL     1       1.709   7.647  20.571  0.00  0.00    +0.000 N 
ATOM      4  H   UNL     1       1.933   8.260  19.797  0.00  0.00    +0.000 HD
ENDROOT
BRANCH   2   5
ATOM      5  C   UNL     1       2.772   5.936  19.257  0.00  0.00    +0.000 A 
ATOM      6  C   UNL     1       3.118   6.919  18.340  0.00  0.00    +0.000 A 
ATOM      7  C   UNL     1       3.925   6.592  17.250  0.00  0.00    +0.000 A 
ATOM      8  C   UNL     1       4.412   5.284  17.056  0.00  0.00    +0.000 A 
ATOM      9  C   UNL     1       4.054   4.311  18.003  0.00  0.00    +0.000 A 
ATOM     10  C   UNL     1       3.233   4.624  19.090  0.00  0.00    +0.000 A 
BRANCH   8  11
ATOM     11  C   UNL     1       5.243   4.960  15.874  0.00  0.00    +0.000 A 
ATOM     12  C   UNL     1       6.542   5.483  15.740  0.00  0.00    +0.000 A 
ATOM     13  C   UNL     1       7.306   5.267  14.590  0.00  0.00    +0.000 A 
ATOM     14  C   UNL     1       6.787   4.498  13.556  0.00  0.00    +0.000 A 
ATOM     15 CL   UNL     1       7.710   4.258  12.125  0.00  0.00    +0.000 Cl
ATOM     16  C   UNL     1       5.521   3.931  13.673  0.00  0.00    +0.000 A 
ATOM     17  C   UNL     1       4.756   4.164  14.820  0.00  0.00    +0.000 A 
ENDBRANCH   8  11
ENDBRANCH   2   5
BRANCH   3  18
ATOM     18  C   UNL     1       0.841   8.142  21.613  0.00  0.00    +0.000 C 
BRANCH  18  19
ATOM     19  C   UNL     1       1.261   9.536  22.060  0.00  0.00    +0.000 C 
BRANCH  19  20
ATOM     20  C   UNL     1       0.096  10.483  22.011  0.00  0.00    +0.000 A 
ATOM     21  C   UNL     1      -0.744  10.633  23.117  0.00  0.00    +0.000 A 
ATOM     22  C   UNL     1      -1.849  11.479  23.049  0.00  0.00    +0.000 A 
ATOM     23  C   UNL     1      -2.133  12.182  21.870  0.00  0.00    +0.000 A 
ATOM     24  C   UNL     1      -1.301  12.013  20.758  0.00  0.00    +0.000 A 
ATOM     25  C   UNL     1      -0.193  11.170  20.827  0.00  0.00    +0.000 A 
BRANCH  23  26
ATOM     26  C   UNL     1      -3.335  13.095  21.805  0.00  0.00    +0.000 C 
BRANCH  26  27
ATOM     27  N   UNL     1      -4.594  12.470  22.273  0.00  0.00    +0.000 NA
ATOM     28  C   UNL     1      -5.097  13.164  23.469  0.00  0.00    +0.000 C 
ATOM     29  C   UNL     1      -6.526  12.783  23.864  0.00  0.00    +0.000 C 
ATOM     30  C   UNL     1      -7.473  12.933  22.691  0.00  0.00    +0.000 C 
ATOM     31  C   UNL     1      -6.975  12.065  21.540  0.00  0.00    +0.000 C 
ATOM     32  C   UNL     1      -5.547  12.449  21.152  0.00  0.00    +0.000 C 
ENDBRANCH  26  27
ENDBRANCH  23  26
ENDBRANCH  19  20
ENDBRANCH  18  19
ENDBRANCH   3  18
TORSDOF 7
ENDMDL
