MODEL 1
REMARK VINA RESULT:      -8.4      0.000      0.000
REMARK  Name = 
REMARK  8 active torsions:
REMARK  status: ('A' for Active; 'I' for Inactive)
REMARK    1  A    between atoms: C_2  and  C_3
REMARK    2  A    between atoms: C_3  and  S_4
REMARK    3  A    between atoms: S_4  and  C_5
REMARK    4  A    between atoms: C_9  and  C_10
REMARK    5  A    between atoms: C_12  and  N_13
REMARK    6  A    between atoms: N_13  and  C_14
REMARK    7  A    between atoms: C_17  and  N_18
REMARK    8  A    between atoms: N_21  and  C_22
REMARK                            x       y       z     vdW  Elec       q    Type
REMARK                         _______ _______ _______ _____ _____    ______ ____
ROOT
ATOM      1  N   UNL     1       2.196   6.301  20.868  0.00  0.00    +0.000 N 
ATOM      2  H   UNL     1       2.191   6.170  21.880  0.00  0.00    +0.000 HD
ENDROOT
BRANCH   1  10
ATOM      3  C   UNL     1       5.708   4.968  18.837  0.00  0.00    +0.000 A 
ATOM      4  N   UNL     1       5.182   3.834  18.294  0.00  0.00    +0.000 NA
ATOM      5  C   UNL     1       3.947   3.818  18.725  0.00  0.00    +0.000 A 
ATOM      6  N   UNL     1       2.972   2.895  18.448  0.00  0.00    +0.000 NA
ATOM      7  C   UNL     1       1.809   3.107  18.968  0.00  0.00    +0.000 A 
ATOM      8  C   UNL     1       0.677   2.141  18.711  0.00  0.00    +0.000 C 
ATOM      9  C   UNL     1       1.460   4.264  19.828  0.00  0.00    +0.000 A 
ATOM     10  C   UNL     1       2.437   5.171  20.108  0.00  0.00    +0.000 A 
ATOM     11  N   UNL     1       3.714   4.940  19.537  0.00  0.00    +0.000 N 
ATOM     12  N   UNL     1       4.875   5.669  19.620  0.00  0.00    +0.000 NA
BRANCH   3  13
ATOM     13  S   UNL     1       7.361   5.440  18.515  0.00  0.00    +0.000 S 
BRANCH  13  14
ATOM     14  C   UNL     1       7.190   6.714  17.180  0.00  0.00    +0.000 C 
BRANCH  14  16
ATOM     15  C   UNL     1       8.312   9.144  18.081  0.00  0.00    +0.000 C 
ATOM     16  C   UNL     1       7.794   8.023  17.664  0.00  0.00    +0.000 C 
ENDBRANCH  14  16
ENDBRANCH  13  14
ENDBRANCH   3  13
ENDBRANCH   1  10
BRANCH   1  17
ATOM     17  C   UNL     1       1.767   7.558  20.400  0.00  0.00    +0.000 A 
ATOM     18  C   UNL     1       1.050   8.438  21.215  0.00  0.00    +0.000 A 
ATOM     19  C   UNL     1       0.656   9.694  20.745  0.00  0.00    +0.000 A 
ATOM     20  C   UNL     1       0.987  10.126  19.456  0.00  0.00    +0.000 A 
ATOM     21  C   UNL     1       1.626   9.201  18.620  0.00  0.00    +0.000 A 
ATOM     22  C   UNL     1       2.008   7.940  19.079  0.00  0.00    +0.000 A 
BRANCH  20  23
ATOM     23  N   UNL     1       0.701  11.402  19.023  0.00  0.00    +0.000 N 
ATOM     24  C   UNL     1       1.763  12.329  18.597  0.00  0.00    +0.000 C 
ATOM     25  C   UNL     1       1.405  13.764  19.046  0.00  0.00    +0.000 C 
ATOM     26  N   UNL     1       0.075  14.180  18.544  0.00  0.00    +0.000 NA
ATOM     27  C   UNL     1      -0.230  15.550  18.937  0.00  0.00    +0.000 C 
ATOM     28  C   UNL     1      -0.937  13.238  19.073  0.00  0.00    +0.000 C 
ATOM     29  C   UNL     1      -0.662  11.786  18.625  0.00  0.00    +0.000 C 
ENDBRANCH  20  23
ENDBRANCH   1  17
TORSDOF 6
ENDMDL
MODEL 2
REMARK VINA RESULT:      -8.1      1.000      1.531
REMARK  Name = 
REMARK  8 active torsions:
REMARK  status: ('A' for Active; 'I' for Inactive)
REMARK    1  A    between atoms: C_2  and  C_3
REMARK    2  A    between atoms: C_3  and  S_4
REMARK    3  A    between atoms: S_4  and  C_5
REMARK    4  A    between atoms: C_9  and  C_10
REMARK    5  A    between atoms: C_12  and  N_13
REMARK    6  A    between atoms: N_13  and  C_14
REMARK    7  A    between atoms: C_17  and  N_18
REMARK    8  A    between atoms: N_21  and  C_22
REMARK                            x       y       z     vdW  Elec       q    Type
REMARK                         _______ _______ _______ _____ _____    ______ ____
ROOT
ATOM      1  N   UNL     1       2.419   6.210  20.684  0.00  0.00    +0.000 N 
ATOM      2  H   UNL     1       2.584   6.117  21.687  0.00  0.00    +0.000 HD
ENDROOT
BRANCH   1  10
ATOM      3  C   UNL     1       5.622   4.576  18.381  0.00  0.00    +0.000 A 
ATOM      4  N   UNL     1       4.969   3.470  17.924  0.00  0.00    +0.000 NA
ATOM      5  C   UNL     1       3.782   3.554  18.468  0.00  0.00    +0.000 A 
ATOM      6  N   UNL     1       2.723   2.698  18.311  0.00  0.00    +0.000 NA
ATOM      7  C   UNL     1       1.632   3.006  18.930  0.00  0.00    +0.000 A 
ATOM      8  C   UNL     1       0.416   2.119  18.809  0.00  0.00    +0.000 C 
ATOM      9  C   UNL     1       1.447   4.207  19.781  0.00  0.00    +0.000 A 
ATOM     10  C   UNL     1       2.507   5.047  19.941  0.00  0.00    +0.000 A 
ATOM     11  N   UNL     1       3.705   4.710  19.262  0.00  0.00    +0.000 N 
ATOM     12  N   UNL     1       4.918   5.355  19.215  0.00  0.00    +0.000 NA
BRANCH   3  13
ATOM     13  S   UNL     1       7.265   4.919  17.893  0.00  0.00    +0.000 S 
BRANCH  13  14
ATOM     14  C   UNL     1       7.056   5.863  16.312  0.00  0.00    +0.000 C 
BRANCH  14  16
ATOM     15  C   UNL     1       6.336   4.064  14.257  0.00  0.00    +0.000 C 
ATOM     16  C   UNL     1       6.668   4.895  15.205  0.00  0.00    +0.000 C 
ENDBRANCH  14  16
ENDBRANCH  13  14
ENDBRANCH   3  13
ENDBRANCH   1  10
BRANCH   1  17
ATOM     17  C   UNL     1       1.938   7.459  20.245  0.00  0.00    +0.000 A 
ATOM     18  C   UNL     1       1.187   8.290  21.079  0.00  0.00    +0.000 A 
ATOM     19  C   UNL     1       0.741   9.539  20.638  0.00  0.00    +0.000 A 
ATOM     20  C   UNL     1       1.052  10.013  19.359  0.00  0.00    +0.000 A 
ATOM     21  C   UNL     1       1.727   9.134  18.502  0.00  0.00    +0.000 A 
ATOM     22  C   UNL     1       2.161   7.880  18.932  0.00  0.00    +0.000 A 
BRANCH  20  23
ATOM     23  N   UNL     1       0.713  11.286  18.955  0.00  0.00    +0.000 N 
ATOM     24  C   UNL     1       1.724  12.229  18.449  0.00  0.00    +0.000 C 
ATOM     25  C   UNL     1       1.382  13.658  18.931  0.00  0.00    +0.000 C 
ATOM     26  N   UNL     1       0.010  14.055  18.538  0.00  0.00    +0.000 NA
ATOM     27  C   UNL     1      -0.283  15.419  18.959  0.00  0.00    +0.000 C 
ATOM     28  C   UNL     1      -0.943  13.096  19.142  0.00  0.00    +0.000 C 
ATOM     29  C   UNL     1      -0.682  11.649  18.669  0.00  0.00    +0.000 C 
ENDBRANCH  20  23
ENDBRANCH   1  17
TORSDOF 6
ENDMDL
MODEL 3
REMARK VINA RESULT:      -8.0      2.608      3.380
REMARK  Name = 
REMARK  8 active torsions:
REMARK  status: ('A' for Active; 'I' for Inactive)
REMARK    1  A    between atoms: C_2  and  C_3
REMARK    2  A    between atoms: C_3  and  S_4
REMARK    3  A    between atoms: S_4  and  C_5
REMARK    4  A    between atoms: C_9  and  C_10
REMARK    5  A    between atoms: C_12  and  N_13
REMARK    6  A    between atoms: N_13  and  C_14
REMARK    7  A    between atoms: C_17  and  N_18
REMARK    8  A    between atoms: N_21  and  C_22
REMARK                            x       y       z     vdW  Elec       q    Type
REMARK                         _______ _______ _______ _____ _____    ______ ____
ROOT
ATOM      1  N   UNL     1       2.574   7.551  20.090  0.00  0.00    +0.000 N 
ATOM      2  H   UNL     1       3.310   7.884  20.713  0.00  0.00    +0.000 HD
ENDROOT
BRANCH   1  10
ATOM      3  C   UNL     1       4.500   5.437  16.920  0.00  0.00    +0.000 A 
ATOM      4  N   UNL     1       4.050   4.190  17.235  0.00  0.00    +0.000 NA
ATOM      5  C   UNL     1       3.328   4.375  18.311  0.00  0.00    +0.000 A 
ATOM      6  N   UNL     1       2.626   3.438  19.023  0.00  0.00    +0.000 NA
ATOM      7  C   UNL     1       1.956   3.866  20.041  0.00  0.00    +0.000 A 
ATOM      8  C   UNL     1       1.152   2.901  20.878  0.00  0.00    +0.000 C 
ATOM      9  C   UNL     1       1.892   5.280  20.483  0.00  0.00    +0.000 A 
ATOM     10  C   UNL     1       2.602   6.204  19.777  0.00  0.00    +0.000 A 
ATOM     11  N   UNL     1       3.337   5.736  18.659  0.00  0.00    +0.000 N 
ATOM     12  N   UNL     1       4.122   6.413  17.758  0.00  0.00    +0.000 NA
BRANCH   3  13
ATOM     13  S   UNL     1       5.503   5.705  15.512  0.00  0.00    +0.000 S 
BRANCH  13  14
ATOM     14  C   UNL     1       6.217   4.029  15.169  0.00  0.00    +0.000 C 
BRANCH  14  16
ATOM     15  C   UNL     1       6.054   3.512  12.397  0.00  0.00    +0.000 C 
ATOM     16  C   UNL     1       6.129   3.750  13.677  0.00  0.00    +0.000 C 
ENDBRANCH  14  16
ENDBRANCH  13  14
ENDBRANCH   3  13
ENDBRANCH   1  10
BRANCH   1  17
ATOM     17  C   UNL     1       1.538   8.462  19.807  0.00  0.00    +0.000 A 
ATOM     18  C   UNL     1       1.353   8.987  18.526  0.00  0.00    +0.000 A 
ATOM     19  C   UNL     1       0.303   9.869  18.254  0.00  0.00    +0.000 A 
ATOM     20  C   UNL     1      -0.615  10.236  19.244  0.00  0.00    +0.000 A 
ATOM     21  C   UNL     1      -0.366   9.774  20.543  0.00  0.00    +0.000 A 
ATOM     22  C   UNL     1       0.690   8.906  20.824  0.00  0.00    +0.000 A 
BRANCH  20  23
ATOM     23  N   UNL     1      -1.716  11.013  18.961  0.00  0.00    +0.000 N 
ATOM     24  C   UNL     1      -2.003  12.248  19.709  0.00  0.00    +0.000 C 
ATOM     25  C   UNL     1      -3.530  12.391  19.901  0.00  0.00    +0.000 C 
ATOM     26  N   UNL     1      -4.251  12.349  18.607  0.00  0.00    +0.000 NA
ATOM     27  C   UNL     1      -5.684  12.530  18.798  0.00  0.00    +0.000 C 
ATOM     28  C   UNL     1      -3.962  11.052  17.955  0.00  0.00    +0.000 C 
ATOM     29  C   UNL     1      -2.451  10.862  17.696  0.00  0.00    +0.000 C 
ENDBRANCH  20  23
ENDBRANCH   1  17
TORSDOF 6
ENDMDL
MODEL 4
REMARK VINA RESULT:      -8.0      2.408      4.701
REMARK  Name = 
REMARK  8 active torsions:
REMARK  status: ('A' for Active; 'I' for Inactive)
REMARK    1  A    between atoms: C_2  and  C_3
REMARK    2  A    between atoms: C_3  and  S_4
REMARK    3  A    between atoms: S_4  and  C_5
REMARK    4  A    between atoms: C_9  and  C_10
REMARK    5  A    between atoms: C_12  and  N_13
REMARK    6  A    between atoms: N_13  and  C_14
REMARK    7  A    between atoms: C_17  and  N_18
REMARK    8  A    between atoms: N_21  and  C_22
REMARK                            x       y       z     vdW  Elec       q    Type
REMARK                         _______ _______ _______ _____ _____    ______ ____
ROOT
ATOM      1  N   UNL     1       3.244   7.444  17.365  0.00  0.00    +0.000 N 
ATOM      2  H   UNL     1       3.183   7.723  16.386  0.00  0.00    +0.000 HD
ENDROOT
BRANCH   1  10
ATOM      3  C   UNL     1       3.114   3.241  18.111  0.00  0.00    +0.000 A 
ATOM      4  N   UNL     1       4.437   3.066  18.385  0.00  0.00    +0.000 NA
ATOM      5  C   UNL     1       4.953   4.260  18.240  0.00  0.00    +0.000 A 
ATOM      6  N   UNL     1       6.257   4.640  18.426  0.00  0.00    +0.000 NA
ATOM      7  C   UNL     1       6.525   5.891  18.252  0.00  0.00    +0.000 A 
ATOM      8  C   UNL     1       7.936   6.396  18.439  0.00  0.00    +0.000 C 
ATOM      9  C   UNL     1       5.536   6.930  17.875  0.00  0.00    +0.000 A 
ATOM     10  C   UNL     1       4.244   6.542  17.681  0.00  0.00    +0.000 A 
ATOM     11  N   UNL     1       3.948   5.169  17.872  0.00  0.00    +0.000 N 
ATOM     12  N   UNL     1       2.758   4.489  17.769  0.00  0.00    +0.000 NA
BRANCH   3  13
ATOM     13  S   UNL     1       1.989   1.906  18.203  0.00  0.00    +0.000 S 
BRANCH  13  14
ATOM     14  C   UNL     1       0.705   2.508  19.396  0.00  0.00    +0.000 C 
BRANCH  14  16
ATOM     15  C   UNL     1       1.972   3.263  21.805  0.00  0.00    +0.000 C 
ATOM     16  C   UNL     1       1.387   2.914  20.693  0.00  0.00    +0.000 C 
ENDBRANCH  14  16
ENDBRANCH  13  14
ENDBRANCH   3  13
ENDBRANCH   1  10
BRANCH   1  17
ATOM     17  C   UNL     1       2.437   8.161  18.270  0.00  0.00    +0.000 A 
ATOM     18  C   UNL     1       2.172   7.682  19.555  0.00  0.00    +0.000 A 
ATOM     19  C   UNL     1       1.393   8.419  20.452  0.00  0.00    +0.000 A 
ATOM     20  C   UNL     1       0.875   9.671  20.106  0.00  0.00    +0.000 A 
ATOM     21  C   UNL     1       1.072  10.099  18.786  0.00  0.00    +0.000 A 
ATOM     22  C   UNL     1       1.836   9.360  17.883  0.00  0.00    +0.000 A 
BRANCH  20  23
ATOM     23  N   UNL     1       0.202  10.455  21.017  0.00  0.00    +0.000 N 
ATOM     24  C   UNL     1       0.233  10.161  22.460  0.00  0.00    +0.000 C 
ATOM     25  C   UNL     1      -1.148  10.473  23.079  0.00  0.00    +0.000 C 
ATOM     26  N   UNL     1      -1.568  11.868  22.809  0.00  0.00    +0.000 NA
ATOM     27  C   UNL     1      -2.850  12.162  23.436  0.00  0.00    +0.000 C 
ATOM     28  C   UNL     1      -1.639  12.056  21.342  0.00  0.00    +0.000 C 
ATOM     29  C   UNL     1      -0.276  11.799  20.662  0.00  0.00    +0.000 C 
ENDBRANCH  20  23
ENDBRANCH   1  17
TORSDOF 6
ENDMDL
MODEL 5
REMARK VINA RESULT:      -8.0      2.182      2.865
REMARK  Name = 
REMARK  8 active torsions:
REMARK  status: ('A' for Active; 'I' for Inactive)
REMARK    1  A    between atoms: C_2  and  C_3
REMARK    2  A    between atoms: C_3  and  S_4
REMARK    3  A    between atoms: S_4  and  C_5
REMARK    4  A    between atoms: C_9  and  C_10
REMARK    5  A    between atoms: C_12  and  N_13
REMARK    6  A    between atoms: N_13  and  C_14
REMARK    7  A    between atoms: C_17  and  N_18
REMARK    8  A    between atoms: N_21  and  C_22
REMARK                            x       y       z     vdW  Elec       q    Type
REMARK                         _______ _______ _______ _____ _____    ______ ____
ROOT
ATOM      1  N   UNL     1       2.554   7.416  20.232  0.00  0.00    +0.000 N 
ATOM      2  H   UNL     1       3.263   7.773  20.873  0.00  0.00    +0.000 HD
ENDROOT
BRANCH   1  10
ATOM      3  C   UNL     1       4.454   5.209  17.109  0.00  0.00    +0.000 A 
ATOM      4  N   UNL     1       4.029   3.969  17.480  0.00  0.00    +0.000 NA
ATOM      5  C   UNL     1       3.324   4.185  18.561  0.00  0.00    +0.000 A 
ATOM      6  N   UNL     1       2.648   3.266  19.321  0.00  0.00    +0.000 NA
ATOM      7  C   UNL     1       1.991   3.723  20.334  0.00  0.00    +0.000 A 
ATOM      8  C   UNL     1       1.216   2.779  21.223  0.00  0.00    +0.000 C 
ATOM      9  C   UNL     1       1.913   5.152  20.724  0.00  0.00    +0.000 A 
ATOM     10  C   UNL     1       2.597   6.058  19.970  0.00  0.00    +0.000 A 
ATOM     11  N   UNL     1       3.318   5.558  18.857  0.00  0.00    +0.000 N 
ATOM     12  N   UNL     1       4.077   6.212  17.917  0.00  0.00    +0.000 NA
BRANCH   3  13
ATOM     13  S   UNL     1       5.427   5.438  15.674  0.00  0.00    +0.000 S 
BRANCH  13  14
ATOM     14  C   UNL     1       7.037   4.633  16.115  0.00  0.00    +0.000 C 
BRANCH  14  16
ATOM     15  C   UNL     1       7.820   5.487  18.690  0.00  0.00    +0.000 C 
ATOM     16  C   UNL     1       7.458   5.093  17.502  0.00  0.00    +0.000 C 
ENDBRANCH  14  16
ENDBRANCH  13  14
ENDBRANCH   3  13
ENDBRANCH   1  10
BRANCH   1  17
ATOM     17  C   UNL     1       1.530   8.313  19.872  0.00  0.00    +0.000 A 
ATOM     18  C   UNL     1       1.428   8.828  18.577  0.00  0.00    +0.000 A 
ATOM     19  C   UNL     1       0.389   9.695  18.228  0.00  0.00    +0.000 A 
ATOM     20  C   UNL     1      -0.598  10.059  19.150  0.00  0.00    +0.000 A 
ATOM     21  C   UNL     1      -0.433   9.609  20.467  0.00  0.00    +0.000 A 
ATOM     22  C   UNL     1       0.610   8.755  20.825  0.00  0.00    +0.000 A 
BRANCH  20  23
ATOM     23  N   UNL     1      -1.685  10.822  18.786  0.00  0.00    +0.000 N 
ATOM     24  C   UNL     1      -1.994  12.095  19.457  0.00  0.00    +0.000 C 
ATOM     25  C   UNL     1      -3.527  12.251  19.586  0.00  0.00    +0.000 C 
ATOM     26  N   UNL     1      -4.201  12.142  18.271  0.00  0.00    +0.000 NA
ATOM     27  C   UNL     1      -5.639  12.335  18.401  0.00  0.00    +0.000 C 
ATOM     28  C   UNL     1      -3.893  10.811  17.700  0.00  0.00    +0.000 C 
ATOM     29  C   UNL     1      -2.375  10.605  17.506  0.00  0.00    +0.000 C 
ENDBRANCH  20  23
ENDBRANCH   1  17
TORSDOF 6
ENDMDL
MODEL 6
REMARK VINA RESULT:      -7.9      2.449      4.656
REMARK  Name = 
REMARK  8 active torsions:
REMARK  status: ('A' for Active; 'I' for Inactive)
REMARK    1  A    between atoms: C_2  and  C_3
REMARK    2  A    between atoms: C_3  and  S_4
REMARK    3  A    between atoms: S_4  and  C_5
REMARK    4  A    between atoms: C_9  and  C_10
REMARK    5  A    between atoms: C_12  and  N_13
REMARK    6  A    between atoms: N_13  and  C_14
REMARK    7  A    between atoms: C_17  and  N_18
REMARK    8  A    between atoms: N_21  and  C_22
REMARK                            x       y       z     vdW  Elec       q    Type
REMARK                         _______ _______ _______ _____ _____    ______ ____
ROOT
ATOM      1  N   UNL     1       3.443   7.363  17.338  0.00  0.00    +0.000 N 
ATOM      2  H   UNL     1       3.472   7.638  16.357  0.00  0.00    +0.000 HD
ENDROOT
BRANCH   1  10
ATOM      3  C   UNL     1       3.104   3.189  18.173  0.00  0.00    +0.000 A 
ATOM      4  N   UNL     1       4.399   2.973  18.537  0.00  0.00    +0.000 NA
ATOM      5  C   UNL     1       4.969   4.142  18.397  0.00  0.00    +0.000 A 
ATOM      6  N   UNL     1       6.272   4.478  18.657  0.00  0.00    +0.000 NA
ATOM      7  C   UNL     1       6.599   5.714  18.471  0.00  0.00    +0.000 A 
ATOM      8  C   UNL     1       8.013   6.171  18.737  0.00  0.00    +0.000 C 
ATOM      9  C   UNL     1       5.676   6.778  18.007  0.00  0.00    +0.000 A 
ATOM     10  C   UNL     1       4.386   6.433  17.739  0.00  0.00    +0.000 A 
ATOM     11  N   UNL     1       4.025   5.078  17.944  0.00  0.00    +0.000 N 
ATOM     12  N   UNL     1       2.819   4.439  17.780  0.00  0.00    +0.000 NA
BRANCH   3  13
ATOM     13  S   UNL     1       1.924   1.899  18.225  0.00  0.00    +0.000 S 
BRANCH  13  14
ATOM     14  C   UNL     1       0.686   2.499  19.466  0.00  0.00    +0.000 C 
BRANCH  14  16
ATOM     15  C   UNL     1       2.053   3.392  21.769  0.00  0.00    +0.000 C 
ATOM     16  C   UNL     1       1.422   2.980  20.706  0.00  0.00    +0.000 C 
ENDBRANCH  14  16
ENDBRANCH  13  14
ENDBRANCH   3  13
ENDBRANCH   1  10
BRANCH   1  17
ATOM     17  C   UNL     1       2.587   8.110  18.170  0.00  0.00    +0.000 A 
ATOM     18  C   UNL     1       2.063   9.341  17.767  0.00  0.00    +0.000 A 
ATOM     19  C   UNL     1       1.191  10.057  18.592  0.00  0.00    +0.000 A 
ATOM     20  C   UNL     1       0.791   9.557  19.836  0.00  0.00    +0.000 A 
ATOM     21  C   UNL     1       1.392   8.367  20.266  0.00  0.00    +0.000 A 
ATOM     22  C   UNL     1       2.275   7.656  19.453  0.00  0.00    +0.000 A 
BRANCH  20  23
ATOM     23  N   UNL     1      -0.153  10.200  20.607  0.00  0.00    +0.000 N 
ATOM     24  C   UNL     1      -1.097  11.168  20.023  0.00  0.00    +0.000 C 
ATOM     25  C   UNL     1      -1.336  12.320  21.025  0.00  0.00    +0.000 C 
ATOM     26  N   UNL     1      -1.803  11.817  22.338  0.00  0.00    +0.000 NA
ATOM     27  C   UNL     1      -2.068  12.916  23.258  0.00  0.00    +0.000 C 
ATOM     28  C   UNL     1      -0.768  10.908  22.881  0.00  0.00    +0.000 C 
ATOM     29  C   UNL     1      -0.508   9.707  21.946  0.00  0.00    +0.000 C 
ENDBRANCH  20  23
ENDBRANCH   1  17
TORSDOF 6
ENDMDL
MODEL 7
REMARK VINA RESULT:      -7.9      2.344      3.042
REMARK  Name = 
REMARK  8 active torsions:
REMARK  status: ('A' for Active; 'I' for Inactive)
REMARK    1  A    between atoms: C_2  and  C_3
REMARK    2  A    between atoms: C_3  and  S_4
REMARK    3  A    between atoms: S_4  and  C_5
REMARK    4  A    between atoms: C_9  and  C_10
REMARK    5  A    between atoms: C_12  and  N_13
REMARK    6  A    between atoms: N_13  and  C_14
REMARK    7  A    between atoms: C_17  and  N_18
REMARK    8  A    between atoms: N_21  and  C_22
REMARK                            x       y       z     vdW  Elec       q    Type
REMARK                         _______ _______ _______ _____ _____    ______ ____
ROOT
ATOM      1  N   UNL     1       2.740   6.581  20.173  0.00  0.00    +0.000 N 
ATOM      2  H   UNL     1       3.425   6.550  20.928  0.00  0.00    +0.000 HD
ENDROOT
BRANCH   1  10
ATOM      3  C   UNL     1       4.715   5.263  16.624  0.00  0.00    +0.000 A 
ATOM      4  N   UNL     1       4.040   4.089  16.468  0.00  0.00    +0.000 NA
ATOM      5  C   UNL     1       3.221   4.055  17.487  0.00  0.00    +0.000 A 
ATOM      6  N   UNL     1       2.295   3.091  17.789  0.00  0.00    +0.000 NA
ATOM      7  C   UNL     1       1.572   3.292  18.841  0.00  0.00    +0.000 A 
ATOM      8  C   UNL     1       0.525   2.281  19.244  0.00  0.00    +0.000 C 
ATOM      9  C   UNL     1       1.670   4.476  19.728  0.00  0.00    +0.000 A 
ATOM     10  C   UNL     1       2.601   5.425  19.428  0.00  0.00    +0.000 A 
ATOM     11  N   UNL     1       3.394   5.207  18.273  0.00  0.00    +0.000 N 
ATOM     12  N   UNL     1       4.386   5.974  17.712  0.00  0.00    +0.000 NA
BRANCH   3  13
ATOM     13  S   UNL     1       5.923   5.770  15.465  0.00  0.00    +0.000 S 
BRANCH  13  14
ATOM     14  C   UNL     1       6.724   4.179  14.956  0.00  0.00    +0.000 C 
BRANCH  14  16
ATOM     15  C   UNL     1       5.786   3.456  12.392  0.00  0.00    +0.000 C 
ATOM     16  C   UNL     1       6.218   3.789  13.576  0.00  0.00    +0.000 C 
ENDBRANCH  14  16
ENDBRANCH  13  14
ENDBRANCH   3  13
ENDBRANCH   1  10
BRANCH   1  17
ATOM     17  C   UNL     1       1.910   7.718  20.131  0.00  0.00    +0.000 A 
ATOM     18  C   UNL     1       1.779   8.490  18.973  0.00  0.00    +0.000 A 
ATOM     19  C   UNL     1       0.929   9.598  18.939  0.00  0.00    +0.000 A 
ATOM     20  C   UNL     1       0.160   9.960  20.050  0.00  0.00    +0.000 A 
ATOM     21  C   UNL     1       0.367   9.234  21.230  0.00  0.00    +0.000 A 
ATOM     22  C   UNL     1       1.226   8.136  21.274  0.00  0.00    +0.000 A 
BRANCH  20  23
ATOM     23  N   UNL     1      -0.763  10.981  19.992  0.00  0.00    +0.000 N 
ATOM     24  C   UNL     1      -0.904  11.958  21.084  0.00  0.00    +0.000 C 
ATOM     25  C   UNL     1      -2.396  12.322  21.260  0.00  0.00    +0.000 C 
ATOM     26  N   UNL     1      -2.992  12.817  19.997  0.00  0.00    +0.000 NA
ATOM     27  C   UNL     1      -4.385  13.199  20.187  0.00  0.00    +0.000 C 
ATOM     28  C   UNL     1      -2.868  11.752  18.976  0.00  0.00    +0.000 C 
ATOM     29  C   UNL     1      -1.394  11.367  18.721  0.00  0.00    +0.000 C 
ENDBRANCH  20  23
ENDBRANCH   1  17
TORSDOF 6
ENDMDL
MODEL 8
REMARK VINA RESULT:      -7.9      3.402      4.870
REMARK  Name = 
REMARK  8 active torsions:
REMARK  status: ('A' for Active; 'I' for Inactive)
REMARK    1  A    between atoms: C_2  and  C_3
REMARK    2  A    between atoms: C_3  and  S_4
REMARK    3  A    between atoms: S_4  and  C_5
REMARK    4  A    between atoms: C_9  and  C_10
REMARK    5  A    between atoms: C_12  and  N_13
REMARK    6  A    between atoms: N_13  and  C_14
REMARK    7  A    between atoms: C_17  and  N_18
REMARK    8  A    between atoms: N_21  and  C_22
REMARK                            x       y       z     vdW  Elec       q    Type
REMARK                         _______ _______ _______ _____ _____    ______ ____
ROOT
ATOM      1  N   UNL     1       3.706   5.694  17.566  0.00  0.00    +0.000 N 
ATOM      2  H   UNL     1       3.177   5.120  16.910  0.00  0.00    +0.000 HD
ENDROOT
BRANCH   1  10
ATOM      3  C   UNL     1       6.404   4.672  14.418  0.00  0.00    +0.000 A 
ATOM      4  N   UNL     1       7.545   4.642  15.162  0.00  0.00    +0.000 NA
ATOM      5  C   UNL     1       7.148   4.958  16.367  0.00  0.00    +0.000 A 
ATOM      6  N   UNL     1       7.906   5.047  17.506  0.00  0.00    +0.000 NA
ATOM      7  C   UNL     1       7.281   5.348  18.596  0.00  0.00    +0.000 A 
ATOM      8  C   UNL     1       8.040   5.464  19.896  0.00  0.00    +0.000 C 
ATOM      9  C   UNL     1       5.823   5.596  18.700  0.00  0.00    +0.000 A 
ATOM     10  C   UNL     1       5.078   5.517  17.562  0.00  0.00    +0.000 A 
ATOM     11  N   UNL     1       5.762   5.186  16.365  0.00  0.00    +0.000 N 
ATOM     12  N   UNL     1       5.293   5.018  15.085  0.00  0.00    +0.000 NA
BRANCH   3  13
ATOM     13  S   UNL     1       6.427   4.284  12.713  0.00  0.00    +0.000 S 
BRANCH  13  14
ATOM     14  C   UNL     1       5.120   2.980  12.552  0.00  0.00    +0.000 C 
BRANCH  14  16
ATOM     15  C   UNL     1       3.462   3.604  10.353  0.00  0.00    +0.000 C 
ATOM     16  C   UNL     1       4.228   3.317  11.368  0.00  0.00    +0.000 C 
ENDBRANCH  14  16
ENDBRANCH  13  14
ENDBRANCH   3  13
ENDBRANCH   1  10
BRANCH   1  17
ATOM     17  C   UNL     1       2.987   6.708  18.229  0.00  0.00    +0.000 A 
ATOM     18  C   UNL     1       2.692   7.924  17.607  0.00  0.00    +0.000 A 
ATOM     19  C   UNL     1       1.952   8.909  18.267  0.00  0.00    +0.000 A 
ATOM     20  C   UNL     1       1.458   8.705  19.560  0.00  0.00    +0.000 A 
ATOM     21  C   UNL     1       1.836   7.520  20.205  0.00  0.00    +0.000 A 
ATOM     22  C   UNL     1       2.588   6.539  19.556  0.00  0.00    +0.000 A 
BRANCH  20  23
ATOM     23  N   UNL     1       0.635   9.622  20.175  0.00  0.00    +0.000 N 
ATOM     24  C   UNL     1       0.333  10.924  19.559  0.00  0.00    +0.000 C 
ATOM     25  C   UNL     1       0.250  12.007  20.658  0.00  0.00    +0.000 C 
ATOM     26  N   UNL     1      -0.736  11.650  21.705  0.00  0.00    +0.000 NA
ATOM     27  C   UNL     1      -0.837  12.700  22.711  0.00  0.00    +0.000 C 
ATOM     28  C   UNL     1      -0.320  10.368  22.316  0.00  0.00    +0.000 C 
ATOM     29  C   UNL     1      -0.256   9.228  21.276  0.00  0.00    +0.000 C 
ENDBRANCH  20  23
ENDBRANCH   1  17
TORSDOF 6
ENDMDL
MODEL 9
REMARK VINA RESULT:      -7.9      2.042      2.486
REMARK  Name = 
REMARK  8 active torsions:
REMARK  status: ('A' for Active; 'I' for Inactive)
REMARK    1  A    between atoms: C_2  and  C_3
REMARK    2  A    between atoms: C_3  and  S_4
REMARK    3  A    between atoms: S_4  and  C_5
REMARK    4  A    between atoms: C_9  and  C_10
REMARK    5  A    between atoms: C_12  and  N_13
REMARK    6  A    between atoms: N_13  and  C_14
REMARK    7  A    between atoms: C_17  and  N_18
REMARK    8  A    between atoms: N_21  and  C_22
REMARK                            x       y       z     vdW  Elec       q    Type
REMARK                         _______ _______ _______ _____ _____    ______ ____
ROOT
ATOM      1  N   UNL     1       2.710   6.480  20.198  0.00  0.00    +0.000 N 
ATOM      2  H   UNL     1       3.316   6.404  21.015  0.00  0.00    +0.000 HD
ENDROOT
BRANCH   1  10
ATOM      3  C   UNL     1       4.783   5.279  16.663  0.00  0.00    +0.000 A 
ATOM      4  N   UNL     1       4.119   4.108  16.455  0.00  0.00    +0.000 NA
ATOM      5  C   UNL     1       3.274   4.038  17.452  0.00  0.00    +0.000 A 
ATOM      6  N   UNL     1       2.347   3.061  17.701  0.00  0.00    +0.000 NA
ATOM      7  C   UNL     1       1.596   3.225  18.739  0.00  0.00    +0.000 A 
ATOM      8  C   UNL     1       0.546   2.197  19.085  0.00  0.00    +0.000 C 
ATOM      9  C   UNL     1       1.664   4.383  19.663  0.00  0.00    +0.000 A 
ATOM     10  C   UNL     1       2.597   5.345  19.416  0.00  0.00    +0.000 A 
ATOM     11  N   UNL     1       3.420   5.166  18.276  0.00  0.00    +0.000 N 
ATOM     12  N   UNL     1       4.422   5.956  17.764  0.00  0.00    +0.000 NA
BRANCH   3  13
ATOM     13  S   UNL     1       6.016   5.828  15.552  0.00  0.00    +0.000 S 
BRANCH  13  14
ATOM     14  C   UNL     1       6.819   4.254  14.991  0.00  0.00    +0.000 C 
BRANCH  14  16
ATOM     15  C   UNL     1       5.736   3.509  12.491  0.00  0.00    +0.000 C 
ATOM     16  C   UNL     1       6.235   3.853  13.645  0.00  0.00    +0.000 C 
ENDBRANCH  14  16
ENDBRANCH  13  14
ENDBRANCH   3  13
ENDBRANCH   1  10
BRANCH   1  17
ATOM     17  C   UNL     1       1.935   7.652  20.104  0.00  0.00    +0.000 A 
ATOM     18  C   UNL     1       1.157   8.105  21.173  0.00  0.00    +0.000 A 
ATOM     19  C   UNL     1       0.417   9.286  21.074  0.00  0.00    +0.000 A 
ATOM     20  C   UNL     1       0.447  10.070  19.915  0.00  0.00    +0.000 A 
ATOM     21  C   UNL     1       1.158   9.559  18.821  0.00  0.00    +0.000 A 
ATOM     22  C   UNL     1       1.887   8.373  18.910  0.00  0.00    +0.000 A 
BRANCH  20  23
ATOM     23  N   UNL     1      -0.188  11.290  19.848  0.00  0.00    +0.000 N 
ATOM     24  C   UNL     1      -0.383  11.990  18.567  0.00  0.00    +0.000 C 
ATOM     25  C   UNL     1      -0.219  13.511  18.782  0.00  0.00    +0.000 C 
ATOM     26  N   UNL     1      -1.134  14.018  19.832  0.00  0.00    +0.000 NA
ATOM     27  C   UNL     1      -1.001  15.460  19.993  0.00  0.00    +0.000 C 
ATOM     28  C   UNL     1      -0.825  13.312  21.096  0.00  0.00    +0.000 C 
ATOM     29  C   UNL     1      -1.009  11.785  20.963  0.00  0.00    +0.000 C 
ENDBRANCH  20  23
ENDBRANCH   1  17
TORSDOF 6
ENDMDL
