MODEL 1
REMARK VINA RESULT:      -7.0      0.000      0.000
REMARK  Name = 
REMARK  5 active torsions:
REMARK  status: ('A' for Active; 'I' for Inactive)
REMARK    1  A    between atoms: C_1  and  O_2
REMARK    2  A    between atoms: O_2  and  C_3
REMARK    3  A    between atoms: C_6  and  N_7
REMARK    4  A    between atoms: C_19  and  C_21
REMARK    5  A    between atoms: N_25  and  C_26
REMARK                            x       y       z     vdW  Elec       q    Type
REMARK                         _______ _______ _______ _____ _____    ______ ____
ROOT
ATOM      1  N   UNL     1       1.701   7.101  20.729  0.00  0.00    +0.000 N 
ATOM      2  C   UNL     1       1.634   8.156  19.851  0.00  0.00    +0.000 C 
ATOM      3  O   UNL     1       1.937   8.081  18.662  0.00  0.00    +0.000 OA
ATOM      4  N   UNL     1       1.130   9.340  20.372  0.00  0.00    +0.000 N 
ATOM      5  C   UNL     1       0.911  10.421  19.421  0.00  0.00    +0.000 C 
ATOM      6  C   UNL     1      -0.438  11.066  19.673  0.00  0.00    +0.000 C 
ATOM      7  C   UNL     1      -0.580  11.598  21.120  0.00  0.00    +0.000 C 
ATOM      8  C   UNL     1      -0.260  10.434  22.098  0.00  0.00    +0.000 C 
ATOM      9  C   UNL     1       1.066   9.730  21.782  0.00  0.00    +0.000 C 
ATOM     10  C   UNL     1       0.363  12.800  21.394  0.00  0.00    +0.000 C 
ATOM     11  C   UNL     1      -0.012  14.047  20.594  0.00  0.00    +0.000 C 
ATOM     12  N   UNL     1      -1.417  14.386  20.797  0.00  0.00    +0.000 N 
ATOM     13  C   UNL     1      -1.755  15.734  20.958  0.00  0.00    +0.000 C 
ATOM     14  O   UNL     1      -0.895  16.609  20.857  0.00  0.00    +0.000 OA
ATOM     15  C   UNL     1      -2.355  13.309  20.485  0.00  0.00    +0.000 C 
ATOM     16  C   UNL     1      -2.038  12.078  21.337  0.00  0.00    +0.000 C 
ATOM     17  H   UNL     1       1.112   7.166  21.542  0.00  0.00    +0.000 HD
ENDROOT
BRANCH   1  21
ATOM     18  C   UNL     1       2.945   3.205  19.678  0.00  0.00    +0.000 A 
ATOM     19  C   UNL     1       3.815   4.277  19.499  0.00  0.00    +0.000 A 
ATOM     20  C   UNL     1       3.439   5.561  19.878  0.00  0.00    +0.000 A 
ATOM     21  C   UNL     1       2.168   5.807  20.404  0.00  0.00    +0.000 A 
ATOM     22  C   UNL     1       1.303   4.726  20.604  0.00  0.00    +0.000 A 
ATOM     23  C   UNL     1       1.686   3.429  20.233  0.00  0.00    +0.000 A 
BRANCH  18  25
ATOM     24  C   UNL     1       3.396   1.813  17.829  0.00  0.00    +0.000 C 
ATOM     25  O   UNL     1       3.418   2.001  19.236  0.00  0.00    +0.000 OA
ENDBRANCH  18  25
ENDBRANCH   1  21
BRANCH  13  26
ATOM     26  C   UNL     1      -3.139  16.081  21.248  0.00  0.00    +0.000 A 
ATOM     27  C   UNL     1      -4.157  16.504  20.399  0.00  0.00    +0.000 A 
ATOM     28  C   UNL     1      -5.310  16.768  21.170  0.00  0.00    +0.000 A 
ATOM     29  C   UNL     1      -5.020  16.400  22.462  0.00  0.00    +0.000 A 
ATOM     30  N   UNL     1      -3.723  15.954  22.496  0.00  0.00    +0.000 N 
ATOM     31  C   UNL     1      -3.064  15.463  23.689  0.00  0.00    +0.000 C 
ENDBRANCH  13  26
TORSDOF 3
ENDMDL
MODEL 2
REMARK VINA RESULT:      -6.9      2.284      2.945
REMARK  Name = 
REMARK  5 active torsions:
REMARK  status: ('A' for Active; 'I' for Inactive)
REMARK    1  A    between atoms: C_1  and  O_2
REMARK    2  A    between atoms: O_2  and  C_3
REMARK    3  A    between atoms: C_6  and  N_7
REMARK    4  A    between atoms: C_19  and  C_21
REMARK    5  A    between atoms: N_25  and  C_26
REMARK                            x       y       z     vdW  Elec       q    Type
REMARK                         _______ _______ _______ _____ _____    ______ ____
ROOT
ATOM      1  N   UNL     1       2.439   7.921  18.200  0.00  0.00    +0.000 N 
ATOM      2  C   UNL     1       1.834   8.044  19.428  0.00  0.00    +0.000 C 
ATOM      3  O   UNL     1       1.977   7.241  20.347  0.00  0.00    +0.000 OA
ATOM      4  N   UNL     1       1.075   9.191  19.611  0.00  0.00    +0.000 N 
ATOM      5  C   UNL     1       0.553   9.411  20.953  0.00  0.00    +0.000 C 
ATOM      6  C   UNL     1       0.763  10.857  21.360  0.00  0.00    +0.000 C 
ATOM      7  C   UNL     1       0.111  11.853  20.369  0.00  0.00    +0.000 C 
ATOM      8  C   UNL     1       0.635  11.530  18.943  0.00  0.00    +0.000 C 
ATOM      9  C   UNL     1       0.498  10.047  18.572  0.00  0.00    +0.000 C 
ATOM     10  C   UNL     1      -1.439  11.773  20.398  0.00  0.00    +0.000 C 
ATOM     11  C   UNL     1      -2.035  12.255  21.721  0.00  0.00    +0.000 C 
ATOM     12  N   UNL     1      -1.542  13.587  22.054  0.00  0.00    +0.000 N 
ATOM     13  C   UNL     1      -2.447  14.517  22.576  0.00  0.00    +0.000 C 
ATOM     14  O   UNL     1      -3.610  14.190  22.813  0.00  0.00    +0.000 OA
ATOM     15  C   UNL     1      -0.085  13.701  22.110  0.00  0.00    +0.000 C 
ATOM     16  C   UNL     1       0.522  13.294  20.765  0.00  0.00    +0.000 C 
ATOM     17  H   UNL     1       2.550   8.773  17.677  0.00  0.00    +0.000 HD
ENDROOT
BRANCH   1  21
ATOM     18  C   UNL     1       4.764   4.630  16.940  0.00  0.00    +0.000 A 
ATOM     19  C   UNL     1       5.299   5.914  16.877  0.00  0.00    +0.000 A 
ATOM     20  C   UNL     1       4.564   7.006  17.327  0.00  0.00    +0.000 A 
ATOM     21  C   UNL     1       3.263   6.841  17.809  0.00  0.00    +0.000 A 
ATOM     22  C   UNL     1       2.736   5.548  17.891  0.00  0.00    +0.000 A 
ATOM     23  C   UNL     1       3.480   4.445  17.449  0.00  0.00    +0.000 A 
BRANCH  18  25
ATOM     24  C   UNL     1       6.334   4.005  15.295  0.00  0.00    +0.000 C 
ATOM     25  O   UNL     1       5.571   3.647  16.438  0.00  0.00    +0.000 OA
ENDBRANCH  18  25
ENDBRANCH   1  21
BRANCH  13  26
ATOM     26  C   UNL     1      -1.989  15.875  22.833  0.00  0.00    +0.000 A 
ATOM     27  C   UNL     1      -1.936  16.980  21.990  0.00  0.00    +0.000 A 
ATOM     28  C   UNL     1      -1.360  18.060  22.693  0.00  0.00    +0.000 A 
ATOM     29  C   UNL     1      -1.168  17.637  23.987  0.00  0.00    +0.000 A 
ATOM     30  N   UNL     1      -1.582  16.332  24.073  0.00  0.00    +0.000 N 
ATOM     31  C   UNL     1      -1.549  15.549  25.291  0.00  0.00    +0.000 C 
ENDBRANCH  13  26
TORSDOF 3
ENDMDL
MODEL 3
REMARK VINA RESULT:      -6.9      0.944      1.375
REMARK  Name = 
REMARK  5 active torsions:
REMARK  status: ('A' for Active; 'I' for Inactive)
REMARK    1  A    between atoms: C_1  and  O_2
REMARK    2  A    between atoms: O_2  and  C_3
REMARK    3  A    between atoms: C_6  and  N_7
REMARK    4  A    between atoms: C_19  and  C_21
REMARK    5  A    between atoms: N_25  and  C_26
REMARK                            x       y       z     vdW  Elec       q    Type
REMARK                         _______ _______ _______ _____ _____    ______ ____
ROOT
ATOM      1  N   UNL     1       1.786   7.437  20.592  0.00  0.00    +0.000 N 
ATOM      2  C   UNL     1       1.457   8.529  19.825  0.00  0.00    +0.000 C 
ATOM      3  O   UNL     1       1.553   8.562  18.601  0.00  0.00    +0.000 OA
ATOM      4  N   UNL     1       0.933   9.613  20.516  0.00  0.00    +0.000 N 
ATOM      5  C   UNL     1       0.438  10.716  19.705  0.00  0.00    +0.000 C 
ATOM      6  C   UNL     1      -0.905  11.184  20.231  0.00  0.00    +0.000 C 
ATOM      7  C   UNL     1      -0.845  11.607  21.719  0.00  0.00    +0.000 C 
ATOM      8  C   UNL     1      -0.239  10.431  22.533  0.00  0.00    +0.000 C 
ATOM      9  C   UNL     1       1.077   9.906  21.944  0.00  0.00    +0.000 C 
ATOM     10  C   UNL     1       0.002  12.891  21.926  0.00  0.00    +0.000 C 
ATOM     11  C   UNL     1      -0.636  14.133  21.302  0.00  0.00    +0.000 C 
ATOM     12  N   UNL     1      -2.010  14.294  21.765  0.00  0.00    +0.000 N 
ATOM     13  C   UNL     1      -2.453  15.581  22.087  0.00  0.00    +0.000 C 
ATOM     14  O   UNL     1      -1.720  16.555  21.914  0.00  0.00    +0.000 OA
ATOM     15  C   UNL     1      -2.872  13.136  21.529  0.00  0.00    +0.000 C 
ATOM     16  C   UNL     1      -2.284  11.900  22.214  0.00  0.00    +0.000 C 
ATOM     17  H   UNL     1       1.345   7.384  21.495  0.00  0.00    +0.000 HD
ENDROOT
BRANCH   1  21
ATOM     18  C   UNL     1       3.544   3.879  19.151  0.00  0.00    +0.000 A 
ATOM     19  C   UNL     1       2.364   3.814  19.888  0.00  0.00    +0.000 A 
ATOM     20  C   UNL     1       1.748   4.978  20.335  0.00  0.00    +0.000 A 
ATOM     21  C   UNL     1       2.321   6.228  20.092  0.00  0.00    +0.000 A 
ATOM     22  C   UNL     1       3.495   6.293  19.333  0.00  0.00    +0.000 A 
ATOM     23  C   UNL     1       4.111   5.121  18.871  0.00  0.00    +0.000 A 
BRANCH  18  25
ATOM     24  C   UNL     1       3.151   1.746  18.226  0.00  0.00    +0.000 C 
ATOM     25  O   UNL     1       4.068   2.667  18.798  0.00  0.00    +0.000 OA
ENDBRANCH  18  25
ENDBRANCH   1  21
BRANCH  13  26
ATOM     26  C   UNL     1      -3.794  15.746  22.632  0.00  0.00    +0.000 A 
ATOM     27  C   UNL     1      -4.987  16.076  21.998  0.00  0.00    +0.000 A 
ATOM     28  C   UNL     1      -6.006  16.169  22.970  0.00  0.00    +0.000 A 
ATOM     29  C   UNL     1      -5.451  15.789  24.168  0.00  0.00    +0.000 A 
ATOM     30  N   UNL     1      -4.128  15.501  23.952  0.00  0.00    +0.000 N 
ATOM     31  C   UNL     1      -3.215  15.048  24.982  0.00  0.00    +0.000 C 
ENDBRANCH  13  26
TORSDOF 3
ENDMDL
MODEL 4
REMARK VINA RESULT:      -6.9      0.908      1.629
REMARK  Name = 
REMARK  5 active torsions:
REMARK  status: ('A' for Active; 'I' for Inactive)
REMARK    1  A    between atoms: C_1  and  O_2
REMARK    2  A    between atoms: O_2  and  C_3
REMARK    3  A    between atoms: C_6  and  N_7
REMARK    4  A    between atoms: C_19  and  C_21
REMARK    5  A    between atoms: N_25  and  C_26
REMARK                            x       y       z     vdW  Elec       q    Type
REMARK                         _______ _______ _______ _____ _____    ______ ____
ROOT
ATOM      1  N   UNL     1       1.620   7.353  20.844  0.00  0.00    +0.000 N 
ATOM      2  C   UNL     1       1.363   8.459  20.068  0.00  0.00    +0.000 C 
ATOM      3  O   UNL     1       1.521   8.494  18.850  0.00  0.00    +0.000 OA
ATOM      4  N   UNL     1       0.839   9.555  20.740  0.00  0.00    +0.000 N 
ATOM      5  C   UNL     1       0.420  10.677  19.912  0.00  0.00    +0.000 C 
ATOM      6  C   UNL     1      -0.932  11.184  20.373  0.00  0.00    +0.000 C 
ATOM      7  C   UNL     1      -0.934  11.598  21.865  0.00  0.00    +0.000 C 
ATOM      8  C   UNL     1      -0.406  10.400  22.700  0.00  0.00    +0.000 C 
ATOM      9  C   UNL     1       0.921   9.837  22.175  0.00  0.00    +0.000 C 
ATOM     10  C   UNL     1      -0.059  12.854  22.122  0.00  0.00    +0.000 C 
ATOM     11  C   UNL     1      -0.626  14.118  21.475  0.00  0.00    +0.000 C 
ATOM     12  N   UNL     1      -2.016  14.319  21.870  0.00  0.00    +0.000 N 
ATOM     13  C   UNL     1      -2.435  15.618  22.179  0.00  0.00    +0.000 C 
ATOM     14  O   UNL     1      -1.664  16.569  22.049  0.00  0.00    +0.000 OA
ATOM     15  C   UNL     1      -2.901  13.191  21.585  0.00  0.00    +0.000 C 
ATOM     16  C   UNL     1      -2.386  11.934  22.290  0.00  0.00    +0.000 C 
ATOM     17  H   UNL     1       1.133   7.309  21.723  0.00  0.00    +0.000 HD
ENDROOT
BRANCH   1  21
ATOM     18  C   UNL     1       3.336   3.748  19.472  0.00  0.00    +0.000 A 
ATOM     19  C   UNL     1       2.110   3.719  20.131  0.00  0.00    +0.000 A 
ATOM     20  C   UNL     1       1.509   4.901  20.553  0.00  0.00    +0.000 A 
ATOM     21  C   UNL     1       2.142   6.131  20.363  0.00  0.00    +0.000 A 
ATOM     22  C   UNL     1       3.364   6.160  19.682  0.00  0.00    +0.000 A 
ATOM     23  C   UNL     1       3.965   4.971  19.245  0.00  0.00    +0.000 A 
BRANCH  18  25
ATOM     24  C   UNL     1       3.219   1.889  18.026  0.00  0.00    +0.000 C 
ATOM     25  O   UNL     1       3.837   2.521  19.137  0.00  0.00    +0.000 OA
ENDBRANCH  18  25
ENDBRANCH   1  21
BRANCH  13  26
ATOM     26  C   UNL     1      -3.795  15.823  22.657  0.00  0.00    +0.000 A 
ATOM     27  C   UNL     1      -4.312  15.768  23.947  0.00  0.00    +0.000 A 
ATOM     28  C   UNL     1      -5.705  15.986  23.886  0.00  0.00    +0.000 A 
ATOM     29  C   UNL     1      -6.007  16.279  22.578  0.00  0.00    +0.000 A 
ATOM     30  N   UNL     1      -4.847  16.215  21.849  0.00  0.00    +0.000 N 
ATOM     31  C   UNL     1      -4.765  16.481  20.427  0.00  0.00    +0.000 C 
ENDBRANCH  13  26
TORSDOF 3
ENDMDL
MODEL 5
REMARK VINA RESULT:      -6.9      1.739      2.089
REMARK  Name = 
REMARK  5 active torsions:
REMARK  status: ('A' for Active; 'I' for Inactive)
REMARK    1  A    between atoms: C_1  and  O_2
REMARK    2  A    between atoms: O_2  and  C_3
REMARK    3  A    between atoms: C_6  and  N_7
REMARK    4  A    between atoms: C_19  and  C_21
REMARK    5  A    between atoms: N_25  and  C_26
REMARK                            x       y       z     vdW  Elec       q    Type
REMARK                         _______ _______ _______ _____ _____    ______ ____
ROOT
ATOM      1  N   UNL     1       2.063   7.874  19.184  0.00  0.00    +0.000 N 
ATOM      2  C   UNL     1       1.738   9.090  18.631  0.00  0.00    +0.000 C 
ATOM      3  O   UNL     1       1.914   9.375  17.449  0.00  0.00    +0.000 OA
ATOM      4  N   UNL     1       1.122   9.993  19.486  0.00  0.00    +0.000 N 
ATOM      5  C   UNL     1       0.636  11.225  18.879  0.00  0.00    +0.000 C 
ATOM      6  C   UNL     1      -0.759  11.536  19.388  0.00  0.00    +0.000 C 
ATOM      7  C   UNL     1      -0.817  11.647  20.930  0.00  0.00    +0.000 C 
ATOM      8  C   UNL     1      -0.216  10.348  21.533  0.00  0.00    +0.000 C 
ATOM      9  C   UNL     1       1.158   9.993  20.950  0.00  0.00    +0.000 C 
ATOM     10  C   UNL     1      -0.043  12.886  21.455  0.00  0.00    +0.000 C 
ATOM     11  C   UNL     1      -0.691  14.210  21.049  0.00  0.00    +0.000 C 
ATOM     12  N   UNL     1      -2.099  14.233  21.431  0.00  0.00    +0.000 N 
ATOM     13  C   UNL     1      -2.619  15.413  21.973  0.00  0.00    +0.000 C 
ATOM     14  O   UNL     1      -1.918  16.423  22.055  0.00  0.00    +0.000 OA
ATOM     15  C   UNL     1      -2.892  13.123  20.903  0.00  0.00    +0.000 C 
ATOM     16  C   UNL     1      -2.298  11.791  21.367  0.00  0.00    +0.000 C 
ATOM     17  H   UNL     1       1.566   7.625  20.022  0.00  0.00    +0.000 HD
ENDROOT
BRANCH   1  21
ATOM     18  C   UNL     1       4.068   4.741  17.187  0.00  0.00    +0.000 A 
ATOM     19  C   UNL     1       2.859   4.485  17.828  0.00  0.00    +0.000 A 
ATOM     20  C   UNL     1       2.162   5.514  18.456  0.00  0.00    +0.000 A 
ATOM     21  C   UNL     1       2.683   6.809  18.491  0.00  0.00    +0.000 A 
ATOM     22  C   UNL     1       3.887   7.069  17.828  0.00  0.00    +0.000 A 
ATOM     23  C   UNL     1       4.583   6.036  17.185  0.00  0.00    +0.000 A 
BRANCH  18  25
ATOM     24  C   UNL     1       5.788   3.910  15.804  0.00  0.00    +0.000 C 
ATOM     25  O   UNL     1       4.669   3.643  16.637  0.00  0.00    +0.000 OA
ENDBRANCH  18  25
ENDBRANCH   1  21
BRANCH  13  26
ATOM     26  C   UNL     1      -3.998  15.425  22.438  0.00  0.00    +0.000 A 
ATOM     27  C   UNL     1      -5.160  15.845  21.799  0.00  0.00    +0.000 A 
ATOM     28  C   UNL     1      -6.244  15.705  22.691  0.00  0.00    +0.000 A 
ATOM     29  C   UNL     1      -5.755  15.102  23.824  0.00  0.00    +0.000 A 
ATOM     30  N   UNL     1      -4.409  14.903  23.652  0.00  0.00    +0.000 N 
ATOM     31  C   UNL     1      -3.549  14.272  24.632  0.00  0.00    +0.000 C 
ENDBRANCH  13  26
TORSDOF 3
ENDMDL
MODEL 6
REMARK VINA RESULT:      -6.8      1.755      2.308
REMARK  Name = 
REMARK  5 active torsions:
REMARK  status: ('A' for Active; 'I' for Inactive)
REMARK    1  A    between atoms: C_1  and  O_2
REMARK    2  A    between atoms: O_2  and  C_3
REMARK    3  A    between atoms: C_6  and  N_7
REMARK    4  A    between atoms: C_19  and  C_21
REMARK    5  A    between atoms: N_25  and  C_26
REMARK                            x       y       z     vdW  Elec       q    Type
REMARK                         _______ _______ _______ _____ _____    ______ ____
ROOT
ATOM      1  N   UNL     1       2.001   7.977  19.206  0.00  0.00    +0.000 N 
ATOM      2  C   UNL     1       1.671   9.196  18.664  0.00  0.00    +0.000 C 
ATOM      3  O   UNL     1       1.833   9.488  17.481  0.00  0.00    +0.000 OA
ATOM      4  N   UNL     1       1.064  10.094  19.531  0.00  0.00    +0.000 N 
ATOM      5  C   UNL     1       0.571  11.329  18.937  0.00  0.00    +0.000 C 
ATOM      6  C   UNL     1      -0.818  11.637  19.463  0.00  0.00    +0.000 C 
ATOM      7  C   UNL     1      -0.859  11.740  21.007  0.00  0.00    +0.000 C 
ATOM      8  C   UNL     1      -0.251  10.437  21.595  0.00  0.00    +0.000 C 
ATOM      9  C   UNL     1       1.116  10.085  20.995  0.00  0.00    +0.000 C 
ATOM     10  C   UNL     1      -0.079  12.975  21.530  0.00  0.00    +0.000 C 
ATOM     11  C   UNL     1      -0.731  14.302  21.139  0.00  0.00    +0.000 C 
ATOM     12  N   UNL     1      -2.135  14.322  21.537  0.00  0.00    +0.000 N 
ATOM     13  C   UNL     1      -2.648  15.499  22.092  0.00  0.00    +0.000 C 
ATOM     14  O   UNL     1      -1.947  16.508  22.172  0.00  0.00    +0.000 OA
ATOM     15  C   UNL     1      -2.934  13.216  21.012  0.00  0.00    +0.000 C 
ATOM     16  C   UNL     1      -2.334  11.881  21.461  0.00  0.00    +0.000 C 
ATOM     17  H   UNL     1       1.514   7.723  20.048  0.00  0.00    +0.000 HD
ENDROOT
BRANCH   1  21
ATOM     18  C   UNL     1       3.983   4.856  17.167  0.00  0.00    +0.000 A 
ATOM     19  C   UNL     1       2.784   4.595  17.825  0.00  0.00    +0.000 A 
ATOM     20  C   UNL     1       2.095   5.620  18.467  0.00  0.00    +0.000 A 
ATOM     21  C   UNL     1       2.613   6.916  18.500  0.00  0.00    +0.000 A 
ATOM     22  C   UNL     1       3.807   7.181  17.821  0.00  0.00    +0.000 A 
ATOM     23  C   UNL     1       4.496   6.152  17.163  0.00  0.00    +0.000 A 
BRANCH  18  25
ATOM     24  C   UNL     1       5.816   4.006  15.951  0.00  0.00    +0.000 C 
ATOM     25  O   UNL     1       4.579   3.762  16.604  0.00  0.00    +0.000 OA
ENDBRANCH  18  25
ENDBRANCH   1  21
BRANCH  13  26
ATOM     26  C   UNL     1      -4.022  15.508  22.573  0.00  0.00    +0.000 A 
ATOM     27  C   UNL     1      -4.536  15.218  23.832  0.00  0.00    +0.000 A 
ATOM     28  C   UNL     1      -5.943  15.316  23.782  0.00  0.00    +0.000 A 
ATOM     29  C   UNL     1      -6.267  15.771  22.527  0.00  0.00    +0.000 A 
ATOM     30  N   UNL     1      -5.104  15.919  21.814  0.00  0.00    +0.000 N 
ATOM     31  C   UNL     1      -5.043  16.397  20.448  0.00  0.00    +0.000 C 
ENDBRANCH  13  26
TORSDOF 3
ENDMDL
MODEL 7
REMARK VINA RESULT:      -6.8      1.389      1.871
REMARK  Name = 
REMARK  5 active torsions:
REMARK  status: ('A' for Active; 'I' for Inactive)
REMARK    1  A    between atoms: C_1  and  O_2
REMARK    2  A    between atoms: O_2  and  C_3
REMARK    3  A    between atoms: C_6  and  N_7
REMARK    4  A    between atoms: C_19  and  C_21
REMARK    5  A    between atoms: N_25  and  C_26
REMARK                            x       y       z     vdW  Elec       q    Type
REMARK                         _______ _______ _______ _____ _____    ______ ____
ROOT
ATOM      1  N   UNL     1       1.795   8.174  19.808  0.00  0.00    +0.000 N 
ATOM      2  C   UNL     1       1.222   9.174  19.058  0.00  0.00    +0.000 C 
ATOM      3  O   UNL     1       1.133   9.147  17.833  0.00  0.00    +0.000 OA
ATOM      4  N   UNL     1       0.672  10.224  19.779  0.00  0.00    +0.000 N 
ATOM      5  C   UNL     1      -0.072  11.213  19.009  0.00  0.00    +0.000 C 
ATOM      6  C   UNL     1      -1.372  11.546  19.715  0.00  0.00    +0.000 C 
ATOM      7  C   UNL     1      -1.150  12.058  21.159  0.00  0.00    +0.000 C 
ATOM      8  C   UNL     1      -0.287  11.011  21.916  0.00  0.00    +0.000 C 
ATOM      9  C   UNL     1       0.984  10.614  21.155  0.00  0.00    +0.000 C 
ATOM     10  C   UNL     1      -0.451  13.444  21.185  0.00  0.00    +0.000 C 
ATOM     11  C   UNL     1      -1.325  14.563  20.618  0.00  0.00    +0.000 C 
ATOM     12  N   UNL     1      -2.626  14.585  21.278  0.00  0.00    +0.000 N 
ATOM     13  C   UNL     1      -3.177  15.826  21.614  0.00  0.00    +0.000 C 
ATOM     14  O   UNL     1      -2.606  16.869  21.294  0.00  0.00    +0.000 OA
ATOM     15  C   UNL     1      -3.360  13.321  21.221  0.00  0.00    +0.000 C 
ATOM     16  C   UNL     1      -2.527  12.205  21.856  0.00  0.00    +0.000 C 
ATOM     17  H   UNL     1       1.501   8.120  20.769  0.00  0.00    +0.000 HD
ENDROOT
BRANCH   1  21
ATOM     18  C   UNL     1       3.446   4.620  18.237  0.00  0.00    +0.000 A 
ATOM     19  C   UNL     1       3.750   5.841  17.642  0.00  0.00    +0.000 A 
ATOM     20  C   UNL     1       3.250   7.027  18.171  0.00  0.00    +0.000 A 
ATOM     21  C   UNL     1       2.400   7.011  19.279  0.00  0.00    +0.000 A 
ATOM     22  C   UNL     1       2.113   5.785  19.889  0.00  0.00    +0.000 A 
ATOM     23  C   UNL     1       2.627   4.591  19.364  0.00  0.00    +0.000 A 
BRANCH  18  25
ATOM     24  C   UNL     1       3.399   2.278  17.965  0.00  0.00    +0.000 C 
ATOM     25  O   UNL     1       3.971   3.527  17.605  0.00  0.00    +0.000 OA
ENDBRANCH  18  25
ENDBRANCH   1  21
BRANCH  13  26
ATOM     26  C   UNL     1      -4.433  15.861  22.349  0.00  0.00    +0.000 A 
ATOM     27  C   UNL     1      -4.674  15.859  23.718  0.00  0.00    +0.000 A 
ATOM     28  C   UNL     1      -6.069  15.847  23.934  0.00  0.00    +0.000 A 
ATOM     29  C   UNL     1      -6.665  15.951  22.700  0.00  0.00    +0.000 A 
ATOM     30  N   UNL     1      -5.674  15.995  21.752  0.00  0.00    +0.000 N 
ATOM     31  C   UNL     1      -5.916  16.122  20.329  0.00  0.00    +0.000 C 
ENDBRANCH  13  26
TORSDOF 3
ENDMDL
MODEL 8
REMARK VINA RESULT:      -6.8      1.455      1.728
REMARK  Name = 
REMARK  5 active torsions:
REMARK  status: ('A' for Active; 'I' for Inactive)
REMARK    1  A    between atoms: C_1  and  O_2
REMARK    2  A    between atoms: O_2  and  C_3
REMARK    3  A    between atoms: C_6  and  N_7
REMARK    4  A    between atoms: C_19  and  C_21
REMARK    5  A    between atoms: N_25  and  C_26
REMARK                            x       y       z     vdW  Elec       q    Type
REMARK                         _______ _______ _______ _____ _____    ______ ____
ROOT
ATOM      1  N   UNL     1       1.730   8.333  19.850  0.00  0.00    +0.000 N 
ATOM      2  C   UNL     1       1.156   9.322  19.086  0.00  0.00    +0.000 C 
ATOM      3  O   UNL     1       1.078   9.283  17.860  0.00  0.00    +0.000 OA
ATOM      4  N   UNL     1       0.592  10.375  19.792  0.00  0.00    +0.000 N 
ATOM      5  C   UNL     1      -0.152  11.351  19.007  0.00  0.00    +0.000 C 
ATOM      6  C   UNL     1      -1.461  11.681  19.698  0.00  0.00    +0.000 C 
ATOM      7  C   UNL     1      -1.255  12.207  21.139  0.00  0.00    +0.000 C 
ATOM      8  C   UNL     1      -0.391  11.174  21.914  0.00  0.00    +0.000 C 
ATOM      9  C   UNL     1       0.890  10.779  21.167  0.00  0.00    +0.000 C 
ATOM     10  C   UNL     1      -0.566  13.598  21.159  0.00  0.00    +0.000 C 
ATOM     11  C   UNL     1      -1.443  14.706  20.574  0.00  0.00    +0.000 C 
ATOM     12  N   UNL     1      -2.750  14.724  21.222  0.00  0.00    +0.000 N 
ATOM     13  C   UNL     1      -3.313  15.965  21.542  0.00  0.00    +0.000 C 
ATOM     14  O   UNL     1      -2.746  17.008  21.217  0.00  0.00    +0.000 OA
ATOM     15  C   UNL     1      -3.474  13.455  21.170  0.00  0.00    +0.000 C 
ATOM     16  C   UNL     1      -2.638  12.351  21.823  0.00  0.00    +0.000 C 
ATOM     17  H   UNL     1       1.428   8.286  20.808  0.00  0.00    +0.000 HD
ENDROOT
BRANCH   1  21
ATOM     18  C   UNL     1       3.424   4.773  18.338  0.00  0.00    +0.000 A 
ATOM     19  C   UNL     1       3.654   5.978  17.679  0.00  0.00    +0.000 A 
ATOM     20  C   UNL     1       3.139   7.168  18.186  0.00  0.00    +0.000 A 
ATOM     21  C   UNL     1       2.348   7.170  19.337  0.00  0.00    +0.000 A 
ATOM     22  C   UNL     1       2.136   5.961  20.009  0.00  0.00    +0.000 A 
ATOM     23  C   UNL     1       2.664   4.764  19.506  0.00  0.00    +0.000 A 
BRANCH  18  25
ATOM     24  C   UNL     1       4.822   3.939  16.632  0.00  0.00    +0.000 C 
ATOM     25  O   UNL     1       3.954   3.673  17.724  0.00  0.00    +0.000 OA
ENDBRANCH  18  25
ENDBRANCH   1  21
BRANCH  13  26
ATOM     26  C   UNL     1      -4.576  15.997  22.265  0.00  0.00    +0.000 A 
ATOM     27  C   UNL     1      -5.879  16.116  21.795  0.00  0.00    +0.000 A 
ATOM     28  C   UNL     1      -6.758  16.153  22.898  0.00  0.00    +0.000 A 
ATOM     29  C   UNL     1      -5.997  15.947  24.023  0.00  0.00    +0.000 A 
ATOM     30  N   UNL     1      -4.688  15.818  23.633  0.00  0.00    +0.000 N 
ATOM     31  C   UNL     1      -3.589  15.573  24.544  0.00  0.00    +0.000 C 
ENDBRANCH  13  26
TORSDOF 3
ENDMDL
MODEL 9
REMARK VINA RESULT:      -6.8      2.237      3.036
REMARK  Name = 
REMARK  5 active torsions:
REMARK  status: ('A' for Active; 'I' for Inactive)
REMARK    1  A    between atoms: C_1  and  O_2
REMARK    2  A    between atoms: O_2  and  C_3
REMARK    3  A    between atoms: C_6  and  N_7
REMARK    4  A    between atoms: C_19  and  C_21
REMARK    5  A    between atoms: N_25  and  C_26
REMARK                            x       y       z     vdW  Elec       q    Type
REMARK                         _______ _______ _______ _____ _____    ______ ____
ROOT
ATOM      1  N   UNL     1       2.383   7.907  18.224  0.00  0.00    +0.000 N 
ATOM      2  C   UNL     1       1.833   8.054  19.476  0.00  0.00    +0.000 C 
ATOM      3  O   UNL     1       2.036   7.280  20.409  0.00  0.00    +0.000 OA
ATOM      4  N   UNL     1       1.061   9.191  19.662  0.00  0.00    +0.000 N 
ATOM      5  C   UNL     1       0.598   9.440  21.021  0.00  0.00    +0.000 C 
ATOM      6  C   UNL     1       0.798  10.901  21.376  0.00  0.00    +0.000 C 
ATOM      7  C   UNL     1       0.080  11.855  20.390  0.00  0.00    +0.000 C 
ATOM      8  C   UNL     1       0.543  11.501  18.950  0.00  0.00    +0.000 C 
ATOM      9  C   UNL     1       0.419  10.006  18.628  0.00  0.00    +0.000 C 
ATOM     10  C   UNL     1      -1.465  11.747  20.495  0.00  0.00    +0.000 C 
ATOM     11  C   UNL     1      -2.008  12.256  21.830  0.00  0.00    +0.000 C 
ATOM     12  N   UNL     1      -1.527  13.606  22.102  0.00  0.00    +0.000 N 
ATOM     13  C   UNL     1      -2.425  14.533  22.640  0.00  0.00    +0.000 C 
ATOM     14  O   UNL     1      -3.569  14.191  22.941  0.00  0.00    +0.000 OA
ATOM     15  C   UNL     1      -0.071  13.748  22.085  0.00  0.00    +0.000 C 
ATOM     16  C   UNL     1       0.480  13.314  20.725  0.00  0.00    +0.000 C 
ATOM     17  H   UNL     1       2.452   8.745  17.672  0.00  0.00    +0.000 HD
ENDROOT
BRANCH   1  21
ATOM     18  C   UNL     1       4.716   4.631  16.938  0.00  0.00    +0.000 A 
ATOM     19  C   UNL     1       5.250   5.916  16.892  0.00  0.00    +0.000 A 
ATOM     20  C   UNL     1       4.512   7.003  17.350  0.00  0.00    +0.000 A 
ATOM     21  C   UNL     1       3.210   6.832  17.825  0.00  0.00    +0.000 A 
ATOM     22  C   UNL     1       2.683   5.537  17.890  0.00  0.00    +0.000 A 
ATOM     23  C   UNL     1       3.430   4.440  17.440  0.00  0.00    +0.000 A 
BRANCH  18  25
ATOM     24  C   UNL     1       6.252   4.008  15.261  0.00  0.00    +0.000 C 
ATOM     25  O   UNL     1       5.526   3.654  16.429  0.00  0.00    +0.000 OA
ENDBRANCH  18  25
ENDBRANCH   1  21
BRANCH  13  26
ATOM     26  C   UNL     1      -1.983  15.906  22.836  0.00  0.00    +0.000 A 
ATOM     27  C   UNL     1      -1.455  16.529  23.962  0.00  0.00    +0.000 A 
ATOM     28  C   UNL     1      -1.233  17.891  23.665  0.00  0.00    +0.000 A 
ATOM     29  C   UNL     1      -1.524  18.062  22.333  0.00  0.00    +0.000 A 
ATOM     30  N   UNL     1      -1.941  16.856  21.831  0.00  0.00    +0.000 N 
ATOM     31  C   UNL     1      -2.320  16.638  20.450  0.00  0.00    +0.000 C 
ENDBRANCH  13  26
TORSDOF 3
ENDMDL
