MODEL 1
REMARK VINA RESULT:      -8.0      0.000      0.000
REMARK  Name = 
REMARK  9 active torsions:
REMARK  status: ('A' for Active; 'I' for Inactive)
REMARK    1  A    between atoms: C_1  and  O_2
REMARK    2  A    between atoms: O_2  and  C_3
REMARK    3  A    between atoms: C_6  and  C_7
REMARK    4  A    between atoms: C_7  and  C_9
REMARK    5  A    between atoms: C_9  and  C_17
REMARK    6  A    between atoms: C_10  and  C_11
REMARK    7  A    between atoms: C_17  and  N_18
REMARK    8  A    between atoms: N_18  and  C_19
REMARK    9  A    between atoms: C_20  and  C_22
REMARK                            x       y       z     vdW  Elec       q    Type
REMARK                         _______ _______ _______ _____ _____    ______ ____
ROOT
ATOM      1  C   UNL     1       3.371   6.573  18.074  0.00  0.00    +0.000 C 
ATOM      2  C   UNL     1       2.610   5.453  18.127  0.00  0.00    +0.000 C 
ENDROOT
BRANCH   2   3
ATOM      3  C   UNL     1       2.992   4.031  17.754  0.00  0.00    +0.000 C 
ATOM      4  C   UNL     1       3.908   3.366  18.793  0.00  0.00    +0.000 C 
ATOM      5  C   UNL     1       3.185   2.893  20.054  0.00  0.00    +0.000 C 
ATOM      6  C   UNL     1       2.004   1.993  19.721  0.00  0.00    +0.000 C 
ATOM      7  C   UNL     1       1.025   2.704  18.797  0.00  0.00    +0.000 C 
ATOM      8  C   UNL     1       1.716   3.183  17.517  0.00  0.00    +0.000 C 
ENDBRANCH   2   3
BRANCH   1   9
ATOM      9  C   UNL     1       2.663   7.915  18.096  0.00  0.00    +0.000 C 
ATOM     10  O   UNL     1       2.668   8.640  17.103  0.00  0.00    +0.000 OA
BRANCH   9  14
ATOM     11  C   UNL     1       0.243   9.364  21.393  0.00  0.00    +0.000 A 
ATOM     12  C   UNL     1       0.993   8.197  21.545  0.00  0.00    +0.000 A 
ATOM     13  C   UNL     1       1.776   7.700  20.494  0.00  0.00    +0.000 A 
ATOM     14  C   UNL     1       1.859   8.388  19.279  0.00  0.00    +0.000 A 
ATOM     15  C   UNL     1       1.080   9.547  19.125  0.00  0.00    +0.000 A 
ATOM     16  C   UNL     1       0.276  10.032  20.171  0.00  0.00    +0.000 A 
BRANCH  11  18
ATOM     17  C   UNL     1      -0.906  11.071  22.587  0.00  0.00    +0.000 C 
ATOM     18  O   UNL     1      -0.503   9.711  22.483  0.00  0.00    +0.000 OA
ENDBRANCH  11  18
ENDBRANCH   9  14
ENDBRANCH   1   9
BRANCH   1  19
ATOM     19  C   UNL     1       4.876   6.635  17.831  0.00  0.00    +0.000 C 
BRANCH  19  20
ATOM     20  N   UNL     1       5.301   6.308  16.449  0.00  0.00    +0.000 N 
ATOM     21  C   UNL     1       4.747   7.107  15.363  0.00  0.00    +0.000 C 
ATOM     22  C   UNL     1       6.198   5.254  16.237  0.00  0.00    +0.000 C 
ATOM     23  O   UNL     1       6.758   4.671  17.165  0.00  0.00    +0.000 OA
BRANCH  22  24
ATOM     24  C   UNL     1       6.515   4.759  14.856  0.00  0.00    +0.000 A 
ATOM     25  C   UNL     1       5.657   3.815  14.271  0.00  0.00    +0.000 A 
ATOM     26  C   UNL     1       5.824   3.431  12.933  0.00  0.00    +0.000 A 
ATOM     27  C   UNL     1       6.852   3.981  12.164  0.00  0.00    +0.000 A 
ATOM     28  C   UNL     1       7.700   4.934  12.735  0.00  0.00    +0.000 A 
ATOM     29  C   UNL     1       7.521   5.333  14.068  0.00  0.00    +0.000 A 
ENDBRANCH  22  24
ENDBRANCH  19  20
ENDBRANCH   1  19
TORSDOF 7
ENDMDL
MODEL 2
REMARK VINA RESULT:      -7.8      1.106      1.585
REMARK  Name = 
REMARK  9 active torsions:
REMARK  status: ('A' for Active; 'I' for Inactive)
REMARK    1  A    between atoms: C_1  and  O_2
REMARK    2  A    between atoms: O_2  and  C_3
REMARK    3  A    between atoms: C_6  and  C_7
REMARK    4  A    between atoms: C_7  and  C_9
REMARK    5  A    between atoms: C_9  and  C_17
REMARK    6  A    between atoms: C_10  and  C_11
REMARK    7  A    between atoms: C_17  and  N_18
REMARK    8  A    between atoms: N_18  and  C_19
REMARK    9  A    between atoms: C_20  and  C_22
REMARK                            x       y       z     vdW  Elec       q    Type
REMARK                         _______ _______ _______ _____ _____    ______ ____
ROOT
ATOM      1  C   UNL     1       3.452   6.057  18.389  0.00  0.00    +0.000 C 
ATOM      2  C   UNL     1       2.547   5.152  18.835  0.00  0.00    +0.000 C 
ENDROOT
BRANCH   2   3
ATOM      3  C   UNL     1       2.696   3.645  18.952  0.00  0.00    +0.000 C 
ATOM      4  C   UNL     1       3.457   3.217  20.216  0.00  0.00    +0.000 C 
ATOM      5  C   UNL     1       2.629   3.284  21.499  0.00  0.00    +0.000 C 
ATOM      6  C   UNL     1       1.323   2.511  21.367  0.00  0.00    +0.000 C 
ATOM      7  C   UNL     1       0.505   3.030  20.192  0.00  0.00    +0.000 C 
ATOM      8  C   UNL     1       1.303   2.967  18.887  0.00  0.00    +0.000 C 
ENDBRANCH   2   3
BRANCH   1   9
ATOM      9  C   UNL     1       2.943   7.426  17.977  0.00  0.00    +0.000 C 
ATOM     10  O   UNL     1       3.244   7.901  16.883  0.00  0.00    +0.000 OA
BRANCH   9  14
ATOM     11  C   UNL     1       0.291   9.683  20.564  0.00  0.00    +0.000 A 
ATOM     12  C   UNL     1       0.441  10.059  19.229  0.00  0.00    +0.000 A 
ATOM     13  C   UNL     1       1.298   9.355  18.372  0.00  0.00    +0.000 A 
ATOM     14  C   UNL     1       1.992   8.228  18.826  0.00  0.00    +0.000 A 
ATOM     15  C   UNL     1       1.856   7.872  20.178  0.00  0.00    +0.000 A 
ATOM     16  C   UNL     1       1.014   8.593  21.042  0.00  0.00    +0.000 A 
BRANCH  11  18
ATOM     17  C   UNL     1      -0.541  10.306  22.704  0.00  0.00    +0.000 C 
ATOM     18  O   UNL     1      -0.546  10.480  21.293  0.00  0.00    +0.000 OA
ENDBRANCH  11  18
ENDBRANCH   9  14
ENDBRANCH   1   9
BRANCH   1  19
ATOM     19  C   UNL     1       4.927   5.797  18.101  0.00  0.00    +0.000 C 
BRANCH  19  20
ATOM     20  N   UNL     1       5.197   5.028  16.863  0.00  0.00    +0.000 N 
ATOM     21  C   UNL     1       4.997   3.585  16.905  0.00  0.00    +0.000 C 
ATOM     22  C   UNL     1       5.635   5.703  15.717  0.00  0.00    +0.000 C 
ATOM     23  O   UNL     1       5.676   6.932  15.653  0.00  0.00    +0.000 OA
BRANCH  22  24
ATOM     24  C   UNL     1       6.102   4.961  14.499  0.00  0.00    +0.000 A 
ATOM     25  C   UNL     1       5.202   4.099  13.856  0.00  0.00    +0.000 A 
ATOM     26  C   UNL     1       5.537   3.496  12.635  0.00  0.00    +0.000 A 
ATOM     27  C   UNL     1       6.778   3.744  12.044  0.00  0.00    +0.000 A 
ATOM     28  C   UNL     1       7.673   4.615  12.670  0.00  0.00    +0.000 A 
ATOM     29  C   UNL     1       7.330   5.233  13.882  0.00  0.00    +0.000 A 
ENDBRANCH  22  24
ENDBRANCH  19  20
ENDBRANCH   1  19
TORSDOF 7
ENDMDL
MODEL 3
REMARK VINA RESULT:      -7.7      1.987      7.692
REMARK  Name = 
REMARK  9 active torsions:
REMARK  status: ('A' for Active; 'I' for Inactive)
REMARK    1  A    between atoms: C_1  and  O_2
REMARK    2  A    between atoms: O_2  and  C_3
REMARK    3  A    between atoms: C_6  and  C_7
REMARK    4  A    between atoms: C_7  and  C_9
REMARK    5  A    between atoms: C_9  and  C_17
REMARK    6  A    between atoms: C_10  and  C_11
REMARK    7  A    between atoms: C_17  and  N_18
REMARK    8  A    between atoms: N_18  and  C_19
REMARK    9  A    between atoms: C_20  and  C_22
REMARK                            x       y       z     vdW  Elec       q    Type
REMARK                         _______ _______ _______ _____ _____    ______ ____
ROOT
ATOM      1  C   UNL     1       3.274   5.878  18.689  0.00  0.00    +0.000 C 
ATOM      2  C   UNL     1       2.532   4.785  18.384  0.00  0.00    +0.000 C 
ENDROOT
BRANCH   2   3
ATOM      3  C   UNL     1       1.247   4.303  19.033  0.00  0.00    +0.000 C 
ATOM      4  C   UNL     1       1.024   2.792  18.867  0.00  0.00    +0.000 C 
ATOM      5  C   UNL     1       1.876   1.927  19.795  0.00  0.00    +0.000 C 
ATOM      6  C   UNL     1       1.716   2.339  21.252  0.00  0.00    +0.000 C 
ATOM      7  C   UNL     1       2.070   3.808  21.441  0.00  0.00    +0.000 C 
ATOM      8  C   UNL     1       1.226   4.705  20.531  0.00  0.00    +0.000 C 
ENDBRANCH   2   3
BRANCH   1   9
ATOM      9  C   UNL     1       4.708   5.925  18.194  0.00  0.00    +0.000 C 
ATOM     10  O   UNL     1       5.591   6.426  18.887  0.00  0.00    +0.000 OA
BRANCH   9  14
ATOM     11  C   UNL     1       5.986   4.280  14.388  0.00  0.00    +0.000 A 
ATOM     12  C   UNL     1       5.989   3.474  15.528  0.00  0.00    +0.000 A 
ATOM     13  C   UNL     1       5.591   3.981  16.772  0.00  0.00    +0.000 A 
ATOM     14  C   UNL     1       5.137   5.299  16.894  0.00  0.00    +0.000 A 
ATOM     15  C   UNL     1       5.162   6.111  15.747  0.00  0.00    +0.000 A 
ATOM     16  C   UNL     1       5.584   5.608  14.504  0.00  0.00    +0.000 A 
BRANCH  11  18
ATOM     17  C   UNL     1       5.475   3.405  12.236  0.00  0.00    +0.000 C 
ATOM     18  O   UNL     1       6.434   3.667  13.253  0.00  0.00    +0.000 OA
ENDBRANCH  11  18
ENDBRANCH   9  14
ENDBRANCH   1   9
BRANCH   1  19
ATOM     19  C   UNL     1       2.871   7.014  19.626  0.00  0.00    +0.000 C 
BRANCH  19  20
ATOM     20  N   UNL     1       2.155   8.136  18.976  0.00  0.00    +0.000 N 
ATOM     21  C   UNL     1       2.449   8.408  17.575  0.00  0.00    +0.000 C 
ATOM     22  C   UNL     1       1.240   8.891  19.722  0.00  0.00    +0.000 C 
ATOM     23  O   UNL     1       0.902   8.574  20.863  0.00  0.00    +0.000 OA
BRANCH  22  24
ATOM     24  C   UNL     1       0.630  10.148  19.175  0.00  0.00    +0.000 A 
ATOM     25  C   UNL     1      -0.670  10.087  18.650  0.00  0.00    +0.000 A 
ATOM     26  C   UNL     1      -1.340  11.256  18.263  0.00  0.00    +0.000 A 
ATOM     27  C   UNL     1      -0.719  12.501  18.391  0.00  0.00    +0.000 A 
ATOM     28  C   UNL     1       0.569  12.571  18.928  0.00  0.00    +0.000 A 
ATOM     29  C   UNL     1       1.232  11.403  19.334  0.00  0.00    +0.000 A 
ENDBRANCH  22  24
ENDBRANCH  19  20
ENDBRANCH   1  19
TORSDOF 7
ENDMDL
MODEL 4
REMARK VINA RESULT:      -7.7      0.602      1.073
REMARK  Name = 
REMARK  9 active torsions:
REMARK  status: ('A' for Active; 'I' for Inactive)
REMARK    1  A    between atoms: C_1  and  O_2
REMARK    2  A    between atoms: O_2  and  C_3
REMARK    3  A    between atoms: C_6  and  C_7
REMARK    4  A    between atoms: C_7  and  C_9
REMARK    5  A    between atoms: C_9  and  C_17
REMARK    6  A    between atoms: C_10  and  C_11
REMARK    7  A    between atoms: C_17  and  N_18
REMARK    8  A    between atoms: N_18  and  C_19
REMARK    9  A    between atoms: C_20  and  C_22
REMARK                            x       y       z     vdW  Elec       q    Type
REMARK                         _______ _______ _______ _____ _____    ______ ____
ROOT
ATOM      1  C   UNL     1       3.068   6.669  18.327  0.00  0.00    +0.000 C 
ATOM      2  C   UNL     1       2.313   5.551  18.453  0.00  0.00    +0.000 C 
ENDROOT
BRANCH   2   3
ATOM      3  C   UNL     1       2.720   4.105  18.233  0.00  0.00    +0.000 C 
ATOM      4  C   UNL     1       3.575   3.544  19.380  0.00  0.00    +0.000 C 
ATOM      5  C   UNL     1       2.780   3.180  20.634  0.00  0.00    +0.000 C 
ATOM      6  C   UNL     1       1.624   2.243  20.314  0.00  0.00    +0.000 C 
ATOM      7  C   UNL     1       0.699   2.861  19.274  0.00  0.00    +0.000 C 
ATOM      8  C   UNL     1       1.463   3.228  17.999  0.00  0.00    +0.000 C 
ENDBRANCH   2   3
BRANCH   1   9
ATOM      9  C   UNL     1       2.351   8.000  18.191  0.00  0.00    +0.000 C 
ATOM     10  O   UNL     1       2.172   8.502  17.083  0.00  0.00    +0.000 OA
BRANCH   9  14
ATOM     11  C   UNL     1       0.724   9.980  21.692  0.00  0.00    +0.000 A 
ATOM     12  C   UNL     1       0.762  10.654  20.470  0.00  0.00    +0.000 A 
ATOM     13  C   UNL     1       1.291  10.042  19.325  0.00  0.00    +0.000 A 
ATOM     14  C   UNL     1       1.754   8.723  19.370  0.00  0.00    +0.000 A 
ATOM     15  C   UNL     1       1.737   8.062  20.609  0.00  0.00    +0.000 A 
ATOM     16  C   UNL     1       1.228   8.684  21.762  0.00  0.00    +0.000 A 
BRANCH  11  18
ATOM     17  C   UNL     1      -1.112  10.419  23.138  0.00  0.00    +0.000 C 
ATOM     18  O   UNL     1       0.219  10.709  22.731  0.00  0.00    +0.000 OA
ENDBRANCH  11  18
ENDBRANCH   9  14
ENDBRANCH   1   9
BRANCH   1  19
ATOM     19  C   UNL     1       4.582   6.724  18.143  0.00  0.00    +0.000 C 
BRANCH  19  20
ATOM     20  N   UNL     1       5.060   6.378  16.784  0.00  0.00    +0.000 N 
ATOM     21  C   UNL     1       4.652   7.240  15.682  0.00  0.00    +0.000 C 
ATOM     22  C   UNL     1       5.868   5.248  16.607  0.00  0.00    +0.000 C 
ATOM     23  O   UNL     1       6.313   4.603  17.557  0.00  0.00    +0.000 OA
BRANCH  22  24
ATOM     24  C   UNL     1       6.225   4.743  15.239  0.00  0.00    +0.000 A 
ATOM     25  C   UNL     1       5.314   3.908  14.576  0.00  0.00    +0.000 A 
ATOM     26  C   UNL     1       5.530   3.530  13.244  0.00  0.00    +0.000 A 
ATOM     27  C   UNL     1       6.661   3.978  12.558  0.00  0.00    +0.000 A 
ATOM     28  C   UNL     1       7.564   4.824  13.206  0.00  0.00    +0.000 A 
ATOM     29  C   UNL     1       7.338   5.218  14.533  0.00  0.00    +0.000 A 
ENDBRANCH  22  24
ENDBRANCH  19  20
ENDBRANCH   1  19
TORSDOF 7
ENDMDL
MODEL 5
REMARK VINA RESULT:      -7.5      1.189      1.442
REMARK  Name = 
REMARK  9 active torsions:
REMARK  status: ('A' for Active; 'I' for Inactive)
REMARK    1  A    between atoms: C_1  and  O_2
REMARK    2  A    between atoms: O_2  and  C_3
REMARK    3  A    between atoms: C_6  and  C_7
REMARK    4  A    between atoms: C_7  and  C_9
REMARK    5  A    between atoms: C_9  and  C_17
REMARK    6  A    between atoms: C_10  and  C_11
REMARK    7  A    between atoms: C_17  and  N_18
REMARK    8  A    between atoms: N_18  and  C_19
REMARK    9  A    between atoms: C_20  and  C_22
REMARK                            x       y       z     vdW  Elec       q    Type
REMARK                         _______ _______ _______ _____ _____    ______ ____
ROOT
ATOM      1  C   UNL     1       3.826   5.648  18.309  0.00  0.00    +0.000 C 
ATOM      2  C   UNL     1       2.828   4.904  18.847  0.00  0.00    +0.000 C 
ENDROOT
BRANCH   2   3
ATOM      3  C   UNL     1       2.754   3.395  19.006  0.00  0.00    +0.000 C 
ATOM      4  C   UNL     1       3.464   2.891  20.271  0.00  0.00    +0.000 C 
ATOM      5  C   UNL     1       2.677   3.115  21.563  0.00  0.00    +0.000 C 
ATOM      6  C   UNL     1       1.269   2.542  21.469  0.00  0.00    +0.000 C 
ATOM      7  C   UNL     1       0.517   3.147  20.291  0.00  0.00    +0.000 C 
ATOM      8  C   UNL     1       1.275   2.931  18.978  0.00  0.00    +0.000 C 
ENDBRANCH   2   3
BRANCH   1   9
ATOM      9  C   UNL     1       3.503   7.069  17.886  0.00  0.00    +0.000 C 
ATOM     10  O   UNL     1       4.022   7.555  16.883  0.00  0.00    +0.000 OA
BRANCH   9  14
ATOM     11  C   UNL     1       0.499   9.546  19.800  0.00  0.00    +0.000 A 
ATOM     12  C   UNL     1       1.157   8.561  20.538  0.00  0.00    +0.000 A 
ATOM     13  C   UNL     1       2.124   7.739  19.943  0.00  0.00    +0.000 A 
ATOM     14  C   UNL     1       2.487   7.918  18.604  0.00  0.00    +0.000 A 
ATOM     15  C   UNL     1       1.801   8.894  17.862  0.00  0.00    +0.000 A 
ATOM     16  C   UNL     1       0.814   9.701  18.453  0.00  0.00    +0.000 A 
BRANCH  11  18
ATOM     17  C   UNL     1       0.011  11.068  21.562  0.00  0.00    +0.000 C 
ATOM     18  O   UNL     1      -0.446  10.246  20.496  0.00  0.00    +0.000 OA
ENDBRANCH  11  18
ENDBRANCH   9  14
ENDBRANCH   1   9
BRANCH   1  19
ATOM     19  C   UNL     1       5.219   5.156  17.929  0.00  0.00    +0.000 C 
BRANCH  19  20
ATOM     20  N   UNL     1       5.390   4.804  16.499  0.00  0.00    +0.000 N 
ATOM     21  C   UNL     1       4.382   3.948  15.887  0.00  0.00    +0.000 C 
ATOM     22  C   UNL     1       6.500   5.292  15.800  0.00  0.00    +0.000 C 
ATOM     23  O   UNL     1       7.274   6.117  16.287  0.00  0.00    +0.000 OA
BRANCH  22  24
ATOM     24  C   UNL     1       6.824   4.820  14.413  0.00  0.00    +0.000 A 
ATOM     25  C   UNL     1       6.076   3.763  13.874  0.00  0.00    +0.000 A 
ATOM     26  C   UNL     1       6.237   3.381  12.536  0.00  0.00    +0.000 A 
ATOM     27  C   UNL     1       7.153   4.048  11.718  0.00  0.00    +0.000 A 
ATOM     28  C   UNL     1       7.890   5.113  12.242  0.00  0.00    +0.000 A 
ATOM     29  C   UNL     1       7.714   5.507  13.576  0.00  0.00    +0.000 A 
ENDBRANCH  22  24
ENDBRANCH  19  20
ENDBRANCH   1  19
TORSDOF 7
ENDMDL
MODEL 6
REMARK VINA RESULT:      -7.5      1.247      1.760
REMARK  Name = 
REMARK  9 active torsions:
REMARK  status: ('A' for Active; 'I' for Inactive)
REMARK    1  A    between atoms: C_1  and  O_2
REMARK    2  A    between atoms: O_2  and  C_3
REMARK    3  A    between atoms: C_6  and  C_7
REMARK    4  A    between atoms: C_7  and  C_9
REMARK    5  A    between atoms: C_9  and  C_17
REMARK    6  A    between atoms: C_10  and  C_11
REMARK    7  A    between atoms: C_17  and  N_18
REMARK    8  A    between atoms: N_18  and  C_19
REMARK    9  A    between atoms: C_20  and  C_22
REMARK                            x       y       z     vdW  Elec       q    Type
REMARK                         _______ _______ _______ _____ _____    ______ ____
ROOT
ATOM      1  C   UNL     1       3.999   5.582  18.397  0.00  0.00    +0.000 C 
ATOM      2  C   UNL     1       2.989   4.759  18.771  0.00  0.00    +0.000 C 
ENDROOT
BRANCH   2   3
ATOM      3  C   UNL     1       3.033   3.263  19.025  0.00  0.00    +0.000 C 
ATOM      4  C   UNL     1       3.581   2.908  20.416  0.00  0.00    +0.000 C 
ATOM      5  C   UNL     1       2.583   3.122  21.555  0.00  0.00    +0.000 C 
ATOM      6  C   UNL     1       1.268   2.401  21.292  0.00  0.00    +0.000 C 
ATOM      7  C   UNL     1       0.656   2.855  19.974  0.00  0.00    +0.000 C 
ATOM      8  C   UNL     1       1.627   2.646  18.809  0.00  0.00    +0.000 C 
ENDBRANCH   2   3
BRANCH   1   9
ATOM      9  C   UNL     1       3.635   6.933  17.809  0.00  0.00    +0.000 C 
ATOM     10  O   UNL     1       4.099   7.288  16.727  0.00  0.00    +0.000 OA
BRANCH   9  14
ATOM     11  C   UNL     1       0.708   9.638  19.523  0.00  0.00    +0.000 A 
ATOM     12  C   UNL     1       1.228   8.599  20.297  0.00  0.00    +0.000 A 
ATOM     13  C   UNL     1       2.167   7.704  19.766  0.00  0.00    +0.000 A 
ATOM     14  C   UNL     1       2.640   7.858  18.459  0.00  0.00    +0.000 A 
ATOM     15  C   UNL     1       2.092   8.890  17.679  0.00  0.00    +0.000 A 
ATOM     16  C   UNL     1       1.133   9.773  18.204  0.00  0.00    +0.000 A 
BRANCH  11  18
ATOM     17  C   UNL     1      -0.219  10.402  21.576  0.00  0.00    +0.000 C 
ATOM     18  O   UNL     1      -0.226  10.410  20.154  0.00  0.00    +0.000 OA
ENDBRANCH  11  18
ENDBRANCH   9  14
ENDBRANCH   1   9
BRANCH   1  19
ATOM     19  C   UNL     1       5.484   5.232  18.354  0.00  0.00    +0.000 C 
BRANCH  19  20
ATOM     20  N   UNL     1       6.093   5.257  17.003  0.00  0.00    +0.000 N 
ATOM     21  C   UNL     1       7.077   6.295  16.722  0.00  0.00    +0.000 C 
ATOM     22  C   UNL     1       5.703   4.302  16.056  0.00  0.00    +0.000 C 
ATOM     23  O   UNL     1       4.971   3.353  16.341  0.00  0.00    +0.000 OA
BRANCH  22  24
ATOM     24  C   UNL     1       6.142   4.392  14.624  0.00  0.00    +0.000 A 
ATOM     25  C   UNL     1       7.298   5.127  14.323  0.00  0.00    +0.000 A 
ATOM     26  C   UNL     1       7.832   5.121  13.028  0.00  0.00    +0.000 A 
ATOM     27  C   UNL     1       7.216   4.384  12.013  0.00  0.00    +0.000 A 
ATOM     28  C   UNL     1       6.074   3.636  12.309  0.00  0.00    +0.000 A 
ATOM     29  C   UNL     1       5.550   3.626  13.610  0.00  0.00    +0.000 A 
ENDBRANCH  22  24
ENDBRANCH  19  20
ENDBRANCH   1  19
TORSDOF 7
ENDMDL
MODEL 7
REMARK VINA RESULT:      -7.5      1.288      1.715
REMARK  Name = 
REMARK  9 active torsions:
REMARK  status: ('A' for Active; 'I' for Inactive)
REMARK    1  A    between atoms: C_1  and  O_2
REMARK    2  A    between atoms: O_2  and  C_3
REMARK    3  A    between atoms: C_6  and  C_7
REMARK    4  A    between atoms: C_7  and  C_9
REMARK    5  A    between atoms: C_9  and  C_17
REMARK    6  A    between atoms: C_10  and  C_11
REMARK    7  A    between atoms: C_17  and  N_18
REMARK    8  A    between atoms: N_18  and  C_19
REMARK    9  A    between atoms: C_20  and  C_22
REMARK                            x       y       z     vdW  Elec       q    Type
REMARK                         _______ _______ _______ _____ _____    ______ ____
ROOT
ATOM      1  C   UNL     1       3.694   5.627  18.346  0.00  0.00    +0.000 C 
ATOM      2  C   UNL     1       2.623   4.817  18.530  0.00  0.00    +0.000 C 
ENDROOT
BRANCH   2   3
ATOM      3  C   UNL     1       2.597   3.310  18.712  0.00  0.00    +0.000 C 
ATOM      4  C   UNL     1       3.468   2.834  19.884  0.00  0.00    +0.000 C 
ATOM      5  C   UNL     1       2.844   3.059  21.261  0.00  0.00    +0.000 C 
ATOM      6  C   UNL     1       1.446   2.462  21.349  0.00  0.00    +0.000 C 
ATOM      7  C   UNL     1       0.542   3.038  20.268  0.00  0.00    +0.000 C 
ATOM      8  C   UNL     1       1.135   2.820  18.873  0.00  0.00    +0.000 C 
ENDBRANCH   2   3
BRANCH   1   9
ATOM      9  C   UNL     1       3.448   7.014  17.781  0.00  0.00    +0.000 C 
ATOM     10  O   UNL     1       4.013   7.378  16.752  0.00  0.00    +0.000 OA
BRANCH   9  14
ATOM     11  C   UNL     1       0.653   9.733  19.684  0.00  0.00    +0.000 A 
ATOM     12  C   UNL     1       1.017   9.933  18.351  0.00  0.00    +0.000 A 
ATOM     13  C   UNL     1       1.925   9.077  17.714  0.00  0.00    +0.000 A 
ATOM     14  C   UNL     1       2.456   7.971  18.387  0.00  0.00    +0.000 A 
ATOM     15  C   UNL     1       2.106   7.793  19.736  0.00  0.00    +0.000 A 
ATOM     16  C   UNL     1       1.214   8.666  20.382  0.00  0.00    +0.000 A 
BRANCH  11  18
ATOM     17  C   UNL     1       0.083  11.187  21.478  0.00  0.00    +0.000 C 
ATOM     18  O   UNL     1      -0.210  10.664  20.188  0.00  0.00    +0.000 OA
ENDBRANCH  11  18
ENDBRANCH   9  14
ENDBRANCH   1   9
BRANCH   1  19
ATOM     19  C   UNL     1       5.162   5.236  18.496  0.00  0.00    +0.000 C 
BRANCH  19  20
ATOM     20  N   UNL     1       5.930   5.192  17.229  0.00  0.00    +0.000 N 
ATOM     21  C   UNL     1       6.969   6.195  17.032  0.00  0.00    +0.000 C 
ATOM     22  C   UNL     1       5.630   4.209  16.278  0.00  0.00    +0.000 C 
ATOM     23  O   UNL     1       4.843   3.290  16.507  0.00  0.00    +0.000 OA
BRANCH  22  24
ATOM     24  C   UNL     1       6.241   4.232  14.907  0.00  0.00    +0.000 A 
ATOM     25  C   UNL     1       5.620   3.498  13.886  0.00  0.00    +0.000 A 
ATOM     26  C   UNL     1       6.063   3.601  12.560  0.00  0.00    +0.000 A 
ATOM     27  C   UNL     1       7.136   4.436  12.238  0.00  0.00    +0.000 A 
ATOM     28  C   UNL     1       7.749   5.183  13.247  0.00  0.00    +0.000 A 
ATOM     29  C   UNL     1       7.293   5.094  14.571  0.00  0.00    +0.000 A 
ENDBRANCH  22  24
ENDBRANCH  19  20
ENDBRANCH   1  19
TORSDOF 7
ENDMDL
MODEL 8
REMARK VINA RESULT:      -7.4      1.368      1.574
REMARK  Name = 
REMARK  9 active torsions:
REMARK  status: ('A' for Active; 'I' for Inactive)
REMARK    1  A    between atoms: C_1  and  O_2
REMARK    2  A    between atoms: O_2  and  C_3
REMARK    3  A    between atoms: C_6  and  C_7
REMARK    4  A    between atoms: C_7  and  C_9
REMARK    5  A    between atoms: C_9  and  C_17
REMARK    6  A    between atoms: C_10  and  C_11
REMARK    7  A    between atoms: C_17  and  N_18
REMARK    8  A    between atoms: N_18  and  C_19
REMARK    9  A    between atoms: C_20  and  C_22
REMARK                            x       y       z     vdW  Elec       q    Type
REMARK                         _______ _______ _______ _____ _____    ______ ____
ROOT
ATOM      1  C   UNL     1       3.716   5.668  18.409  0.00  0.00    +0.000 C 
ATOM      2  C   UNL     1       2.674   4.831  18.636  0.00  0.00    +0.000 C 
ENDROOT
BRANCH   2   3
ATOM      3  C   UNL     1       2.699   3.329  18.852  0.00  0.00    +0.000 C 
ATOM      4  C   UNL     1       3.484   2.918  20.107  0.00  0.00    +0.000 C 
ATOM      5  C   UNL     1       2.732   3.143  21.419  0.00  0.00    +0.000 C 
ATOM      6  C   UNL     1       1.360   2.484  21.400  0.00  0.00    +0.000 C 
ATOM      7  C   UNL     1       0.529   2.996  20.231  0.00  0.00    +0.000 C 
ATOM      8  C   UNL     1       1.251   2.775  18.898  0.00  0.00    +0.000 C 
ENDBRANCH   2   3
BRANCH   1   9
ATOM      9  C   UNL     1       3.415   7.034  17.819  0.00  0.00    +0.000 C 
ATOM     10  O   UNL     1       3.859   7.349  16.717  0.00  0.00    +0.000 OA
BRANCH   9  14
ATOM     11  C   UNL     1       0.741   9.945  19.608  0.00  0.00    +0.000 A 
ATOM     12  C   UNL     1       1.148   8.832  20.346  0.00  0.00    +0.000 A 
ATOM     13  C   UNL     1       2.003   7.870  19.791  0.00  0.00    +0.000 A 
ATOM     14  C   UNL     1       2.506   8.027  18.495  0.00  0.00    +0.000 A 
ATOM     15  C   UNL     1       2.071   9.135  17.749  0.00  0.00    +0.000 A 
ATOM     16  C   UNL     1       1.194  10.087  18.299  0.00  0.00    +0.000 A 
BRANCH  11  18
ATOM     17  C   UNL     1      -1.288  11.185  19.553  0.00  0.00    +0.000 C 
ATOM     18  O   UNL     1      -0.123  10.779  20.259  0.00  0.00    +0.000 OA
ENDBRANCH  11  18
ENDBRANCH   9  14
ENDBRANCH   1   9
BRANCH   1  19
ATOM     19  C   UNL     1       5.198   5.326  18.535  0.00  0.00    +0.000 C 
BRANCH  19  20
ATOM     20  N   UNL     1       5.938   5.269  17.252  0.00  0.00    +0.000 N 
ATOM     21  C   UNL     1       6.917   6.316  16.988  0.00  0.00    +0.000 C 
ATOM     22  C   UNL     1       5.669   4.234  16.349  0.00  0.00    +0.000 C 
ATOM     23  O   UNL     1       4.938   3.285  16.635  0.00  0.00    +0.000 OA
BRANCH  22  24
ATOM     24  C   UNL     1       6.246   4.231  14.964  0.00  0.00    +0.000 A 
ATOM     25  C   UNL     1       5.562   3.537  13.955  0.00  0.00    +0.000 A 
ATOM     26  C   UNL     1       5.976   3.623  12.619  0.00  0.00    +0.000 A 
ATOM     27  C   UNL     1       7.084   4.402  12.274  0.00  0.00    +0.000 A 
ATOM     28  C   UNL     1       7.761   5.110  13.270  0.00  0.00    +0.000 A 
ATOM     29  C   UNL     1       7.334   5.038  14.604  0.00  0.00    +0.000 A 
ENDBRANCH  22  24
ENDBRANCH  19  20
ENDBRANCH   1  19
TORSDOF 7
ENDMDL
MODEL 9
REMARK VINA RESULT:      -7.4      1.220      1.802
REMARK  Name = 
REMARK  9 active torsions:
REMARK  status: ('A' for Active; 'I' for Inactive)
REMARK    1  A    between atoms: C_1  and  O_2
REMARK    2  A    between atoms: O_2  and  C_3
REMARK    3  A    between atoms: C_6  and  C_7
REMARK    4  A    between atoms: C_7  and  C_9
REMARK    5  A    between atoms: C_9  and  C_17
REMARK    6  A    between atoms: C_10  and  C_11
REMARK    7  A    between atoms: C_17  and  N_18
REMARK    8  A    between atoms: N_18  and  C_19
REMARK    9  A    between atoms: C_20  and  C_22
REMARK                            x       y       z     vdW  Elec       q    Type
REMARK                         _______ _______ _______ _____ _____    ______ ____
ROOT
ATOM      1  C   UNL     1       3.441   5.939  18.303  0.00  0.00    +0.000 C 
ATOM      2  C   UNL     1       2.442   5.049  18.520  0.00  0.00    +0.000 C 
ENDROOT
BRANCH   2   3
ATOM      3  C   UNL     1       2.534   3.540  18.658  0.00  0.00    +0.000 C 
ATOM      4  C   UNL     1       3.436   3.100  19.821  0.00  0.00    +0.000 C 
ATOM      5  C   UNL     1       2.790   3.236  21.200  0.00  0.00    +0.000 C 
ATOM      6  C   UNL     1       1.444   2.528  21.263  0.00  0.00    +0.000 C 
ATOM      7  C   UNL     1       0.501   3.063  20.193  0.00  0.00    +0.000 C 
ATOM      8  C   UNL     1       1.114   2.932  18.796  0.00  0.00    +0.000 C 
ENDBRANCH   2   3
BRANCH   1   9
ATOM      9  C   UNL     1       3.066   7.319  17.793  0.00  0.00    +0.000 C 
ATOM     10  O   UNL     1       3.508   7.729  16.722  0.00  0.00    +0.000 OA
BRANCH   9  14
ATOM     11  C   UNL     1       0.328   9.853  20.008  0.00  0.00    +0.000 A 
ATOM     12  C   UNL     1       0.504  10.055  18.638  0.00  0.00    +0.000 A 
ATOM     13  C   UNL     1       1.390   9.258  17.899  0.00  0.00    +0.000 A 
ATOM     14  C   UNL     1       2.086   8.210  18.510  0.00  0.00    +0.000 A 
ATOM     15  C   UNL     1       1.923   8.031  19.894  0.00  0.00    +0.000 A 
ATOM     16  C   UNL     1       1.053   8.845  20.639  0.00  0.00    +0.000 A 
BRANCH  11  18
ATOM     17  C   UNL     1      -1.173  11.684  19.773  0.00  0.00    +0.000 C 
ATOM     18  O   UNL     1      -0.535  10.726  20.608  0.00  0.00    +0.000 OA
ENDBRANCH  11  18
ENDBRANCH   9  14
ENDBRANCH   1   9
BRANCH   1  19
ATOM     19  C   UNL     1       4.939   5.653  18.365  0.00  0.00    +0.000 C 
BRANCH  19  20
ATOM     20  N   UNL     1       5.625   5.626  17.052  0.00  0.00    +0.000 N 
ATOM     21  C   UNL     1       6.441   6.778  16.690  0.00  0.00    +0.000 C 
ATOM     22  C   UNL     1       5.461   4.516  16.214  0.00  0.00    +0.000 C 
ATOM     23  O   UNL     1       4.878   3.496  16.581  0.00  0.00    +0.000 OA
BRANCH  22  24
ATOM     24  C   UNL     1       5.975   4.515  14.804  0.00  0.00    +0.000 A 
ATOM     25  C   UNL     1       7.218   5.111  14.544  0.00  0.00    +0.000 A 
ATOM     26  C   UNL     1       7.809   5.009  13.277  0.00  0.00    +0.000 A 
ATOM     27  C   UNL     1       7.164   4.312  12.252  0.00  0.00    +0.000 A 
ATOM     28  C   UNL     1       5.934   3.701  12.508  0.00  0.00    +0.000 A 
ATOM     29  C   UNL     1       5.352   3.788  13.781  0.00  0.00    +0.000 A 
ENDBRANCH  22  24
ENDBRANCH  19  20
ENDBRANCH   1  19
TORSDOF 7
ENDMDL
