MODEL 1
REMARK VINA RESULT:      -7.2      0.000      0.000
REMARK  Name = 
REMARK  1 active torsions:
REMARK  status: ('A' for Active; 'I' for Inactive)
REMARK    1  A    between atoms: C_7  and  C_8
REMARK                            x       y       z     vdW  Elec       q    Type
REMARK                         _______ _______ _______ _____ _____    ______ ____
ROOT
ATOM      1  O   UNL     1       8.752   4.390  18.206  0.00  0.00    +0.000 OA
ATOM      2  C   UNL     1       7.637   4.408  17.716  0.00  0.00    +0.000 C 
ATOM      3  N   UNL     1       7.338   4.245  16.400  0.00  0.00    +0.000 N 
ATOM      4  C   UNL     1       6.041   4.418  15.993  0.00  0.00    +0.000 C 
ATOM      5  S   UNL     1       5.643   4.345  14.375  0.00  0.00    +0.000 S 
ATOM      6  C   UNL     1       5.175   4.661  17.185  0.00  0.00    +0.000 C 
ATOM      7  C   UNL     1       3.839   4.798  17.151  0.00  0.00    +0.000 C 
ATOM      8  S   UNL     1       6.163   4.701  18.611  0.00  0.00    +0.000 S 
ATOM      9  H   UNL     1       8.084   4.076  15.741  0.00  0.00    +0.000 HD
ENDROOT
BRANCH   7  10
ATOM     10  C   UNL     1       2.997   4.954  18.351  0.00  0.00    +0.000 A 
ATOM     11  C   UNL     1       2.711   6.253  18.798  0.00  0.00    +0.000 A 
ATOM     12  C   UNL     1       1.997   6.442  19.981  0.00  0.00    +0.000 A 
ATOM     13 CL   UNL     1       1.685   8.038  20.541  0.00  0.00    +0.000 Cl
ATOM     14  C   UNL     1       1.549   5.353  20.722  0.00  0.00    +0.000 A 
ATOM     15  C   UNL     1       1.805   4.055  20.271  0.00  0.00    +0.000 A 
ATOM     16 CL   UNL     1       1.209   2.750  21.237  0.00  0.00    +0.000 Cl
ATOM     17  C   UNL     1       2.528   3.847  19.085  0.00  0.00    +0.000 A 
ATOM     18 CL   UNL     1       2.852   2.236  18.518  0.00  0.00    +0.000 Cl
ENDBRANCH   7  10
TORSDOF 1
ENDMDL
MODEL 2
REMARK VINA RESULT:      -6.9      1.257      1.257
REMARK  Name = 
REMARK  1 active torsions:
REMARK  status: ('A' for Active; 'I' for Inactive)
REMARK    1  A    between atoms: C_7  and  C_8
REMARK                            x       y       z     vdW  Elec       q    Type
REMARK                         _______ _______ _______ _____ _____    ______ ____
ROOT
ATOM      1  O   UNL     1       8.076   7.511  17.029  0.00  0.00    +0.000 OA
ATOM      2  C   UNL     1       7.232   6.653  16.846  0.00  0.00    +0.000 C 
ATOM      3  N   UNL     1       7.191   5.777  15.808  0.00  0.00    +0.000 N 
ATOM      4  C   UNL     1       6.103   4.954  15.681  0.00  0.00    +0.000 C 
ATOM      5  S   UNL     1       5.952   3.945  14.362  0.00  0.00    +0.000 S 
ATOM      6  C   UNL     1       5.195   5.149  16.850  0.00  0.00    +0.000 C 
ATOM      7  C   UNL     1       4.073   4.448  17.079  0.00  0.00    +0.000 C 
ATOM      8  S   UNL     1       5.840   6.394  17.873  0.00  0.00    +0.000 S 
ATOM      9  H   UNL     1       7.923   5.801  15.112  0.00  0.00    +0.000 HD
ENDROOT
BRANCH   7  10
ATOM     10  C   UNL     1       3.237   4.602  18.283  0.00  0.00    +0.000 A 
ATOM     11  C   UNL     1       2.874   5.898  18.679  0.00  0.00    +0.000 A 
ATOM     12  C   UNL     1       2.163   6.092  19.864  0.00  0.00    +0.000 A 
ATOM     13 CL   UNL     1       1.756   7.688  20.360  0.00  0.00    +0.000 Cl
ATOM     14  C   UNL     1       1.794   5.010  20.656  0.00  0.00    +0.000 A 
ATOM     15  C   UNL     1       2.128   3.713  20.257  0.00  0.00    +0.000 A 
ATOM     16 CL   UNL     1       1.629   2.415  21.286  0.00  0.00    +0.000 Cl
ATOM     17  C   UNL     1       2.848   3.499  19.071  0.00  0.00    +0.000 A 
ATOM     18 CL   UNL     1       3.268   1.890  18.567  0.00  0.00    +0.000 Cl
ENDBRANCH   7  10
TORSDOF 1
ENDMDL
MODEL 3
REMARK VINA RESULT:      -6.7      2.092      2.986
REMARK  Name = 
REMARK  1 active torsions:
REMARK  status: ('A' for Active; 'I' for Inactive)
REMARK    1  A    between atoms: C_7  and  C_8
REMARK                            x       y       z     vdW  Elec       q    Type
REMARK                         _______ _______ _______ _____ _____    ______ ____
ROOT
ATOM      1  O   UNL     1       7.846   7.632  17.133  0.00  0.00    +0.000 OA
ATOM      2  C   UNL     1       7.194   6.634  16.889  0.00  0.00    +0.000 C 
ATOM      3  N   UNL     1       7.156   5.971  15.703  0.00  0.00    +0.000 N 
ATOM      4  C   UNL     1       6.272   4.935  15.554  0.00  0.00    +0.000 C 
ATOM      5  S   UNL     1       6.106   4.166  14.083  0.00  0.00    +0.000 S 
ATOM      6  C   UNL     1       5.576   4.686  16.852  0.00  0.00    +0.000 C 
ATOM      7  C   UNL     1       4.700   3.695  17.078  0.00  0.00    +0.000 C 
ATOM      8  S   UNL     1       6.109   5.856  18.019  0.00  0.00    +0.000 S 
ATOM      9  H   UNL     1       7.723   6.301  14.934  0.00  0.00    +0.000 HD
ENDROOT
BRANCH   7  10
ATOM     10  C   UNL     1       4.089   3.419  18.391  0.00  0.00    +0.000 A 
ATOM     11  C   UNL     1       4.784   2.593  19.288  0.00  0.00    +0.000 A 
ATOM     12  C   UNL     1       4.199   2.233  20.501  0.00  0.00    +0.000 A 
ATOM     13 CL   UNL     1       5.042   1.188  21.576  0.00  0.00    +0.000 Cl
ATOM     14  C   UNL     1       2.933   2.696  20.844  0.00  0.00    +0.000 A 
ATOM     15  C   UNL     1       2.243   3.541  19.969  0.00  0.00    +0.000 A 
ATOM     16 CL   UNL     1       0.678   4.086  20.466  0.00  0.00    +0.000 Cl
ATOM     17  C   UNL     1       2.815   3.909  18.742  0.00  0.00    +0.000 A 
ATOM     18 CL   UNL     1       1.965   4.959  17.648  0.00  0.00    +0.000 Cl
ENDBRANCH   7  10
TORSDOF 1
ENDMDL
MODEL 4
REMARK VINA RESULT:      -6.4      0.917      2.617
REMARK  Name = 
REMARK  1 active torsions:
REMARK  status: ('A' for Active; 'I' for Inactive)
REMARK    1  A    between atoms: C_7  and  C_8
REMARK                            x       y       z     vdW  Elec       q    Type
REMARK                         _______ _______ _______ _____ _____    ______ ____
ROOT
ATOM      1  O   UNL     1       8.778   4.512  18.667  0.00  0.00    +0.000 OA
ATOM      2  C   UNL     1       7.677   4.555  18.150  0.00  0.00    +0.000 C 
ATOM      3  N   UNL     1       7.402   4.359  16.833  0.00  0.00    +0.000 N 
ATOM      4  C   UNL     1       6.123   4.566  16.388  0.00  0.00    +0.000 C 
ATOM      5  S   UNL     1       5.761   4.452  14.764  0.00  0.00    +0.000 S 
ATOM      6  C   UNL     1       5.239   4.881  17.550  0.00  0.00    +0.000 C 
ATOM      7  C   UNL     1       3.911   5.065  17.479  0.00  0.00    +0.000 C 
ATOM      8  S   UNL     1       6.195   4.932  18.997  0.00  0.00    +0.000 S 
ATOM      9  H   UNL     1       8.157   4.140  16.198  0.00  0.00    +0.000 HD
ENDROOT
BRANCH   7  10
ATOM     10  C   UNL     1       3.048   5.293  18.651  0.00  0.00    +0.000 A 
ATOM     11  C   UNL     1       2.629   4.178  19.395  0.00  0.00    +0.000 A 
ATOM     12  C   UNL     1       1.737   4.342  20.455  0.00  0.00    +0.000 A 
ATOM     13 CL   UNL     1       1.199   2.966  21.335  0.00  0.00    +0.000 Cl
ATOM     14  C   UNL     1       1.264   5.605  20.797  0.00  0.00    +0.000 A 
ATOM     15  C   UNL     1       1.696   6.724  20.079  0.00  0.00    +0.000 A 
ATOM     16 CL   UNL     1       1.075   8.264  20.566  0.00  0.00    +0.000 Cl
ATOM     17  C   UNL     1       2.589   6.577  19.006  0.00  0.00    +0.000 A 
ATOM     18 CL   UNL     1       3.131   7.963  18.108  0.00  0.00    +0.000 Cl
ENDBRANCH   7  10
TORSDOF 1
ENDMDL
MODEL 5
REMARK VINA RESULT:      -6.1      1.529      2.791
REMARK  Name = 
REMARK  1 active torsions:
REMARK  status: ('A' for Active; 'I' for Inactive)
REMARK    1  A    between atoms: C_7  and  C_8
REMARK                            x       y       z     vdW  Elec       q    Type
REMARK                         _______ _______ _______ _____ _____    ______ ____
ROOT
ATOM      1  O   UNL     1       8.290   7.429  17.066  0.00  0.00    +0.000 OA
ATOM      2  C   UNL     1       7.354   6.665  16.914  0.00  0.00    +0.000 C 
ATOM      3  N   UNL     1       7.125   5.886  15.824  0.00  0.00    +0.000 N 
ATOM      4  C   UNL     1       5.957   5.173  15.757  0.00  0.00    +0.000 C 
ATOM      5  S   UNL     1       5.576   4.296  14.390  0.00  0.00    +0.000 S 
ATOM      6  C   UNL     1       5.197   5.345  17.031  0.00  0.00    +0.000 C 
ATOM      7  C   UNL     1       4.044   4.725  17.329  0.00  0.00    +0.000 C 
ATOM      8  S   UNL     1       6.058   6.439  18.066  0.00  0.00    +0.000 S 
ATOM      9  H   UNL     1       7.780   5.907  15.056  0.00  0.00    +0.000 HD
ENDROOT
BRANCH   7  10
ATOM     10  C   UNL     1       3.355   4.847  18.626  0.00  0.00    +0.000 A 
ATOM     11  C   UNL     1       3.327   3.727  19.472  0.00  0.00    +0.000 A 
ATOM     12  C   UNL     1       2.607   3.773  20.666  0.00  0.00    +0.000 A 
ATOM     13 CL   UNL     1       2.547   2.382  21.677  0.00  0.00    +0.000 Cl
ATOM     14  C   UNL     1       1.923   4.924  21.039  0.00  0.00    +0.000 A 
ATOM     15  C   UNL     1       1.966   6.054  20.216  0.00  0.00    +0.000 A 
ATOM     16 CL   UNL     1       1.100   7.454  20.748  0.00  0.00    +0.000 Cl
ATOM     17  C   UNL     1       2.681   6.024  19.009  0.00  0.00    +0.000 A 
ATOM     18 CL   UNL     1       2.740   7.423  17.980  0.00  0.00    +0.000 Cl
ENDBRANCH   7  10
TORSDOF 1
ENDMDL
MODEL 6
REMARK VINA RESULT:      -5.8      4.229      5.719
REMARK  Name = 
REMARK  1 active torsions:
REMARK  status: ('A' for Active; 'I' for Inactive)
REMARK    1  A    between atoms: C_7  and  C_8
REMARK                            x       y       z     vdW  Elec       q    Type
REMARK                         _______ _______ _______ _____ _____    ______ ____
ROOT
ATOM      1  O   UNL     1       1.869  10.429  17.370  0.00  0.00    +0.000 OA
ATOM      2  C   UNL     1       1.783   9.593  18.251  0.00  0.00    +0.000 C 
ATOM      3  N   UNL     1       1.116   9.733  19.426  0.00  0.00    +0.000 N 
ATOM      4  C   UNL     1       1.222   8.743  20.367  0.00  0.00    +0.000 C 
ATOM      5  S   UNL     1       0.518   8.921  21.869  0.00  0.00    +0.000 S 
ATOM      6  C   UNL     1       2.017   7.610  19.807  0.00  0.00    +0.000 C 
ATOM      7  C   UNL     1       2.249   6.447  20.437  0.00  0.00    +0.000 C 
ATOM      8  S   UNL     1       2.556   8.024  18.211  0.00  0.00    +0.000 S 
ATOM      9  H   UNL     1       0.620  10.593  19.614  0.00  0.00    +0.000 HD
ENDROOT
BRANCH   7  10
ATOM     10  C   UNL     1       2.966   5.311  19.831  0.00  0.00    +0.000 A 
ATOM     11  C   UNL     1       4.301   5.500  19.438  0.00  0.00    +0.000 A 
ATOM     12  C   UNL     1       4.984   4.481  18.777  0.00  0.00    +0.000 A 
ATOM     13 CL   UNL     1       6.607   4.737  18.265  0.00  0.00    +0.000 Cl
ATOM     14  C   UNL     1       4.363   3.265  18.511  0.00  0.00    +0.000 A 
ATOM     15  C   UNL     1       3.043   3.057  18.921  0.00  0.00    +0.000 A 
ATOM     16 CL   UNL     1       2.338   1.518  18.566  0.00  0.00    +0.000 Cl
ATOM     17  C   UNL     1       2.338   4.074  19.583  0.00  0.00    +0.000 A 
ATOM     18 CL   UNL     1       0.696   3.824  20.097  0.00  0.00    +0.000 Cl
ENDBRANCH   7  10
TORSDOF 1
ENDMDL
MODEL 7
REMARK VINA RESULT:      -5.7      1.603      1.988
REMARK  Name = 
REMARK  1 active torsions:
REMARK  status: ('A' for Active; 'I' for Inactive)
REMARK    1  A    between atoms: C_7  and  C_8
REMARK                            x       y       z     vdW  Elec       q    Type
REMARK                         _______ _______ _______ _____ _____    ______ ____
ROOT
ATOM      1  O   UNL     1       8.860   4.784  19.200  0.00  0.00    +0.000 OA
ATOM      2  C   UNL     1       7.901   4.864  18.454  0.00  0.00    +0.000 C 
ATOM      3  N   UNL     1       7.822   4.360  17.195  0.00  0.00    +0.000 N 
ATOM      4  C   UNL     1       6.715   4.645  16.438  0.00  0.00    +0.000 C 
ATOM      5  S   UNL     1       6.624   4.149  14.849  0.00  0.00    +0.000 S 
ATOM      6  C   UNL     1       5.735   5.411  17.264  0.00  0.00    +0.000 C 
ATOM      7  C   UNL     1       4.512   5.787  16.855  0.00  0.00    +0.000 C 
ATOM      8  S   UNL     1       6.414   5.701  18.834  0.00  0.00    +0.000 S 
ATOM      9  H   UNL     1       8.608   3.852  16.815  0.00  0.00    +0.000 HD
ENDROOT
BRANCH   7  10
ATOM     10  C   UNL     1       3.530   6.469  17.717  0.00  0.00    +0.000 A 
ATOM     11  C   UNL     1       3.246   7.820  17.461  0.00  0.00    +0.000 A 
ATOM     12  C   UNL     1       2.394   8.526  18.309  0.00  0.00    +0.000 A 
ATOM     13 CL   UNL     1       2.084  10.192  18.009  0.00  0.00    +0.000 Cl
ATOM     14  C   UNL     1       1.806   7.904  19.405  0.00  0.00    +0.000 A 
ATOM     15  C   UNL     1       2.062   6.552  19.653  0.00  0.00    +0.000 A 
ATOM     16 CL   UNL     1       1.288   5.840  21.028  0.00  0.00    +0.000 Cl
ATOM     17  C   UNL     1       2.921   5.827  18.813  0.00  0.00    +0.000 A 
ATOM     18 CL   UNL     1       3.244   4.146  19.115  0.00  0.00    +0.000 Cl
ENDBRANCH   7  10
TORSDOF 1
ENDMDL
MODEL 8
REMARK VINA RESULT:      -5.7      4.121      5.894
REMARK  Name = 
REMARK  1 active torsions:
REMARK  status: ('A' for Active; 'I' for Inactive)
REMARK    1  A    between atoms: C_7  and  C_8
REMARK                            x       y       z     vdW  Elec       q    Type
REMARK                         _______ _______ _______ _____ _____    ______ ____
ROOT
ATOM      1  O   UNL     1       1.085   7.962  20.682  0.00  0.00    +0.000 OA
ATOM      2  C   UNL     1       1.693   6.927  20.483  0.00  0.00    +0.000 C 
ATOM      3  N   UNL     1       1.450   5.728  21.074  0.00  0.00    +0.000 N 
ATOM      4  C   UNL     1       2.308   4.688  20.834  0.00  0.00    +0.000 C 
ATOM      5  S   UNL     1       2.120   3.232  21.626  0.00  0.00    +0.000 S 
ATOM      6  C   UNL     1       3.327   5.108  19.826  0.00  0.00    +0.000 C 
ATOM      7  C   UNL     1       4.273   4.308  19.308  0.00  0.00    +0.000 C 
ATOM      8  S   UNL     1       3.066   6.772  19.410  0.00  0.00    +0.000 S 
ATOM      9  H   UNL     1       0.690   5.648  21.735  0.00  0.00    +0.000 HD
ENDROOT
BRANCH   7  10
ATOM     10  C   UNL     1       5.215   4.723  18.253  0.00  0.00    +0.000 A 
ATOM     11  C   UNL     1       6.121   5.756  18.539  0.00  0.00    +0.000 A 
ATOM     12  C   UNL     1       6.965   6.240  17.540  0.00  0.00    +0.000 A 
ATOM     13 CL   UNL     1       8.045   7.533  17.890  0.00  0.00    +0.000 Cl
ATOM     14  C   UNL     1       6.929   5.702  16.258  0.00  0.00    +0.000 A 
ATOM     15  C   UNL     1       6.049   4.655  15.970  0.00  0.00    +0.000 A 
ATOM     16 CL   UNL     1       6.066   4.028  14.358  0.00  0.00    +0.000 Cl
ATOM     17  C   UNL     1       5.189   4.159  16.962  0.00  0.00    +0.000 A 
ATOM     18 CL   UNL     1       4.090   2.858  16.612  0.00  0.00    +0.000 Cl
ENDBRANCH   7  10
TORSDOF 1
ENDMDL
MODEL 9
REMARK VINA RESULT:      -5.6      2.411      3.544
REMARK  Name = 
REMARK  1 active torsions:
REMARK  status: ('A' for Active; 'I' for Inactive)
REMARK    1  A    between atoms: C_7  and  C_8
REMARK                            x       y       z     vdW  Elec       q    Type
REMARK                         _______ _______ _______ _____ _____    ______ ____
ROOT
ATOM      1  O   UNL     1       6.752   4.248  14.006  0.00  0.00    +0.000 OA
ATOM      2  C   UNL     1       6.583   4.770  15.093  0.00  0.00    +0.000 C 
ATOM      3  N   UNL     1       7.105   5.956  15.502  0.00  0.00    +0.000 N 
ATOM      4  C   UNL     1       6.922   6.344  16.803  0.00  0.00    +0.000 C 
ATOM      5  S   UNL     1       7.640   7.734  17.383  0.00  0.00    +0.000 S 
ATOM      6  C   UNL     1       6.043   5.356  17.496  0.00  0.00    +0.000 C 
ATOM      7  C   UNL     1       5.603   5.470  18.760  0.00  0.00    +0.000 C 
ATOM      8  S   UNL     1       5.659   4.066  16.400  0.00  0.00    +0.000 S 
ATOM      9  H   UNL     1       7.678   6.490  14.864  0.00  0.00    +0.000 HD
ENDROOT
BRANCH   7  10
ATOM     10  C   UNL     1       4.668   4.524  19.395  0.00  0.00    +0.000 A 
ATOM     11  C   UNL     1       5.168   3.286  19.828  0.00  0.00    +0.000 A 
ATOM     12  C   UNL     1       4.300   2.326  20.348  0.00  0.00    +0.000 A 
ATOM     13 CL   UNL     1       4.916   0.798  20.840  0.00  0.00    +0.000 Cl
ATOM     14  C   UNL     1       2.937   2.586  20.458  0.00  0.00    +0.000 A 
ATOM     15  C   UNL     1       2.434   3.826  20.054  0.00  0.00    +0.000 A 
ATOM     16 CL   UNL     1       0.732   4.083  20.228  0.00  0.00    +0.000 Cl
ATOM     17  C   UNL     1       3.292   4.801  19.522  0.00  0.00    +0.000 A 
ATOM     18 CL   UNL     1       2.674   6.345  19.017  0.00  0.00    +0.000 Cl
ENDBRANCH   7  10
TORSDOF 1
ENDMDL
