MODEL 1
REMARK VINA RESULT:      -7.4      0.000      0.000
REMARK  Name = 
REMARK  5 active torsions:
REMARK  status: ('A' for Active; 'I' for Inactive)
REMARK    1  A    between atoms: C_1  and  C_2
REMARK    2  A    between atoms: C_5  and  S_6
REMARK    3  A    between atoms: S_6  and  O_9
REMARK    4  A    between atoms: O_9  and  N_10
REMARK    5  A    between atoms: C_11  and  C_13
REMARK                            x       y       z     vdW  Elec       q    Type
REMARK                         _______ _______ _______ _____ _____    ______ ____
ROOT
ATOM      1  O   UNL     1       7.183   4.190  18.039  0.00  0.00    +0.000 OA
ENDROOT
BRANCH   1   2
ATOM      2  N   UNL     1       7.504   4.501  16.690  0.00  0.00    +0.000 NA
ATOM      3  C   UNL     1       6.649   4.002  15.846  0.00  0.00    +0.000 C 
ATOM      4  N   UNL     1       5.574   3.224  16.209  0.00  0.00    +0.000 N 
ATOM      5  H   UNL     1       5.661   2.837  17.142  0.00  0.00    +0.000 HD
ATOM      6  H   UNL     1       5.289   2.524  15.530  0.00  0.00    +0.000 HD
BRANCH   3   7
ATOM      7  C   UNL     1       6.863   4.287  14.396  0.00  0.00    +0.000 A 
ATOM      8  C   UNL     1       6.214   3.548  13.404  0.00  0.00    +0.000 A 
ATOM      9  C   UNL     1       6.438   3.859  12.062  0.00  0.00    +0.000 A 
ATOM     10  C   UNL     1       7.311   4.893  11.760  0.00  0.00    +0.000 A 
ATOM     11  N   UNL     1       7.962   5.620  12.695  0.00  0.00    +0.000 NA
ATOM     12  C   UNL     1       7.718   5.306  13.993  0.00  0.00    +0.000 A 
ENDBRANCH   3   7
ENDBRANCH   1   2
BRANCH   1  13
ATOM     13  S   UNL     1       6.553   5.478  18.868  0.00  0.00    +0.000 S 
ATOM     14  O   UNL     1       6.417   6.613  17.973  0.00  0.00    +0.000 OA
ATOM     15  O   UNL     1       7.255   5.598  20.135  0.00  0.00    +0.000 OA
BRANCH  13  20
ATOM     16  C   UNL     1       0.867   3.799  20.250  0.00  0.00    +0.000 C 
ATOM     17  C   UNL     1       2.268   4.217  19.910  0.00  0.00    +0.000 A 
ATOM     18  C   UNL     1       2.574   5.558  19.637  0.00  0.00    +0.000 A 
ATOM     19  C   UNL     1       3.879   5.938  19.313  0.00  0.00    +0.000 A 
ATOM     20  C   UNL     1       4.885   4.970  19.256  0.00  0.00    +0.000 A 
ATOM     21  C   UNL     1       4.599   3.630  19.536  0.00  0.00    +0.000 A 
ATOM     22  C   UNL     1       3.290   3.258  19.860  0.00  0.00    +0.000 A 
ENDBRANCH  13  20
ENDBRANCH   1  13
TORSDOF 4
ENDMDL
MODEL 2
REMARK VINA RESULT:      -7.4      3.392      4.456
REMARK  Name = 
REMARK  5 active torsions:
REMARK  status: ('A' for Active; 'I' for Inactive)
REMARK    1  A    between atoms: C_1  and  C_2
REMARK    2  A    between atoms: C_5  and  S_6
REMARK    3  A    between atoms: S_6  and  O_9
REMARK    4  A    between atoms: O_9  and  N_10
REMARK    5  A    between atoms: C_11  and  C_13
REMARK                            x       y       z     vdW  Elec       q    Type
REMARK                         _______ _______ _______ _____ _____    ______ ____
ROOT
ATOM      1  O   UNL     1       4.099   2.688  18.690  0.00  0.00    +0.000 OA
ENDROOT
BRANCH   1   2
ATOM      2  N   UNL     1       4.879   3.865  18.859  0.00  0.00    +0.000 NA
ATOM      3  C   UNL     1       5.544   4.179  17.786  0.00  0.00    +0.000 C 
ATOM      4  N   UNL     1       5.532   3.439  16.627  0.00  0.00    +0.000 N 
ATOM      5  H   UNL     1       5.198   2.492  16.765  0.00  0.00    +0.000 HD
ATOM      6  H   UNL     1       6.387   3.467  16.078  0.00  0.00    +0.000 HD
BRANCH   3   7
ATOM      7  C   UNL     1       6.379   5.417  17.830  0.00  0.00    +0.000 A 
ATOM      8  C   UNL     1       7.356   5.604  18.811  0.00  0.00    +0.000 A 
ATOM      9  C   UNL     1       8.119   6.772  18.805  0.00  0.00    +0.000 A 
ATOM     10  C   UNL     1       7.869   7.718  17.822  0.00  0.00    +0.000 A 
ATOM     11  N   UNL     1       6.926   7.573  16.866  0.00  0.00    +0.000 NA
ATOM     12  C   UNL     1       6.206   6.422  16.886  0.00  0.00    +0.000 A 
ENDBRANCH   3   7
ENDBRANCH   1   2
BRANCH   1  13
ATOM     13  S   UNL     1       2.504   3.008  18.379  0.00  0.00    +0.000 S 
ATOM     14  O   UNL     1       1.667   2.115  19.158  0.00  0.00    +0.000 OA
ATOM     15  O   UNL     1       2.333   3.139  16.941  0.00  0.00    +0.000 OA
BRANCH  13  20
ATOM     16  C   UNL     1       1.548   8.530  20.759  0.00  0.00    +0.000 C 
ATOM     17  C   UNL     1       1.782   7.166  20.176  0.00  0.00    +0.000 A 
ATOM     18  C   UNL     1       1.571   6.009  20.939  0.00  0.00    +0.000 A 
ATOM     19  C   UNL     1       1.800   4.744  20.391  0.00  0.00    +0.000 A 
ATOM     20  C   UNL     1       2.246   4.634  19.072  0.00  0.00    +0.000 A 
ATOM     21  C   UNL     1       2.450   5.778  18.293  0.00  0.00    +0.000 A 
ATOM     22  C   UNL     1       2.219   7.041  18.849  0.00  0.00    +0.000 A 
ENDBRANCH  13  20
ENDBRANCH   1  13
TORSDOF 4
ENDMDL
MODEL 3
REMARK VINA RESULT:      -7.3      3.258      4.147
REMARK  Name = 
REMARK  5 active torsions:
REMARK  status: ('A' for Active; 'I' for Inactive)
REMARK    1  A    between atoms: C_1  and  C_2
REMARK    2  A    between atoms: C_5  and  S_6
REMARK    3  A    between atoms: S_6  and  O_9
REMARK    4  A    between atoms: O_9  and  N_10
REMARK    5  A    between atoms: C_11  and  C_13
REMARK                            x       y       z     vdW  Elec       q    Type
REMARK                         _______ _______ _______ _____ _____    ______ ____
ROOT
ATOM      1  O   UNL     1       4.197   5.580  19.641  0.00  0.00    +0.000 OA
ENDROOT
BRANCH   1   2
ATOM      2  N   UNL     1       4.648   5.700  18.298  0.00  0.00    +0.000 NA
ATOM      3  C   UNL     1       5.422   4.717  17.943  0.00  0.00    +0.000 C 
ATOM      4  N   UNL     1       5.799   3.693  18.780  0.00  0.00    +0.000 N 
ATOM      5  H   UNL     1       5.664   3.911  19.761  0.00  0.00    +0.000 HD
ATOM      6  H   UNL     1       6.716   3.293  18.601  0.00  0.00    +0.000 HD
BRANCH   3   7
ATOM      7  C   UNL     1       5.937   4.715  16.542  0.00  0.00    +0.000 A 
ATOM      8  C   UNL     1       5.216   4.126  15.500  0.00  0.00    +0.000 A 
ATOM      9  C   UNL     1       5.732   4.159  14.204  0.00  0.00    +0.000 A 
ATOM     10  C   UNL     1       6.958   4.772  13.998  0.00  0.00    +0.000 A 
ATOM     11  N   UNL     1       7.686   5.342  14.983  0.00  0.00    +0.000 NA
ATOM     12  C   UNL     1       7.156   5.308  16.233  0.00  0.00    +0.000 A 
ENDBRANCH   3   7
ENDBRANCH   1   2
BRANCH   1  13
ATOM     13  S   UNL     1       2.549   5.474  19.762  0.00  0.00    +0.000 S 
ATOM     14  O   UNL     1       2.185   5.075  21.110  0.00  0.00    +0.000 OA
ATOM     15  O   UNL     1       2.047   4.756  18.602  0.00  0.00    +0.000 OA
BRANCH  13  20
ATOM     16  C   UNL     1       0.723  11.252  19.172  0.00  0.00    +0.000 C 
ATOM     17  C   UNL     1       1.175   9.827  19.314  0.00  0.00    +0.000 A 
ATOM     18  C   UNL     1       1.732   9.136  18.229  0.00  0.00    +0.000 A 
ATOM     19  C   UNL     1       2.143   7.807  18.366  0.00  0.00    +0.000 A 
ATOM     20  C   UNL     1       1.992   7.163  19.596  0.00  0.00    +0.000 A 
ATOM     21  C   UNL     1       1.448   7.841  20.692  0.00  0.00    +0.000 A 
ATOM     22  C   UNL     1       1.040   9.171  20.547  0.00  0.00    +0.000 A 
ENDBRANCH  13  20
ENDBRANCH   1  13
TORSDOF 4
ENDMDL
MODEL 4
REMARK VINA RESULT:      -7.3      2.944      3.853
REMARK  Name = 
REMARK  5 active torsions:
REMARK  status: ('A' for Active; 'I' for Inactive)
REMARK    1  A    between atoms: C_1  and  C_2
REMARK    2  A    between atoms: C_5  and  S_6
REMARK    3  A    between atoms: S_6  and  O_9
REMARK    4  A    between atoms: O_9  and  N_10
REMARK    5  A    between atoms: C_11  and  C_13
REMARK                            x       y       z     vdW  Elec       q    Type
REMARK                         _______ _______ _______ _____ _____    ______ ____
ROOT
ATOM      1  O   UNL     1       4.052   3.811  19.793  0.00  0.00    +0.000 OA
ENDROOT
BRANCH   1   2
ATOM      2  N   UNL     1       4.373   3.875  18.409  0.00  0.00    +0.000 NA
ATOM      3  C   UNL     1       5.518   4.451  18.190  0.00  0.00    +0.000 C 
ATOM      4  N   UNL     1       6.318   4.976  19.178  0.00  0.00    +0.000 N 
ATOM      5  H   UNL     1       5.821   5.136  20.047  0.00  0.00    +0.000 HD
ATOM      6  H   UNL     1       6.882   5.778  18.908  0.00  0.00    +0.000 HD
BRANCH   3   7
ATOM      7  C   UNL     1       5.980   4.551  16.773  0.00  0.00    +0.000 A 
ATOM      8  C   UNL     1       5.265   3.960  15.729  0.00  0.00    +0.000 A 
ATOM      9  C   UNL     1       5.731   4.090  14.420  0.00  0.00    +0.000 A 
ATOM     10  C   UNL     1       6.903   4.799  14.204  0.00  0.00    +0.000 A 
ATOM     11  N   UNL     1       7.624   5.374  15.191  0.00  0.00    +0.000 NA
ATOM     12  C   UNL     1       7.143   5.243  16.455  0.00  0.00    +0.000 A 
ENDBRANCH   3   7
ENDBRANCH   1   2
BRANCH   1  13
ATOM     13  S   UNL     1       2.460   4.146  20.103  0.00  0.00    +0.000 S 
ATOM     14  O   UNL     1       2.235   4.152  21.537  0.00  0.00    +0.000 OA
ATOM     15  O   UNL     1       1.638   3.343  19.214  0.00  0.00    +0.000 OA
BRANCH  13  20
ATOM     16  C   UNL     1       1.722   9.931  18.352  0.00  0.00    +0.000 C 
ATOM     17  C   UNL     1       1.902   8.505  18.788  0.00  0.00    +0.000 A 
ATOM     18  C   UNL     1       1.683   8.125  20.120  0.00  0.00    +0.000 A 
ATOM     19  C   UNL     1       1.861   6.798  20.519  0.00  0.00    +0.000 A 
ATOM     20  C   UNL     1       2.265   5.844  19.582  0.00  0.00    +0.000 A 
ATOM     21  C   UNL     1       2.477   6.205  18.247  0.00  0.00    +0.000 A 
ATOM     22  C   UNL     1       2.296   7.535  17.855  0.00  0.00    +0.000 A 
ENDBRANCH  13  20
ENDBRANCH   1  13
TORSDOF 4
ENDMDL
MODEL 5
REMARK VINA RESULT:      -7.3      2.343      3.031
REMARK  Name = 
REMARK  5 active torsions:
REMARK  status: ('A' for Active; 'I' for Inactive)
REMARK    1  A    between atoms: C_1  and  C_2
REMARK    2  A    between atoms: C_5  and  S_6
REMARK    3  A    between atoms: S_6  and  O_9
REMARK    4  A    between atoms: O_9  and  N_10
REMARK    5  A    between atoms: C_11  and  C_13
REMARK                            x       y       z     vdW  Elec       q    Type
REMARK                         _______ _______ _______ _____ _____    ______ ____
ROOT
ATOM      1  O   UNL     1       4.478   3.352  17.830  0.00  0.00    +0.000 OA
ENDROOT
BRANCH   1   2
ATOM      2  N   UNL     1       4.805   3.597  16.468  0.00  0.00    +0.000 NA
ATOM      3  C   UNL     1       6.026   4.016  16.316  0.00  0.00    +0.000 C 
ATOM      4  N   UNL     1       6.899   4.239  17.356  0.00  0.00    +0.000 N 
ATOM      5  H   UNL     1       6.434   4.326  18.252  0.00  0.00    +0.000 HD
ATOM      6  H   UNL     1       7.582   4.977  17.207  0.00  0.00    +0.000 HD
BRANCH   3   7
ATOM      7  C   UNL     1       6.498   4.279  14.924  0.00  0.00    +0.000 A 
ATOM      8  C   UNL     1       5.979   3.578  13.833  0.00  0.00    +0.000 A 
ATOM      9  C   UNL     1       6.444   3.866  12.549  0.00  0.00    +0.000 A 
ATOM     10  C   UNL     1       7.419   4.841  12.404  0.00  0.00    +0.000 A 
ATOM     11  N   UNL     1       7.949   5.531  13.438  0.00  0.00    +0.000 NA
ATOM     12  C   UNL     1       7.471   5.240  14.675  0.00  0.00    +0.000 A 
ENDBRANCH   3   7
ENDBRANCH   1   2
BRANCH   1  13
ATOM     13  S   UNL     1       2.848   3.218  18.090  0.00  0.00    +0.000 S 
ATOM     14  O   UNL     1       2.594   2.157  19.047  0.00  0.00    +0.000 OA
ATOM     15  O   UNL     1       2.172   3.250  16.804  0.00  0.00    +0.000 OA
BRANCH  13  20
ATOM     16  C   UNL     1       1.452   8.408  20.950  0.00  0.00    +0.000 C 
ATOM     17  C   UNL     1       1.799   7.131  20.241  0.00  0.00    +0.000 A 
ATOM     18  C   UNL     1       2.422   7.148  18.986  0.00  0.00    +0.000 A 
ATOM     19  C   UNL     1       2.734   5.954  18.329  0.00  0.00    +0.000 A 
ATOM     20  C   UNL     1       2.416   4.735  18.930  0.00  0.00    +0.000 A 
ATOM     21  C   UNL     1       1.805   4.699  20.187  0.00  0.00    +0.000 A 
ATOM     22  C   UNL     1       1.497   5.898  20.839  0.00  0.00    +0.000 A 
ENDBRANCH  13  20
ENDBRANCH   1  13
TORSDOF 4
ENDMDL
MODEL 6
REMARK VINA RESULT:      -7.2      2.220      6.598
REMARK  Name = 
REMARK  5 active torsions:
REMARK  status: ('A' for Active; 'I' for Inactive)
REMARK    1  A    between atoms: C_1  and  C_2
REMARK    2  A    between atoms: C_5  and  S_6
REMARK    3  A    between atoms: S_6  and  O_9
REMARK    4  A    between atoms: O_9  and  N_10
REMARK    5  A    between atoms: C_11  and  C_13
REMARK                            x       y       z     vdW  Elec       q    Type
REMARK                         _______ _______ _______ _____ _____    ______ ____
ROOT
ATOM      1  O   UNL     1       5.521   6.481  17.721  0.00  0.00    +0.000 OA
ENDROOT
BRANCH   1   2
ATOM      2  N   UNL     1       4.792   5.486  18.427  0.00  0.00    +0.000 NA
ATOM      3  C   UNL     1       3.524   5.766  18.513  0.00  0.00    +0.000 C 
ATOM      4  N   UNL     1       2.953   6.913  18.015  0.00  0.00    +0.000 N 
ATOM      5  H   UNL     1       3.629   7.646  17.832  0.00  0.00    +0.000 HD
ATOM      6  H   UNL     1       2.143   7.258  18.523  0.00  0.00    +0.000 HD
BRANCH   3   7
ATOM      7  C   UNL     1       2.646   4.778  19.209  0.00  0.00    +0.000 A 
ATOM      8  C   UNL     1       1.848   3.881  18.494  0.00  0.00    +0.000 A 
ATOM      9  C   UNL     1       1.052   2.970  19.188  0.00  0.00    +0.000 A 
ATOM     10  C   UNL     1       1.074   2.995  20.574  0.00  0.00    +0.000 A 
ATOM     11  N   UNL     1       1.825   3.855  21.296  0.00  0.00    +0.000 NA
ATOM     12  C   UNL     1       2.601   4.724  20.597  0.00  0.00    +0.000 A 
ENDBRANCH   3   7
ENDBRANCH   1   2
BRANCH   1  13
ATOM     13  S   UNL     1       6.986   5.939  17.168  0.00  0.00    +0.000 S 
ATOM     14  O   UNL     1       7.497   4.918  18.065  0.00  0.00    +0.000 OA
ATOM     15  O   UNL     1       7.793   7.089  16.797  0.00  0.00    +0.000 OA
BRANCH  13  20
ATOM     16  C   UNL     1       5.631   3.099  11.956  0.00  0.00    +0.000 C 
ATOM     17  C   UNL     1       5.969   3.802  13.239  0.00  0.00    +0.000 A 
ATOM     18  C   UNL     1       7.145   4.554  13.362  0.00  0.00    +0.000 A 
ATOM     19  C   UNL     1       7.456   5.198  14.563  0.00  0.00    +0.000 A 
ATOM     20  C   UNL     1       6.587   5.085  15.650  0.00  0.00    +0.000 A 
ATOM     21  C   UNL     1       5.404   4.348  15.541  0.00  0.00    +0.000 A 
ATOM     22  C   UNL     1       5.099   3.707  14.335  0.00  0.00    +0.000 A 
ENDBRANCH  13  20
ENDBRANCH   1  13
TORSDOF 4
ENDMDL
MODEL 7
REMARK VINA RESULT:      -7.2      2.217      6.623
REMARK  Name = 
REMARK  5 active torsions:
REMARK  status: ('A' for Active; 'I' for Inactive)
REMARK    1  A    between atoms: C_1  and  C_2
REMARK    2  A    between atoms: C_5  and  S_6
REMARK    3  A    between atoms: S_6  and  O_9
REMARK    4  A    between atoms: O_9  and  N_10
REMARK    5  A    between atoms: C_11  and  C_13
REMARK                            x       y       z     vdW  Elec       q    Type
REMARK                         _______ _______ _______ _____ _____    ______ ____
ROOT
ATOM      1  O   UNL     1       5.515   6.470  17.659  0.00  0.00    +0.000 OA
ENDROOT
BRANCH   1   2
ATOM      2  N   UNL     1       4.788   5.482  18.378  0.00  0.00    +0.000 NA
ATOM      3  C   UNL     1       3.522   5.767  18.473  0.00  0.00    +0.000 C 
ATOM      4  N   UNL     1       2.951   6.913  17.971  0.00  0.00    +0.000 N 
ATOM      5  H   UNL     1       3.628   7.642  17.779  0.00  0.00    +0.000 HD
ATOM      6  H   UNL     1       2.146   7.264  18.484  0.00  0.00    +0.000 HD
BRANCH   3   7
ATOM      7  C   UNL     1       2.646   4.787  19.181  0.00  0.00    +0.000 A 
ATOM      8  C   UNL     1       1.846   3.883  18.479  0.00  0.00    +0.000 A 
ATOM      9  C   UNL     1       1.051   2.979  19.185  0.00  0.00    +0.000 A 
ATOM     10  C   UNL     1       1.079   3.018  20.570  0.00  0.00    +0.000 A 
ATOM     11  N   UNL     1       1.833   3.886  21.281  0.00  0.00    +0.000 NA
ATOM     12  C   UNL     1       2.606   4.747  20.570  0.00  0.00    +0.000 A 
ENDBRANCH   3   7
ENDBRANCH   1   2
BRANCH   1  13
ATOM     13  S   UNL     1       6.980   5.924  17.112  0.00  0.00    +0.000 S 
ATOM     14  O   UNL     1       7.470   4.880  17.993  0.00  0.00    +0.000 OA
ATOM     15  O   UNL     1       7.803   7.073  16.775  0.00  0.00    +0.000 OA
BRANCH  13  20
ATOM     16  C   UNL     1       5.649   3.073  11.900  0.00  0.00    +0.000 C 
ATOM     17  C   UNL     1       5.974   3.774  13.187  0.00  0.00    +0.000 A 
ATOM     18  C   UNL     1       5.119   3.681  14.295  0.00  0.00    +0.000 A 
ATOM     19  C   UNL     1       5.425   4.343  15.487  0.00  0.00    +0.000 A 
ATOM     20  C   UNL     1       6.590   5.107  15.571  0.00  0.00    +0.000 A 
ATOM     21  C   UNL     1       7.459   5.202  14.479  0.00  0.00    +0.000 A 
ATOM     22  C   UNL     1       7.147   4.535  13.290  0.00  0.00    +0.000 A 
ENDBRANCH  13  20
ENDBRANCH   1  13
TORSDOF 4
ENDMDL
MODEL 8
REMARK VINA RESULT:      -7.2      1.906      2.745
REMARK  Name = 
REMARK  5 active torsions:
REMARK  status: ('A' for Active; 'I' for Inactive)
REMARK    1  A    between atoms: C_1  and  C_2
REMARK    2  A    between atoms: C_5  and  S_6
REMARK    3  A    between atoms: S_6  and  O_9
REMARK    4  A    between atoms: O_9  and  N_10
REMARK    5  A    between atoms: C_11  and  C_13
REMARK                            x       y       z     vdW  Elec       q    Type
REMARK                         _______ _______ _______ _____ _____    ______ ____
ROOT
ATOM      1  O   UNL     1       7.464   5.854  15.766  0.00  0.00    +0.000 OA
ENDROOT
BRANCH   1   2
ATOM      2  N   UNL     1       6.727   4.933  14.972  0.00  0.00    +0.000 NA
ATOM      3  C   UNL     1       7.161   4.872  13.748  0.00  0.00    +0.000 C 
ATOM      4  N   UNL     1       8.192   5.639  13.257  0.00  0.00    +0.000 N 
ATOM      5  H   UNL     1       8.394   6.448  13.834  0.00  0.00    +0.000 HD
ATOM      6  H   UNL     1       8.131   5.878  12.271  0.00  0.00    +0.000 HD
BRANCH   3   7
ATOM      7  C   UNL     1       6.485   3.915  12.823  0.00  0.00    +0.000 A 
ATOM      8  C   UNL     1       5.097   3.909  12.664  0.00  0.00    +0.000 A 
ATOM      9  C   UNL     1       4.511   3.003  11.780  0.00  0.00    +0.000 A 
ATOM     10  C   UNL     1       5.335   2.126  11.092  0.00  0.00    +0.000 A 
ATOM     11  N   UNL     1       6.679   2.097  11.229  0.00  0.00    +0.000 NA
ATOM     12  C   UNL     1       7.226   2.998  12.086  0.00  0.00    +0.000 A 
ENDBRANCH   3   7
ENDBRANCH   1   2
BRANCH   1  13
ATOM     13  S   UNL     1       7.266   5.609  17.392  0.00  0.00    +0.000 S 
ATOM     14  O   UNL     1       7.455   6.863  18.100  0.00  0.00    +0.000 OA
ATOM     15  O   UNL     1       8.000   4.413  17.770  0.00  0.00    +0.000 OA
BRANCH  13  20
ATOM     16  C   UNL     1       1.357   4.240  17.910  0.00  0.00    +0.000 C 
ATOM     17  C   UNL     1       2.815   4.573  17.781  0.00  0.00    +0.000 A 
ATOM     18  C   UNL     1       3.775   3.563  17.623  0.00  0.00    +0.000 A 
ATOM     19  C   UNL     1       5.131   3.882  17.512  0.00  0.00    +0.000 A 
ATOM     20  C   UNL     1       5.531   5.218  17.564  0.00  0.00    +0.000 A 
ATOM     21  C   UNL     1       4.586   6.239  17.710  0.00  0.00    +0.000 A 
ATOM     22  C   UNL     1       3.230   5.912  17.820  0.00  0.00    +0.000 A 
ENDBRANCH  13  20
ENDBRANCH   1  13
TORSDOF 4
ENDMDL
MODEL 9
REMARK VINA RESULT:      -7.2      2.165      6.684
REMARK  Name = 
REMARK  5 active torsions:
REMARK  status: ('A' for Active; 'I' for Inactive)
REMARK    1  A    between atoms: C_1  and  C_2
REMARK    2  A    between atoms: C_5  and  S_6
REMARK    3  A    between atoms: S_6  and  O_9
REMARK    4  A    between atoms: O_9  and  N_10
REMARK    5  A    between atoms: C_11  and  C_13
REMARK                            x       y       z     vdW  Elec       q    Type
REMARK                         _______ _______ _______ _____ _____    ______ ____
ROOT
ATOM      1  O   UNL     1       5.596   6.370  17.864  0.00  0.00    +0.000 OA
ENDROOT
BRANCH   1   2
ATOM      2  N   UNL     1       5.081   5.527  18.887  0.00  0.00    +0.000 NA
ATOM      3  C   UNL     1       3.825   5.241  18.710  0.00  0.00    +0.000 C 
ATOM      4  N   UNL     1       3.062   5.729  17.674  0.00  0.00    +0.000 N 
ATOM      5  H   UNL     1       3.470   6.543  17.230  0.00  0.00    +0.000 HD
ATOM      6  H   UNL     1       2.075   5.860  17.879  0.00  0.00    +0.000 HD
BRANCH   3   7
ATOM      7  C   UNL     1       3.176   4.335  19.704  0.00  0.00    +0.000 A 
ATOM      8  C   UNL     1       1.928   4.632  20.257  0.00  0.00    +0.000 A 
ATOM      9  C   UNL     1       1.358   3.750  21.175  0.00  0.00    +0.000 A 
ATOM     10  C   UNL     1       2.062   2.605  21.515  0.00  0.00    +0.000 A 
ATOM     11  N   UNL     1       3.275   2.293  21.008  0.00  0.00    +0.000 NA
ATOM     12  C   UNL     1       3.803   3.161  20.107  0.00  0.00    +0.000 A 
ENDBRANCH   3   7
ENDBRANCH   1   2
BRANCH   1  13
ATOM     13  S   UNL     1       7.069   5.871  17.295  0.00  0.00    +0.000 S 
ATOM     14  O   UNL     1       7.587   4.814  18.146  0.00  0.00    +0.000 OA
ATOM     15  O   UNL     1       7.865   7.046  16.984  0.00  0.00    +0.000 OA
BRANCH  13  20
ATOM     16  C   UNL     1       5.774   3.129  12.016  0.00  0.00    +0.000 C 
ATOM     17  C   UNL     1       6.090   3.802  13.320  0.00  0.00    +0.000 A 
ATOM     18  C   UNL     1       5.286   3.600  14.450  0.00  0.00    +0.000 A 
ATOM     19  C   UNL     1       5.582   4.238  15.658  0.00  0.00    +0.000 A 
ATOM     20  C   UNL     1       6.688   5.086  15.735  0.00  0.00    +0.000 A 
ATOM     21  C   UNL     1       7.508   5.290  14.621  0.00  0.00    +0.000 A 
ATOM     22  C   UNL     1       7.205   4.648  13.415  0.00  0.00    +0.000 A 
ENDBRANCH  13  20
ENDBRANCH   1  13
TORSDOF 4
ENDMDL
