MODEL 1
REMARK VINA RESULT:      -5.8      0.000      0.000
REMARK  Name = 
REMARK  4 active torsions:
REMARK  status: ('A' for Active; 'I' for Inactive)
REMARK    1  A    between atoms: C_2  and  O_3
REMARK    2  A    between atoms: C_2  and  C_11
REMARK    3  A    between atoms: O_3  and  C_4
REMARK    4  A    between atoms: C_8  and  O_9
REMARK                            x       y       z     vdW  Elec       q    Type
REMARK                         _______ _______ _______ _____ _____    ______ ____
ROOT
ATOM      1  C   UNL     1       4.143   4.248  18.077  0.00  0.00    +0.000 A 
ATOM      2  C   UNL     1       4.659   4.098  16.788  0.00  0.00    +0.000 A 
ATOM      3  C   UNL     1       5.997   4.400  16.538  0.00  0.00    +0.000 A 
ATOM      4  C   UNL     1       6.816   4.843  17.579  0.00  0.00    +0.000 A 
ATOM      5  C   UNL     1       6.284   4.983  18.860  0.00  0.00    +0.000 A 
ATOM      6  C   UNL     1       4.950   4.687  19.122  0.00  0.00    +0.000 A 
ENDROOT
BRANCH   5   7
ATOM      7  O   UNL     1       7.057   5.399  19.904  0.00  0.00    +0.000 OA
ATOM      8  H   UNL     1       7.819   5.888  19.554  0.00  0.00    +0.000 HD
ENDBRANCH   5   7
BRANCH   1   9
ATOM      9  O   UNL     1       2.810   3.822  18.250  0.00  0.00    +0.000 OA
BRANCH   9  11
ATOM     10  O   UNL     1       3.053   1.528  18.654  0.00  0.00    +0.000 OA
ATOM     11  C   UNL     1       2.482   2.596  18.813  0.00  0.00    +0.000 C 
BRANCH  11  12
ATOM     12  C   UNL     1       1.300   2.746  19.705  0.00  0.00    +0.000 C 
ATOM     13  C   UNL     1       1.467   2.930  21.194  0.00  0.00    +0.000 C 
ATOM     14  C   UNL     1       1.001   4.080  20.346  0.00  0.00    +0.000 C 
ENDBRANCH  11  12
ENDBRANCH   9  11
ENDBRANCH   1   9
TORSDOF 4
ENDMDL
MODEL 2
REMARK VINA RESULT:      -5.8      1.934      2.594
REMARK  Name = 
REMARK  4 active torsions:
REMARK  status: ('A' for Active; 'I' for Inactive)
REMARK    1  A    between atoms: C_2  and  O_3
REMARK    2  A    between atoms: C_2  and  C_11
REMARK    3  A    between atoms: O_3  and  C_4
REMARK    4  A    between atoms: C_8  and  O_9
REMARK                            x       y       z     vdW  Elec       q    Type
REMARK                         _______ _______ _______ _____ _____    ______ ____
ROOT
ATOM      1  C   UNL     1       5.576   5.554  17.814  0.00  0.00    +0.000 A 
ATOM      2  C   UNL     1       6.133   6.544  17.001  0.00  0.00    +0.000 A 
ATOM      3  C   UNL     1       7.329   7.155  17.376  0.00  0.00    +0.000 A 
ATOM      4  C   UNL     1       7.968   6.768  18.556  0.00  0.00    +0.000 A 
ATOM      5  C   UNL     1       7.399   5.776  19.352  0.00  0.00    +0.000 A 
ATOM      6  C   UNL     1       6.205   5.160  18.991  0.00  0.00    +0.000 A 
ENDROOT
BRANCH   5   7
ATOM      7  O   UNL     1       8.002   5.362  20.504  0.00  0.00    +0.000 OA
ATOM      8  H   UNL     1       7.406   4.750  20.965  0.00  0.00    +0.000 HD
ENDBRANCH   5   7
BRANCH   1   9
ATOM      9  O   UNL     1       4.422   4.927  17.300  0.00  0.00    +0.000 OA
BRANCH   9  11
ATOM     10  O   UNL     1       2.813   5.832  18.742  0.00  0.00    +0.000 OA
ATOM     11  C   UNL     1       3.187   4.999  17.931  0.00  0.00    +0.000 C 
BRANCH  11  12
ATOM     12  C   UNL     1       2.310   3.892  17.458  0.00  0.00    +0.000 C 
ATOM     13  C   UNL     1       2.520   2.476  17.936  0.00  0.00    +0.000 C 
ATOM     14  C   UNL     1       1.322   3.253  18.404  0.00  0.00    +0.000 C 
ENDBRANCH  11  12
ENDBRANCH   9  11
ENDBRANCH   1   9
TORSDOF 4
ENDMDL
MODEL 3
REMARK VINA RESULT:      -5.8      1.873      2.240
REMARK  Name = 
REMARK  4 active torsions:
REMARK  status: ('A' for Active; 'I' for Inactive)
REMARK    1  A    between atoms: C_2  and  O_3
REMARK    2  A    between atoms: C_2  and  C_11
REMARK    3  A    between atoms: O_3  and  C_4
REMARK    4  A    between atoms: C_8  and  O_9
REMARK                            x       y       z     vdW  Elec       q    Type
REMARK                         _______ _______ _______ _____ _____    ______ ____
ROOT
ATOM      1  C   UNL     1       2.754   4.642  17.797  0.00  0.00    +0.000 A 
ATOM      2  C   UNL     1       3.076   5.993  17.948  0.00  0.00    +0.000 A 
ATOM      3  C   UNL     1       4.323   6.458  17.532  0.00  0.00    +0.000 A 
ATOM      4  C   UNL     1       5.239   5.574  16.958  0.00  0.00    +0.000 A 
ATOM      5  C   UNL     1       4.899   4.231  16.811  0.00  0.00    +0.000 A 
ATOM      6  C   UNL     1       3.659   3.753  17.225  0.00  0.00    +0.000 A 
ENDROOT
BRANCH   5   7
ATOM      7  O   UNL     1       5.762   3.341  16.242  0.00  0.00    +0.000 OA
ATOM      8  H   UNL     1       6.562   3.288  16.789  0.00  0.00    +0.000 HD
ENDBRANCH   5   7
BRANCH   1   9
ATOM      9  O   UNL     1       1.436   4.289  18.153  0.00  0.00    +0.000 OA
BRANCH   9  11
ATOM     10  O   UNL     1       1.044   2.034  18.648  0.00  0.00    +0.000 OA
ATOM     11  C   UNL     1       1.146   3.207  18.973  0.00  0.00    +0.000 C 
BRANCH  11  12
ATOM     12  C   UNL     1       0.986   3.664  20.380  0.00  0.00    +0.000 C 
ATOM     13  C   UNL     1       1.680   2.949  21.514  0.00  0.00    +0.000 C 
ATOM     14  C   UNL     1       2.141   4.318  21.100  0.00  0.00    +0.000 C 
ENDBRANCH  11  12
ENDBRANCH   9  11
ENDBRANCH   1   9
TORSDOF 4
ENDMDL
MODEL 4
REMARK VINA RESULT:      -5.7      1.771      5.104
REMARK  Name = 
REMARK  4 active torsions:
REMARK  status: ('A' for Active; 'I' for Inactive)
REMARK    1  A    between atoms: C_2  and  O_3
REMARK    2  A    between atoms: C_2  and  C_11
REMARK    3  A    between atoms: O_3  and  C_4
REMARK    4  A    between atoms: C_8  and  O_9
REMARK                            x       y       z     vdW  Elec       q    Type
REMARK                         _______ _______ _______ _____ _____    ______ ____
ROOT
ATOM      1  C   UNL     1       3.337   4.245  17.507  0.00  0.00    +0.000 A 
ATOM      2  C   UNL     1       2.003   4.413  17.884  0.00  0.00    +0.000 A 
ATOM      3  C   UNL     1       1.292   3.336  18.413  0.00  0.00    +0.000 A 
ATOM      4  C   UNL     1       1.920   2.099  18.571  0.00  0.00    +0.000 A 
ATOM      5  C   UNL     1       3.253   1.951  18.193  0.00  0.00    +0.000 A 
ATOM      6  C   UNL     1       3.973   3.017  17.662  0.00  0.00    +0.000 A 
ENDROOT
BRANCH   5   7
ATOM      7  O   UNL     1       3.903   0.762  18.346  0.00  0.00    +0.000 OA
ATOM      8  H   UNL     1       4.770   0.822  17.913  0.00  0.00    +0.000 HD
ENDBRANCH   5   7
BRANCH   1   9
ATOM      9  O   UNL     1       3.998   5.415  17.079  0.00  0.00    +0.000 OA
BRANCH   9  11
ATOM     10  O   UNL     1       5.815   5.827  18.498  0.00  0.00    +0.000 OA
ATOM     11  C   UNL     1       5.325   5.682  17.388  0.00  0.00    +0.000 C 
BRANCH  11  12
ATOM     12  C   UNL     1       6.133   5.753  16.141  0.00  0.00    +0.000 C 
ATOM     13  C   UNL     1       6.888   4.549  15.633  0.00  0.00    +0.000 C 
ATOM     14  C   UNL     1       5.670   5.033  14.897  0.00  0.00    +0.000 C 
ENDBRANCH  11  12
ENDBRANCH   9  11
ENDBRANCH   1   9
TORSDOF 4
ENDMDL
MODEL 5
REMARK VINA RESULT:      -5.7      1.415      1.668
REMARK  Name = 
REMARK  4 active torsions:
REMARK  status: ('A' for Active; 'I' for Inactive)
REMARK    1  A    between atoms: C_2  and  O_3
REMARK    2  A    between atoms: C_2  and  C_11
REMARK    3  A    between atoms: O_3  and  C_4
REMARK    4  A    between atoms: C_8  and  O_9
REMARK                            x       y       z     vdW  Elec       q    Type
REMARK                         _______ _______ _______ _____ _____    ______ ____
ROOT
ATOM      1  C   UNL     1       5.007   5.422  18.420  0.00  0.00    +0.000 A 
ATOM      2  C   UNL     1       5.370   6.179  17.303  0.00  0.00    +0.000 A 
ATOM      3  C   UNL     1       6.661   6.697  17.208  0.00  0.00    +0.000 A 
ATOM      4  C   UNL     1       7.586   6.451  18.224  0.00  0.00    +0.000 A 
ATOM      5  C   UNL     1       7.208   5.691  19.329  0.00  0.00    +0.000 A 
ATOM      6  C   UNL     1       5.922   5.169  19.438  0.00  0.00    +0.000 A 
ENDROOT
BRANCH   5   7
ATOM      7  O   UNL     1       8.089   5.417  20.334  0.00  0.00    +0.000 OA
ATOM      8  H   UNL     1       8.764   4.806  19.999  0.00  0.00    +0.000 HD
ENDBRANCH   5   7
BRANCH   1   9
ATOM      9  O   UNL     1       3.716   4.858  18.377  0.00  0.00    +0.000 OA
BRANCH   9  11
ATOM     10  O   UNL     1       3.590   2.629  19.084  0.00  0.00    +0.000 OA
ATOM     11  C   UNL     1       3.325   3.815  19.206  0.00  0.00    +0.000 C 
BRANCH  11  12
ATOM     12  C   UNL     1       2.519   4.343  20.340  0.00  0.00    +0.000 C 
ATOM     13  C   UNL     1       1.030   4.104  20.414  0.00  0.00    +0.000 C 
ATOM     14  C   UNL     1       1.949   3.396  21.368  0.00  0.00    +0.000 C 
ENDBRANCH  11  12
ENDBRANCH   9  11
ENDBRANCH   1   9
TORSDOF 4
ENDMDL
MODEL 6
REMARK VINA RESULT:      -5.7      1.971      4.935
REMARK  Name = 
REMARK  4 active torsions:
REMARK  status: ('A' for Active; 'I' for Inactive)
REMARK    1  A    between atoms: C_2  and  O_3
REMARK    2  A    between atoms: C_2  and  C_11
REMARK    3  A    between atoms: O_3  and  C_4
REMARK    4  A    between atoms: C_8  and  O_9
REMARK                            x       y       z     vdW  Elec       q    Type
REMARK                         _______ _______ _______ _____ _____    ______ ____
ROOT
ATOM      1  C   UNL     1       2.991   4.604  19.604  0.00  0.00    +0.000 A 
ATOM      2  C   UNL     1       2.219   4.323  18.474  0.00  0.00    +0.000 A 
ATOM      3  C   UNL     1       1.143   3.442  18.573  0.00  0.00    +0.000 A 
ATOM      4  C   UNL     1       0.837   2.852  19.801  0.00  0.00    +0.000 A 
ATOM      5  C   UNL     1       1.617   3.147  20.918  0.00  0.00    +0.000 A 
ATOM      6  C   UNL     1       2.694   4.023  20.833  0.00  0.00    +0.000 A 
ENDROOT
BRANCH   5   7
ATOM      7  O   UNL     1       1.340   2.601  22.137  0.00  0.00    +0.000 OA
ATOM      8  H   UNL     1       0.377   2.579  22.258  0.00  0.00    +0.000 HD
ENDBRANCH   5   7
BRANCH   1   9
ATOM      9  O   UNL     1       3.991   5.583  19.426  0.00  0.00    +0.000 OA
BRANCH   9  11
ATOM     10  O   UNL     1       6.029   4.433  19.329  0.00  0.00    +0.000 OA
ATOM     11  C   UNL     1       5.251   5.284  18.926  0.00  0.00    +0.000 C 
BRANCH  11  12
ATOM     12  C   UNL     1       5.553   6.154  17.757  0.00  0.00    +0.000 C 
ATOM     13  C   UNL     1       5.137   5.756  16.362  0.00  0.00    +0.000 C 
ATOM     14  C   UNL     1       4.439   6.892  17.055  0.00  0.00    +0.000 C 
ENDBRANCH  11  12
ENDBRANCH   9  11
ENDBRANCH   1   9
TORSDOF 4
ENDMDL
MODEL 7
REMARK VINA RESULT:      -5.7      1.585      5.015
REMARK  Name = 
REMARK  4 active torsions:
REMARK  status: ('A' for Active; 'I' for Inactive)
REMARK    1  A    between atoms: C_2  and  O_3
REMARK    2  A    between atoms: C_2  and  C_11
REMARK    3  A    between atoms: O_3  and  C_4
REMARK    4  A    between atoms: C_8  and  O_9
REMARK                            x       y       z     vdW  Elec       q    Type
REMARK                         _______ _______ _______ _____ _____    ______ ____
ROOT
ATOM      1  C   UNL     1       3.258   4.646  19.609  0.00  0.00    +0.000 A 
ATOM      2  C   UNL     1       2.208   5.055  20.435  0.00  0.00    +0.000 A 
ATOM      3  C   UNL     1       1.074   4.253  20.561  0.00  0.00    +0.000 A 
ATOM      4  C   UNL     1       0.998   3.042  19.870  0.00  0.00    +0.000 A 
ATOM      5  C   UNL     1       2.057   2.649  19.054  0.00  0.00    +0.000 A 
ATOM      6  C   UNL     1       3.193   3.440  18.917  0.00  0.00    +0.000 A 
ENDROOT
BRANCH   5   7
ATOM      7  O   UNL     1       2.024   1.466  18.374  0.00  0.00    +0.000 OA
ATOM      8  H   UNL     1       1.125   1.104  18.420  0.00  0.00    +0.000 HD
ENDBRANCH   5   7
BRANCH   1   9
ATOM      9  O   UNL     1       4.400   5.473  19.627  0.00  0.00    +0.000 OA
BRANCH   9  11
ATOM     10  O   UNL     1       6.348   4.333  19.004  0.00  0.00    +0.000 OA
ATOM     11  C   UNL     1       5.521   5.219  18.850  0.00  0.00    +0.000 C 
BRANCH  11  12
ATOM     12  C   UNL     1       5.593   6.193  17.727  0.00  0.00    +0.000 C 
ATOM     13  C   UNL     1       5.019   5.861  16.370  0.00  0.00    +0.000 C 
ATOM     14  C   UNL     1       4.340   6.881  17.241  0.00  0.00    +0.000 C 
ENDBRANCH  11  12
ENDBRANCH   9  11
ENDBRANCH   1   9
TORSDOF 4
ENDMDL
MODEL 8
REMARK VINA RESULT:      -5.7      2.047      2.558
REMARK  Name = 
REMARK  4 active torsions:
REMARK  status: ('A' for Active; 'I' for Inactive)
REMARK    1  A    between atoms: C_2  and  O_3
REMARK    2  A    between atoms: C_2  and  C_11
REMARK    3  A    between atoms: O_3  and  C_4
REMARK    4  A    between atoms: C_8  and  O_9
REMARK                            x       y       z     vdW  Elec       q    Type
REMARK                         _______ _______ _______ _____ _____    ______ ____
ROOT
ATOM      1  C   UNL     1       4.327   4.066  17.154  0.00  0.00    +0.000 A 
ATOM      2  C   UNL     1       3.800   5.231  17.717  0.00  0.00    +0.000 A 
ATOM      3  C   UNL     1       4.207   6.476  17.239  0.00  0.00    +0.000 A 
ATOM      4  C   UNL     1       5.132   6.553  16.195  0.00  0.00    +0.000 A 
ATOM      5  C   UNL     1       5.644   5.380  15.644  0.00  0.00    +0.000 A 
ATOM      6  C   UNL     1       5.248   4.131  16.112  0.00  0.00    +0.000 A 
ENDROOT
BRANCH   5   7
ATOM      7  O   UNL     1       6.538   5.415  14.613  0.00  0.00    +0.000 OA
ATOM      8  H   UNL     1       7.121   6.181  14.732  0.00  0.00    +0.000 HD
ENDBRANCH   5   7
BRANCH   1   9
ATOM      9  O   UNL     1       3.778   2.859  17.634  0.00  0.00    +0.000 OA
BRANCH   9  11
ATOM     10  O   UNL     1       4.682   2.547  19.772  0.00  0.00    +0.000 OA
ATOM     11  C   UNL     1       3.749   2.535  18.984  0.00  0.00    +0.000 C 
BRANCH  11  12
ATOM     12  C   UNL     1       2.364   2.171  19.389  0.00  0.00    +0.000 C 
ATOM     13  C   UNL     1       1.433   3.197  19.986  0.00  0.00    +0.000 C 
ATOM     14  C   UNL     1       1.185   2.681  18.597  0.00  0.00    +0.000 C 
ENDBRANCH  11  12
ENDBRANCH   9  11
ENDBRANCH   1   9
TORSDOF 4
ENDMDL
MODEL 9
REMARK VINA RESULT:      -5.7      1.506      5.329
REMARK  Name = 
REMARK  4 active torsions:
REMARK  status: ('A' for Active; 'I' for Inactive)
REMARK    1  A    between atoms: C_2  and  O_3
REMARK    2  A    between atoms: C_2  and  C_11
REMARK    3  A    between atoms: O_3  and  C_4
REMARK    4  A    between atoms: C_8  and  O_9
REMARK                            x       y       z     vdW  Elec       q    Type
REMARK                         _______ _______ _______ _____ _____    ______ ____
ROOT
ATOM      1  C   UNL     1       2.825   4.499  18.822  0.00  0.00    +0.000 A 
ATOM      2  C   UNL     1       2.713   4.786  20.185  0.00  0.00    +0.000 A 
ATOM      3  C   UNL     1       1.771   4.109  20.959  0.00  0.00    +0.000 A 
ATOM      4  C   UNL     1       0.952   3.143  20.371  0.00  0.00    +0.000 A 
ATOM      5  C   UNL     1       1.081   2.868  19.011  0.00  0.00    +0.000 A 
ATOM      6  C   UNL     1       2.015   3.537  18.227  0.00  0.00    +0.000 A 
ENDROOT
BRANCH   5   7
ATOM      7  O   UNL     1       0.308   1.920  18.406  0.00  0.00    +0.000 OA
ATOM      8  H   UNL     1       0.888   1.235  18.035  0.00  0.00    +0.000 HD
ENDBRANCH   5   7
BRANCH   1   9
ATOM      9  O   UNL     1       3.872   5.161  18.148  0.00  0.00    +0.000 OA
BRANCH   9  11
ATOM     10  O   UNL     1       5.962   4.193  18.567  0.00  0.00    +0.000 OA
ATOM     11  C   UNL     1       5.063   4.532  17.813  0.00  0.00    +0.000 C 
BRANCH  11  12
ATOM     12  C   UNL     1       5.112   4.284  16.347  0.00  0.00    +0.000 C 
ATOM     13  C   UNL     1       5.587   5.353  15.392  0.00  0.00    +0.000 C 
ATOM     14  C   UNL     1       6.442   4.143  15.647  0.00  0.00    +0.000 C 
ENDBRANCH  11  12
ENDBRANCH   9  11
ENDBRANCH   1   9
TORSDOF 4
ENDMDL
