MODEL 1
REMARK VINA RESULT:      -7.4      0.000      0.000
REMARK  Name = 
REMARK  10 active torsions:
REMARK  status: ('A' for Active; 'I' for Inactive)
REMARK    1  A    between atoms: N_1  and  C_2
REMARK    2  A    between atoms: C_2  and  C_3
REMARK    3  A    between atoms: C_3  and  C_4
REMARK    4  A    between atoms: C_4  and  C_5
REMARK    5  A    between atoms: C_5  and  C_6
REMARK    6  A    between atoms: C_6  and  C_7
REMARK    7  A    between atoms: C_7  and  N_8
REMARK    8  A    between atoms: C_18  and  C_19
REMARK    9  A    between atoms: C_22  and  O_23
REMARK   10  A    between atoms: C_24  and  O_25
REMARK                            x       y       z     vdW  Elec       q    Type
REMARK                         _______ _______ _______ _____ _____    ______ ____
ROOT
ATOM      1  N   UNL     1       5.597   4.999  16.282  0.00  0.00    +0.000 N 
ATOM      2  C   UNL     1       4.620   5.124  17.270  0.00  0.00    +0.000 A 
ATOM      3  N   UNL     1       4.262   4.068  17.900  0.00  0.00    +0.000 NA
ATOM      4  C   UNL     1       3.300   4.135  18.929  0.00  0.00    +0.000 A 
ATOM      5  C   UNL     1       3.039   2.952  19.615  0.00  0.00    +0.000 A 
ATOM      6  C   UNL     1       2.092   2.914  20.637  0.00  0.00    +0.000 A 
ATOM      7  C   UNL     1       1.397   4.057  20.962  0.00  0.00    +0.000 A 
ATOM      8  C   UNL     1       1.639   5.231  20.259  0.00  0.00    +0.000 A 
ATOM      9  C   UNL     1       2.619   5.309  19.269  0.00  0.00    +0.000 A 
ATOM     10  N   UNL     1       2.980   6.483  18.554  0.00  0.00    +0.000 N 
ATOM     11  C   UNL     1       2.543   7.807  18.556  0.00  0.00    +0.000 A 
ATOM     12  C   UNL     1       3.312   8.407  17.562  0.00  0.00    +0.000 A 
ATOM     13  N   UNL     1       4.193   7.534  16.979  0.00  0.00    +0.000 NA
ATOM     14  C   UNL     1       3.980   6.403  17.585  0.00  0.00    +0.000 A 
ATOM     15  H   UNL     1       5.806   5.844  15.766  0.00  0.00    +0.000 HD
ENDROOT
BRANCH  11  16
ATOM     16  C   UNL     1       1.556   8.484  19.413  0.00  0.00    +0.000 A 
ATOM     17  C   UNL     1       0.538   9.274  18.851  0.00  0.00    +0.000 A 
ATOM     18  C   UNL     1      -0.349  10.000  19.659  0.00  0.00    +0.000 A 
ATOM     19  C   UNL     1      -0.160  10.016  21.034  0.00  0.00    +0.000 A 
ATOM     20  C   UNL     1       0.844   9.248  21.602  0.00  0.00    +0.000 A 
ATOM     21  C   UNL     1       1.683   8.487  20.806  0.00  0.00    +0.000 A 
BRANCH  19  22
ATOM     22  O   UNL     1      -0.915  10.788  21.870  0.00  0.00    +0.000 OA
ATOM     23  H   UNL     1      -1.666  10.259  22.185  0.00  0.00    +0.000 HD
ENDBRANCH  19  22
BRANCH  20  24
ATOM     24  O   UNL     1       1.067   9.257  22.947  0.00  0.00    +0.000 OA
ATOM     25  H   UNL     1       0.430   9.905  23.303  0.00  0.00    +0.000 HD
ENDBRANCH  20  24
ENDBRANCH  11  16
BRANCH   1  26
ATOM     26  C   UNL     1       5.708   3.738  15.565  0.00  0.00    +0.000 C 
BRANCH  26  27
ATOM     27  C   UNL     1       5.521   3.947  14.069  0.00  0.00    +0.000 C 
BRANCH  27  28
ATOM     28  C   UNL     1       6.845   4.336  13.412  0.00  0.00    +0.000 C 
BRANCH  28  29
ATOM     29  C   UNL     1       6.916   3.817  11.980  0.00  0.00    +0.000 C 
BRANCH  29  30
ATOM     30  C   UNL     1       6.028   2.587  11.803  0.00  0.00    +0.000 C 
BRANCH  30  31
ATOM     31  C   UNL     1       6.793   1.468  11.107  0.00  0.00    +0.000 C 
BRANCH  31  32
ATOM     32  N   UNL     1       6.160   0.187  11.384  0.00  0.00    +0.000 NA
ATOM     33  H   UNL     1       6.679  -0.296  12.115  0.00  0.00    +0.000 HD
ATOM     34  H   UNL     1       6.211  -0.406  10.555  0.00  0.00    +0.000 HD
ENDBRANCH  31  32
ENDBRANCH  30  31
ENDBRANCH  29  30
ENDBRANCH  28  29
ENDBRANCH  27  28
ENDBRANCH  26  27
ENDBRANCH   1  26
TORSDOF 10
ENDMDL
MODEL 2
REMARK VINA RESULT:      -7.4      1.107      1.245
REMARK  Name = 
REMARK  10 active torsions:
REMARK  status: ('A' for Active; 'I' for Inactive)
REMARK    1  A    between atoms: N_1  and  C_2
REMARK    2  A    between atoms: C_2  and  C_3
REMARK    3  A    between atoms: C_3  and  C_4
REMARK    4  A    between atoms: C_4  and  C_5
REMARK    5  A    between atoms: C_5  and  C_6
REMARK    6  A    between atoms: C_6  and  C_7
REMARK    7  A    between atoms: C_7  and  N_8
REMARK    8  A    between atoms: C_18  and  C_19
REMARK    9  A    between atoms: C_22  and  O_23
REMARK   10  A    between atoms: C_24  and  O_25
REMARK                            x       y       z     vdW  Elec       q    Type
REMARK                         _______ _______ _______ _____ _____    ______ ____
ROOT
ATOM      1  N   UNL     1       6.201   4.632  15.759  0.00  0.00    +0.000 N 
ATOM      2  C   UNL     1       5.047   4.744  16.536  0.00  0.00    +0.000 A 
ATOM      3  N   UNL     1       4.417   3.670  16.835  0.00  0.00    +0.000 NA
ATOM      4  C   UNL     1       3.261   3.716  17.641  0.00  0.00    +0.000 A 
ATOM      5  C   UNL     1       2.694   2.492  17.986  0.00  0.00    +0.000 A 
ATOM      6  C   UNL     1       1.540   2.434  18.765  0.00  0.00    +0.000 A 
ATOM      7  C   UNL     1       0.946   3.603  19.187  0.00  0.00    +0.000 A 
ATOM      8  C   UNL     1       1.497   4.825  18.820  0.00  0.00    +0.000 A 
ATOM      9  C   UNL     1       2.681   4.909  18.087  0.00  0.00    +0.000 A 
ATOM     10  N   UNL     1       3.350   6.112  17.732  0.00  0.00    +0.000 N 
ATOM     11  C   UNL     1       3.103   7.469  17.935  0.00  0.00    +0.000 A 
ATOM     12  C   UNL     1       4.153   8.096  17.270  0.00  0.00    +0.000 A 
ATOM     13  N   UNL     1       5.022   7.203  16.698  0.00  0.00    +0.000 NA
ATOM     14  C   UNL     1       4.526   6.036  16.988  0.00  0.00    +0.000 A 
ATOM     15  H   UNL     1       6.634   5.508  15.492  0.00  0.00    +0.000 HD
ENDROOT
BRANCH  11  16
ATOM     16  C   UNL     1       2.043   8.140  18.705  0.00  0.00    +0.000 A 
ATOM     17  C   UNL     1       1.199   9.083  18.094  0.00  0.00    +0.000 A 
ATOM     18  C   UNL     1       0.249   9.799  18.838  0.00  0.00    +0.000 A 
ATOM     19  C   UNL     1       0.206   9.644  20.216  0.00  0.00    +0.000 A 
ATOM     20  C   UNL     1       1.037   8.722  20.833  0.00  0.00    +0.000 A 
ATOM     21  C   UNL     1       1.935   7.976  20.090  0.00  0.00    +0.000 A 
BRANCH  19  22
ATOM     22  O   UNL     1      -0.615  10.389  21.013  0.00  0.00    +0.000 OA
ATOM     23  H   UNL     1      -0.271  11.296  21.050  0.00  0.00    +0.000 HD
ENDBRANCH  19  22
BRANCH  20  24
ATOM     24  O   UNL     1       1.031   8.561  22.187  0.00  0.00    +0.000 OA
ATOM     25  H   UNL     1       0.690   7.659  22.332  0.00  0.00    +0.000 HD
ENDBRANCH  20  24
ENDBRANCH  11  16
BRANCH   1  26
ATOM     26  C   UNL     1       6.307   3.525  14.821  0.00  0.00    +0.000 C 
BRANCH  26  27
ATOM     27  C   UNL     1       6.599   4.032  13.415  0.00  0.00    +0.000 C 
BRANCH  27  28
ATOM     28  C   UNL     1       5.815   3.226  12.380  0.00  0.00    +0.000 C 
BRANCH  28  29
ATOM     29  C   UNL     1       6.719   2.786  11.233  0.00  0.00    +0.000 C 
BRANCH  29  30
ATOM     30  C   UNL     1       7.082   1.309  11.364  0.00  0.00    +0.000 C 
BRANCH  30  31
ATOM     31  C   UNL     1       5.901   0.429  10.971  0.00  0.00    +0.000 C 
BRANCH  31  32
ATOM     32  N   UNL     1       6.175  -0.957  11.324  0.00  0.00    +0.000 NA
ATOM     33  H   UNL     1       5.472  -1.559  10.900  0.00  0.00    +0.000 HD
ATOM     34  H   UNL     1       6.085  -1.076  12.333  0.00  0.00    +0.000 HD
ENDBRANCH  31  32
ENDBRANCH  30  31
ENDBRANCH  29  30
ENDBRANCH  28  29
ENDBRANCH  27  28
ENDBRANCH  26  27
ENDBRANCH   1  26
TORSDOF 10
ENDMDL
MODEL 3
REMARK VINA RESULT:      -7.4      1.536      1.679
REMARK  Name = 
REMARK  10 active torsions:
REMARK  status: ('A' for Active; 'I' for Inactive)
REMARK    1  A    between atoms: N_1  and  C_2
REMARK    2  A    between atoms: C_2  and  C_3
REMARK    3  A    between atoms: C_3  and  C_4
REMARK    4  A    between atoms: C_4  and  C_5
REMARK    5  A    between atoms: C_5  and  C_6
REMARK    6  A    between atoms: C_6  and  C_7
REMARK    7  A    between atoms: C_7  and  N_8
REMARK    8  A    between atoms: C_18  and  C_19
REMARK    9  A    between atoms: C_22  and  O_23
REMARK   10  A    between atoms: C_24  and  O_25
REMARK                            x       y       z     vdW  Elec       q    Type
REMARK                         _______ _______ _______ _____ _____    ______ ____
ROOT
ATOM      1  N   UNL     1       6.122   4.662  16.139  0.00  0.00    +0.000 N 
ATOM      2  C   UNL     1       4.984   4.798  16.936  0.00  0.00    +0.000 A 
ATOM      3  N   UNL     1       4.406   3.732  17.348  0.00  0.00    +0.000 NA
ATOM      4  C   UNL     1       3.270   3.805  18.179  0.00  0.00    +0.000 A 
ATOM      5  C   UNL     1       2.762   2.595  18.647  0.00  0.00    +0.000 A 
ATOM      6  C   UNL     1       1.632   2.563  19.462  0.00  0.00    +0.000 A 
ATOM      7  C   UNL     1       1.002   3.741  19.796  0.00  0.00    +0.000 A 
ATOM      8  C   UNL     1       1.493   4.946  19.307  0.00  0.00    +0.000 A 
ATOM      9  C   UNL     1       2.654   5.009  18.535  0.00  0.00    +0.000 A 
ATOM     10  N   UNL     1       3.263   6.201  18.056  0.00  0.00    +0.000 N 
ATOM     11  C   UNL     1       2.967   7.560  18.146  0.00  0.00    +0.000 A 
ATOM     12  C   UNL     1       3.974   8.165  17.398  0.00  0.00    +0.000 A 
ATOM     13  N   UNL     1       4.863   7.259  16.882  0.00  0.00    +0.000 NA
ATOM     14  C   UNL     1       4.423   6.104  17.288  0.00  0.00    +0.000 A 
ATOM     15  H   UNL     1       6.511   5.525  15.784  0.00  0.00    +0.000 HD
ENDROOT
BRANCH  11  16
ATOM     16  C   UNL     1       1.901   8.256  18.885  0.00  0.00    +0.000 A 
ATOM     17  C   UNL     1       1.082   9.201  18.242  0.00  0.00    +0.000 A 
ATOM     18  C   UNL     1       0.126   9.940  18.956  0.00  0.00    +0.000 A 
ATOM     19  C   UNL     1       0.054   9.806  20.335  0.00  0.00    +0.000 A 
ATOM     20  C   UNL     1       0.860   8.883  20.983  0.00  0.00    +0.000 A 
ATOM     21  C   UNL     1       1.763   8.114  20.269  0.00  0.00    +0.000 A 
BRANCH  19  22
ATOM     22  O   UNL     1      -0.773  10.573  21.105  0.00  0.00    +0.000 OA
ATOM     23  H   UNL     1      -0.229  11.110  21.704  0.00  0.00    +0.000 HD
ENDBRANCH  19  22
BRANCH  20  24
ATOM     24  O   UNL     1       0.825   8.742  22.339  0.00  0.00    +0.000 OA
ATOM     25  H   UNL     1       0.086   9.307  22.632  0.00  0.00    +0.000 HD
ENDBRANCH  20  24
ENDBRANCH  11  16
BRANCH   1  26
ATOM     26  C   UNL     1       6.248   3.480  15.300  0.00  0.00    +0.000 C 
BRANCH  26  27
ATOM     27  C   UNL     1       6.265   3.862  13.826  0.00  0.00    +0.000 C 
BRANCH  27  28
ATOM     28  C   UNL     1       4.955   3.456  13.151  0.00  0.00    +0.000 C 
BRANCH  28  29
ATOM     29  C   UNL     1       5.135   3.330  11.642  0.00  0.00    +0.000 C 
BRANCH  29  30
ATOM     30  C   UNL     1       3.804   3.031  10.958  0.00  0.00    +0.000 C 
BRANCH  30  31
ATOM     31  C   UNL     1       3.288   4.263  10.225  0.00  0.00    +0.000 C 
BRANCH  31  32
ATOM     32  N   UNL     1       2.807   3.890   8.903  0.00  0.00    +0.000 NA
ATOM     33  H   UNL     1       2.510   2.916   8.914  0.00  0.00    +0.000 HD
ATOM     34  H   UNL     1       3.573   3.949   8.232  0.00  0.00    +0.000 HD
ENDBRANCH  31  32
ENDBRANCH  30  31
ENDBRANCH  29  30
ENDBRANCH  28  29
ENDBRANCH  27  28
ENDBRANCH  26  27
ENDBRANCH   1  26
TORSDOF 10
ENDMDL
MODEL 4
REMARK VINA RESULT:      -7.2      4.221      7.588
REMARK  Name = 
REMARK  10 active torsions:
REMARK  status: ('A' for Active; 'I' for Inactive)
REMARK    1  A    between atoms: N_1  and  C_2
REMARK    2  A    between atoms: C_2  and  C_3
REMARK    3  A    between atoms: C_3  and  C_4
REMARK    4  A    between atoms: C_4  and  C_5
REMARK    5  A    between atoms: C_5  and  C_6
REMARK    6  A    between atoms: C_6  and  C_7
REMARK    7  A    between atoms: C_7  and  N_8
REMARK    8  A    between atoms: C_18  and  C_19
REMARK    9  A    between atoms: C_22  and  O_23
REMARK   10  A    between atoms: C_24  and  O_25
REMARK                            x       y       z     vdW  Elec       q    Type
REMARK                         _______ _______ _______ _____ _____    ______ ____
ROOT
ATOM      1  N   UNL     1       1.446   9.347  19.080  0.00  0.00    +0.000 N 
ATOM      2  C   UNL     1       0.219  10.006  19.162  0.00  0.00    +0.000 A 
ATOM      3  N   UNL     1      -0.541   9.993  18.131  0.00  0.00    +0.000 NA
ATOM      4  C   UNL     1      -1.805  10.616  18.162  0.00  0.00    +0.000 A 
ATOM      5  C   UNL     1      -2.597  10.475  17.024  0.00  0.00    +0.000 A 
ATOM      6  C   UNL     1      -3.856  11.069  16.953  0.00  0.00    +0.000 A 
ATOM      7  C   UNL     1      -4.316  11.816  18.015  0.00  0.00    +0.000 A 
ATOM      8  C   UNL     1      -3.515  11.978  19.139  0.00  0.00    +0.000 A 
ATOM      9  C   UNL     1      -2.275  11.350  19.257  0.00  0.00    +0.000 A 
ATOM     10  N   UNL     1      -1.427  11.403  20.396  0.00  0.00    +0.000 N 
ATOM     11  C   UNL     1      -1.492  12.029  21.641  0.00  0.00    +0.000 A 
ATOM     12  C   UNL     1      -0.285  11.685  22.244  0.00  0.00    +0.000 A 
ATOM     13  N   UNL     1       0.490  10.880  21.450  0.00  0.00    +0.000 NA
ATOM     14  C   UNL     1      -0.209  10.725  20.363  0.00  0.00    +0.000 A 
ATOM     15  H   UNL     1       2.043   9.434  19.893  0.00  0.00    +0.000 HD
ENDROOT
BRANCH  11  16
ATOM     16  C   UNL     1      -2.570  12.823  22.252  0.00  0.00    +0.000 A 
ATOM     17  C   UNL     1      -2.776  14.162  21.877  0.00  0.00    +0.000 A 
ATOM     18  C   UNL     1      -3.736  14.958  22.520  0.00  0.00    +0.000 A 
ATOM     19  C   UNL     1      -4.428  14.444  23.608  0.00  0.00    +0.000 A 
ATOM     20  C   UNL     1      -4.230  13.128  23.994  0.00  0.00    +0.000 A 
ATOM     21  C   UNL     1      -3.322  12.327  23.322  0.00  0.00    +0.000 A 
BRANCH  19  22
ATOM     22  O   UNL     1      -5.294  15.197  24.349  0.00  0.00    +0.000 OA
ATOM     23  H   UNL     1      -5.277  14.875  25.265  0.00  0.00    +0.000 HD
ENDBRANCH  19  22
BRANCH  20  24
ATOM     24  O   UNL     1      -4.880  12.601  25.070  0.00  0.00    +0.000 OA
ATOM     25  H   UNL     1      -4.356  12.881  25.843  0.00  0.00    +0.000 HD
ENDBRANCH  20  24
ENDBRANCH  11  16
BRANCH   1  26
ATOM     26  C   UNL     1       2.099   9.246  17.784  0.00  0.00    +0.000 C 
BRANCH  26  27
ATOM     27  C   UNL     1       2.992   8.015  17.721  0.00  0.00    +0.000 C 
BRANCH  27  28
ATOM     28  C   UNL     1       2.593   7.007  18.800  0.00  0.00    +0.000 C 
BRANCH  28  29
ATOM     29  C   UNL     1       2.545   5.592  18.232  0.00  0.00    +0.000 C 
BRANCH  29  30
ATOM     30  C   UNL     1       3.275   4.614  19.149  0.00  0.00    +0.000 C 
BRANCH  30  31
ATOM     31  C   UNL     1       4.763   4.938  19.203  0.00  0.00    +0.000 C 
BRANCH  31  32
ATOM     32  N   UNL     1       5.540   3.762  18.837  0.00  0.00    +0.000 NA
ATOM     33  H   UNL     1       5.122   3.321  18.020  0.00  0.00    +0.000 HD
ATOM     34  H   UNL     1       5.494   3.075  19.590  0.00  0.00    +0.000 HD
ENDBRANCH  31  32
ENDBRANCH  30  31
ENDBRANCH  29  30
ENDBRANCH  28  29
ENDBRANCH  27  28
ENDBRANCH  26  27
ENDBRANCH   1  26
TORSDOF 10
ENDMDL
MODEL 5
REMARK VINA RESULT:      -7.1      1.337      1.447
REMARK  Name = 
REMARK  10 active torsions:
REMARK  status: ('A' for Active; 'I' for Inactive)
REMARK    1  A    between atoms: N_1  and  C_2
REMARK    2  A    between atoms: C_2  and  C_3
REMARK    3  A    between atoms: C_3  and  C_4
REMARK    4  A    between atoms: C_4  and  C_5
REMARK    5  A    between atoms: C_5  and  C_6
REMARK    6  A    between atoms: C_6  and  C_7
REMARK    7  A    between atoms: C_7  and  N_8
REMARK    8  A    between atoms: C_18  and  C_19
REMARK    9  A    between atoms: C_22  and  O_23
REMARK   10  A    between atoms: C_24  and  O_25
REMARK                            x       y       z     vdW  Elec       q    Type
REMARK                         _______ _______ _______ _____ _____    ______ ____
ROOT
ATOM      1  N   UNL     1       5.233   5.639  16.041  0.00  0.00    +0.000 N 
ATOM      2  C   UNL     1       4.339   5.646  17.113  0.00  0.00    +0.000 A 
ATOM      3  N   UNL     1       4.086   4.533  17.693  0.00  0.00    +0.000 NA
ATOM      4  C   UNL     1       3.214   4.481  18.800  0.00  0.00    +0.000 A 
ATOM      5  C   UNL     1       3.067   3.242  19.419  0.00  0.00    +0.000 A 
ATOM      6  C   UNL     1       2.215   3.087  20.510  0.00  0.00    +0.000 A 
ATOM      7  C   UNL     1       1.498   4.168  20.972  0.00  0.00    +0.000 A 
ATOM      8  C   UNL     1       1.625   5.398  20.337  0.00  0.00    +0.000 A 
ATOM      9  C   UNL     1       2.512   5.592  19.278  0.00  0.00    +0.000 A 
ATOM     10  N   UNL     1       2.756   6.829  18.621  0.00  0.00    +0.000 N 
ATOM     11  C   UNL     1       2.260   8.126  18.753  0.00  0.00    +0.000 A 
ATOM     12  C   UNL     1       2.912   8.830  17.744  0.00  0.00    +0.000 A 
ATOM     13  N   UNL     1       3.779   8.045  17.030  0.00  0.00    +0.000 NA
ATOM     14  C   UNL     1       3.671   6.866  17.570  0.00  0.00    +0.000 A 
ATOM     15  H   UNL     1       5.358   6.526  15.571  0.00  0.00    +0.000 HD
ENDROOT
BRANCH  11  16
ATOM     16  C   UNL     1       1.320   8.691  19.735  0.00  0.00    +0.000 A 
ATOM     17  C   UNL     1       0.195   9.421  19.314  0.00  0.00    +0.000 A 
ATOM     18  C   UNL     1      -0.655  10.045  20.239  0.00  0.00    +0.000 A 
ATOM     19  C   UNL     1      -0.326  10.024  21.587  0.00  0.00    +0.000 A 
ATOM     20  C   UNL     1       0.784   9.314  22.016  0.00  0.00    +0.000 A 
ATOM     21  C   UNL     1       1.590   8.651  21.106  0.00  0.00    +0.000 A 
BRANCH  19  22
ATOM     22  O   UNL     1      -1.045  10.703  22.529  0.00  0.00    +0.000 OA
ATOM     23  H   UNL     1      -0.470  11.372  22.934  0.00  0.00    +0.000 HD
ENDBRANCH  19  22
BRANCH  20  24
ATOM     24  O   UNL     1       1.143   9.290  23.331  0.00  0.00    +0.000 OA
ATOM     25  H   UNL     1       2.003   8.830  23.349  0.00  0.00    +0.000 HD
ENDBRANCH  20  24
ENDBRANCH  11  16
BRANCH   1  26
ATOM     26  C   UNL     1       5.340   4.436  15.229  0.00  0.00    +0.000 C 
BRANCH  26  27
ATOM     27  C   UNL     1       6.400   4.602  14.150  0.00  0.00    +0.000 C 
BRANCH  27  28
ATOM     28  C   UNL     1       6.184   3.590  13.025  0.00  0.00    +0.000 C 
BRANCH  28  29
ATOM     29  C   UNL     1       4.726   3.578  12.576  0.00  0.00    +0.000 C 
BRANCH  29  30
ATOM     30  C   UNL     1       4.587   2.935  11.198  0.00  0.00    +0.000 C 
BRANCH  30  31
ATOM     31  C   UNL     1       3.181   3.144  10.648  0.00  0.00    +0.000 C 
BRANCH  31  32
ATOM     32  N   UNL     1       3.174   4.265   9.719  0.00  0.00    +0.000 NA
ATOM     33  H   UNL     1       2.807   5.091  10.189  0.00  0.00    +0.000 HD
ATOM     34  H   UNL     1       2.535   4.065   8.948  0.00  0.00    +0.000 HD
ENDBRANCH  31  32
ENDBRANCH  30  31
ENDBRANCH  29  30
ENDBRANCH  28  29
ENDBRANCH  27  28
ENDBRANCH  26  27
ENDBRANCH   1  26
TORSDOF 10
ENDMDL
MODEL 6
REMARK VINA RESULT:      -6.9      2.130      3.168
REMARK  Name = 
REMARK  10 active torsions:
REMARK  status: ('A' for Active; 'I' for Inactive)
REMARK    1  A    between atoms: N_1  and  C_2
REMARK    2  A    between atoms: C_2  and  C_3
REMARK    3  A    between atoms: C_3  and  C_4
REMARK    4  A    between atoms: C_4  and  C_5
REMARK    5  A    between atoms: C_5  and  C_6
REMARK    6  A    between atoms: C_6  and  C_7
REMARK    7  A    between atoms: C_7  and  N_8
REMARK    8  A    between atoms: C_18  and  C_19
REMARK    9  A    between atoms: C_22  and  O_23
REMARK   10  A    between atoms: C_24  and  O_25
REMARK                            x       y       z     vdW  Elec       q    Type
REMARK                         _______ _______ _______ _____ _____    ______ ____
ROOT
ATOM      1  N   UNL     1       4.864   6.162  16.083  0.00  0.00    +0.000 N 
ATOM      2  C   UNL     1       4.070   6.106  17.229  0.00  0.00    +0.000 A 
ATOM      3  N   UNL     1       3.953   4.978  17.826  0.00  0.00    +0.000 NA
ATOM      4  C   UNL     1       3.189   4.865  19.004  0.00  0.00    +0.000 A 
ATOM      5  C   UNL     1       3.190   3.620  19.630  0.00  0.00    +0.000 A 
ATOM      6  C   UNL     1       2.451   3.404  20.791  0.00  0.00    +0.000 A 
ATOM      7  C   UNL     1       1.698   4.430  21.318  0.00  0.00    +0.000 A 
ATOM      8  C   UNL     1       1.676   5.664  20.679  0.00  0.00    +0.000 A 
ATOM      9  C   UNL     1       2.449   5.921  19.547  0.00  0.00    +0.000 A 
ATOM     10  N   UNL     1       2.541   7.171  18.876  0.00  0.00    +0.000 N 
ATOM     11  C   UNL     1       1.963   8.427  19.055  0.00  0.00    +0.000 A 
ATOM     12  C   UNL     1       2.469   9.175  17.996  0.00  0.00    +0.000 A 
ATOM     13  N   UNL     1       3.326   8.455  17.205  0.00  0.00    +0.000 NA
ATOM     14  C   UNL     1       3.355   7.273  17.748  0.00  0.00    +0.000 A 
ATOM     15  H   UNL     1       4.881   7.055  15.607  0.00  0.00    +0.000 HD
ENDROOT
BRANCH  11  16
ATOM     16  C   UNL     1       1.074   8.923  20.118  0.00  0.00    +0.000 A 
ATOM     17  C   UNL     1      -0.098   9.632  19.801  0.00  0.00    +0.000 A 
ATOM     18  C   UNL     1      -0.904  10.192  20.804  0.00  0.00    +0.000 A 
ATOM     19  C   UNL     1      -0.486  10.129  22.126  0.00  0.00    +0.000 A 
ATOM     20  C   UNL     1       0.671   9.440  22.453  0.00  0.00    +0.000 A 
ATOM     21  C   UNL     1       1.435   8.839  21.466  0.00  0.00    +0.000 A 
BRANCH  19  22
ATOM     22  O   UNL     1      -1.161  10.748  23.139  0.00  0.00    +0.000 OA
ATOM     23  H   UNL     1      -0.536  11.304  23.633  0.00  0.00    +0.000 HD
ENDBRANCH  19  22
BRANCH  20  24
ATOM     24  O   UNL     1       1.117   9.377  23.740  0.00  0.00    +0.000 OA
ATOM     25  H   UNL     1       2.071   9.572  23.686  0.00  0.00    +0.000 HD
ENDBRANCH  20  24
ENDBRANCH  11  16
BRANCH   1  26
ATOM     26  C   UNL     1       4.989   4.968  15.261  0.00  0.00    +0.000 C 
BRANCH  26  27
ATOM     27  C   UNL     1       6.429   4.768  14.810  0.00  0.00    +0.000 C 
BRANCH  27  28
ATOM     28  C   UNL     1       7.400   5.191  15.912  0.00  0.00    +0.000 C 
BRANCH  28  29
ATOM     29  C   UNL     1       7.234   4.315  17.150  0.00  0.00    +0.000 C 
BRANCH  29  30
ATOM     30  C   UNL     1       8.274   4.669  18.210  0.00  0.00    +0.000 C 
BRANCH  30  31
ATOM     31  C   UNL     1       7.740   5.746  19.147  0.00  0.00    +0.000 C 
BRANCH  31  32
ATOM     32  N   UNL     1       6.498   5.298  19.761  0.00  0.00    +0.000 NA
ATOM     33  H   UNL     1       6.260   5.917  20.534  0.00  0.00    +0.000 HD
ATOM     34  H   UNL     1       6.632   4.371  20.165  0.00  0.00    +0.000 HD
ENDBRANCH  31  32
ENDBRANCH  30  31
ENDBRANCH  29  30
ENDBRANCH  28  29
ENDBRANCH  27  28
ENDBRANCH  26  27
ENDBRANCH   1  26
TORSDOF 10
ENDMDL
MODEL 7
REMARK VINA RESULT:      -6.9      4.876      7.919
REMARK  Name = 
REMARK  10 active torsions:
REMARK  status: ('A' for Active; 'I' for Inactive)
REMARK    1  A    between atoms: N_1  and  C_2
REMARK    2  A    between atoms: C_2  and  C_3
REMARK    3  A    between atoms: C_3  and  C_4
REMARK    4  A    between atoms: C_4  and  C_5
REMARK    5  A    between atoms: C_5  and  C_6
REMARK    6  A    between atoms: C_6  and  C_7
REMARK    7  A    between atoms: C_7  and  N_8
REMARK    8  A    between atoms: C_18  and  C_19
REMARK    9  A    between atoms: C_22  and  O_23
REMARK   10  A    between atoms: C_24  and  O_25
REMARK                            x       y       z     vdW  Elec       q    Type
REMARK                         _______ _______ _______ _____ _____    ______ ____
ROOT
ATOM      1  N   UNL     1       1.405   9.249  19.154  0.00  0.00    +0.000 N 
ATOM      2  C   UNL     1       0.196   9.942  19.228  0.00  0.00    +0.000 A 
ATOM      3  N   UNL     1      -0.554   9.955  18.190  0.00  0.00    +0.000 NA
ATOM      4  C   UNL     1      -1.800  10.613  18.212  0.00  0.00    +0.000 A 
ATOM      5  C   UNL     1      -2.584  10.501  17.066  0.00  0.00    +0.000 A 
ATOM      6  C   UNL     1      -3.825  11.130  16.985  0.00  0.00    +0.000 A 
ATOM      7  C   UNL     1      -4.274  11.884  18.046  0.00  0.00    +0.000 A 
ATOM      8  C   UNL     1      -3.480  12.018  19.179  0.00  0.00    +0.000 A 
ATOM      9  C   UNL     1      -2.259  11.355  19.306  0.00  0.00    +0.000 A 
ATOM     10  N   UNL     1      -1.421  11.378  20.454  0.00  0.00    +0.000 N 
ATOM     11  C   UNL     1      -1.481  11.998  21.701  0.00  0.00    +0.000 A 
ATOM     12  C   UNL     1      -0.291  11.618  22.314  0.00  0.00    +0.000 A 
ATOM     13  N   UNL     1       0.469  10.796  21.523  0.00  0.00    +0.000 NA
ATOM     14  C   UNL     1      -0.223  10.666  20.429  0.00  0.00    +0.000 A 
ATOM     15  H   UNL     1       1.996   9.315  19.973  0.00  0.00    +0.000 HD
ENDROOT
BRANCH  11  16
ATOM     16  C   UNL     1      -2.543  12.820  22.306  0.00  0.00    +0.000 A 
ATOM     17  C   UNL     1      -2.667  14.183  21.985  0.00  0.00    +0.000 A 
ATOM     18  C   UNL     1      -3.612  14.998  22.626  0.00  0.00    +0.000 A 
ATOM     19  C   UNL     1      -4.372  14.473  23.662  0.00  0.00    +0.000 A 
ATOM     20  C   UNL     1      -4.255  13.133  23.995  0.00  0.00    +0.000 A 
ATOM     21  C   UNL     1      -3.361  12.317  23.322  0.00  0.00    +0.000 A 
BRANCH  19  22
ATOM     22  O   UNL     1      -5.229  15.236  24.403  0.00  0.00    +0.000 OA
ATOM     23  H   UNL     1      -6.110  15.195  23.996  0.00  0.00    +0.000 HD
ENDBRANCH  19  22
BRANCH  20  24
ATOM     24  O   UNL     1      -4.973  12.594  25.020  0.00  0.00    +0.000 OA
ATOM     25  H   UNL     1      -5.655  12.045  24.589  0.00  0.00    +0.000 HD
ENDBRANCH  20  24
ENDBRANCH  11  16
BRANCH   1  26
ATOM     26  C   UNL     1       2.068   9.136  17.864  0.00  0.00    +0.000 C 
BRANCH  26  27
ATOM     27  C   UNL     1       2.841   7.829  17.764  0.00  0.00    +0.000 C 
BRANCH  27  28
ATOM     28  C   UNL     1       2.885   7.126  19.121  0.00  0.00    +0.000 C 
BRANCH  28  29
ATOM     29  C   UNL     1       2.256   5.739  19.037  0.00  0.00    +0.000 C 
BRANCH  29  30
ATOM     30  C   UNL     1       1.706   5.309  20.395  0.00  0.00    +0.000 C 
BRANCH  30  31
ATOM     31  C   UNL     1       2.084   3.863  20.693  0.00  0.00    +0.000 C 
BRANCH  31  32
ATOM     32  N   UNL     1       0.885   3.080  20.955  0.00  0.00    +0.000 NA
ATOM     33  H   UNL     1       0.950   2.660  21.880  0.00  0.00    +0.000 HD
ATOM     34  H   UNL     1       0.831   2.307  20.291  0.00  0.00    +0.000 HD
ENDBRANCH  31  32
ENDBRANCH  30  31
ENDBRANCH  29  30
ENDBRANCH  28  29
ENDBRANCH  27  28
ENDBRANCH  26  27
ENDBRANCH   1  26
TORSDOF 10
ENDMDL
MODEL 8
REMARK VINA RESULT:      -6.9      2.053      3.434
REMARK  Name = 
REMARK  10 active torsions:
REMARK  status: ('A' for Active; 'I' for Inactive)
REMARK    1  A    between atoms: N_1  and  C_2
REMARK    2  A    between atoms: C_2  and  C_3
REMARK    3  A    between atoms: C_3  and  C_4
REMARK    4  A    between atoms: C_4  and  C_5
REMARK    5  A    between atoms: C_5  and  C_6
REMARK    6  A    between atoms: C_6  and  C_7
REMARK    7  A    between atoms: C_7  and  N_8
REMARK    8  A    between atoms: C_18  and  C_19
REMARK    9  A    between atoms: C_22  and  O_23
REMARK   10  A    between atoms: C_24  and  O_25
REMARK                            x       y       z     vdW  Elec       q    Type
REMARK                         _______ _______ _______ _____ _____    ______ ____
ROOT
ATOM      1  N   UNL     1       4.844   5.702  15.965  0.00  0.00    +0.000 N 
ATOM      2  C   UNL     1       4.112   5.739  17.153  0.00  0.00    +0.000 A 
ATOM      3  N   UNL     1       3.982   4.650  17.814  0.00  0.00    +0.000 NA
ATOM      4  C   UNL     1       3.278   4.631  19.035  0.00  0.00    +0.000 A 
ATOM      5  C   UNL     1       3.263   3.422  19.727  0.00  0.00    +0.000 A 
ATOM      6  C   UNL     1       2.579   3.299  20.934  0.00  0.00    +0.000 A 
ATOM      7  C   UNL     1       1.898   4.382  21.443  0.00  0.00    +0.000 A 
ATOM      8  C   UNL     1       1.892   5.581  20.741  0.00  0.00    +0.000 A 
ATOM      9  C   UNL     1       2.612   5.746  19.557  0.00  0.00    +0.000 A 
ATOM     10  N   UNL     1       2.718   6.953  18.816  0.00  0.00    +0.000 N 
ATOM     11  C   UNL     1       2.202   8.241  18.957  0.00  0.00    +0.000 A 
ATOM     12  C   UNL     1       2.680   8.911  17.834  0.00  0.00    +0.000 A 
ATOM     13  N   UNL     1       3.463   8.115  17.040  0.00  0.00    +0.000 NA
ATOM     14  C   UNL     1       3.473   6.962  17.644  0.00  0.00    +0.000 A 
ATOM     15  H   UNL     1       4.871   6.567  15.442  0.00  0.00    +0.000 HD
ENDROOT
BRANCH  11  16
ATOM     16  C   UNL     1       1.391   8.829  20.036  0.00  0.00    +0.000 A 
ATOM     17  C   UNL     1       1.471   8.328  21.347  0.00  0.00    +0.000 A 
ATOM     18  C   UNL     1       0.635   8.815  22.363  0.00  0.00    +0.000 A 
ATOM     19  C   UNL     1      -0.353   9.738  22.048  0.00  0.00    +0.000 A 
ATOM     20  C   UNL     1      -0.448  10.235  20.758  0.00  0.00    +0.000 A 
ATOM     21  C   UNL     1       0.416   9.795  19.769  0.00  0.00    +0.000 A 
BRANCH  19  22
ATOM     22  O   UNL     1      -1.271  10.170  22.962  0.00  0.00    +0.000 OA
ATOM     23  H   UNL     1      -0.842  10.221  23.832  0.00  0.00    +0.000 HD
ENDBRANCH  19  22
BRANCH  20  24
ATOM     24  O   UNL     1      -1.419  11.128  20.414  0.00  0.00    +0.000 OA
ATOM     25  H   UNL     1      -1.911  11.295  21.239  0.00  0.00    +0.000 HD
ENDBRANCH  20  24
ENDBRANCH  11  16
BRANCH   1  26
ATOM     26  C   UNL     1       4.876   4.463  15.204  0.00  0.00    +0.000 C 
BRANCH  26  27
ATOM     27  C   UNL     1       6.302   3.950  15.062  0.00  0.00    +0.000 C 
BRANCH  27  28
ATOM     28  C   UNL     1       7.283   4.891  15.762  0.00  0.00    +0.000 C 
BRANCH  28  29
ATOM     29  C   UNL     1       7.537   4.443  17.198  0.00  0.00    +0.000 C 
BRANCH  29  30
ATOM     30  C   UNL     1       7.724   5.646  18.118  0.00  0.00    +0.000 C 
BRANCH  30  31
ATOM     31  C   UNL     1       7.053   5.401  19.464  0.00  0.00    +0.000 C 
BRANCH  31  32
ATOM     32  N   UNL     1       8.041   5.475  20.531  0.00  0.00    +0.000 NA
ATOM     33  H   UNL     1       8.897   5.892  20.171  0.00  0.00    +0.000 HD
ATOM     34  H   UNL     1       8.286   4.532  20.835  0.00  0.00    +0.000 HD
ENDBRANCH  31  32
ENDBRANCH  30  31
ENDBRANCH  29  30
ENDBRANCH  28  29
ENDBRANCH  27  28
ENDBRANCH  26  27
ENDBRANCH   1  26
TORSDOF 10
ENDMDL
MODEL 9
REMARK VINA RESULT:      -6.9      4.111      8.392
REMARK  Name = 
REMARK  10 active torsions:
REMARK  status: ('A' for Active; 'I' for Inactive)
REMARK    1  A    between atoms: N_1  and  C_2
REMARK    2  A    between atoms: C_2  and  C_3
REMARK    3  A    between atoms: C_3  and  C_4
REMARK    4  A    between atoms: C_4  and  C_5
REMARK    5  A    between atoms: C_5  and  C_6
REMARK    6  A    between atoms: C_6  and  C_7
REMARK    7  A    between atoms: C_7  and  N_8
REMARK    8  A    between atoms: C_18  and  C_19
REMARK    9  A    between atoms: C_22  and  O_23
REMARK   10  A    between atoms: C_24  and  O_25
REMARK                            x       y       z     vdW  Elec       q    Type
REMARK                         _______ _______ _______ _____ _____    ______ ____
ROOT
ATOM      1  N   UNL     1       0.390   8.265  20.739  0.00  0.00    +0.000 N 
ATOM      2  C   UNL     1       1.270   7.249  20.361  0.00  0.00    +0.000 A 
ATOM      3  N   UNL     1       1.257   6.160  21.035  0.00  0.00    +0.000 NA
ATOM      4  C   UNL     1       2.101   5.087  20.683  0.00  0.00    +0.000 A 
ATOM      5  C   UNL     1       1.955   3.913  21.418  0.00  0.00    +0.000 A 
ATOM      6  C   UNL     1       2.756   2.803  21.157  0.00  0.00    +0.000 A 
ATOM      7  C   UNL     1       3.713   2.873  20.169  0.00  0.00    +0.000 A 
ATOM      8  C   UNL     1       3.876   4.054  19.454  0.00  0.00    +0.000 A 
ATOM      9  C   UNL     1       3.052   5.160  19.660  0.00  0.00    +0.000 A 
ATOM     10  N   UNL     1       3.103   6.376  18.926  0.00  0.00    +0.000 N 
ATOM     11  C   UNL     1       3.893   6.864  17.885  0.00  0.00    +0.000 A 
ATOM     12  C   UNL     1       3.418   8.157  17.691  0.00  0.00    +0.000 A 
ATOM     13  N   UNL     1       2.383   8.470  18.533  0.00  0.00    +0.000 NA
ATOM     14  C   UNL     1       2.213   7.399  19.252  0.00  0.00    +0.000 A 
ATOM     15  H   UNL     1       0.476   9.131  20.222  0.00  0.00    +0.000 HD
ENDROOT
BRANCH  11  16
ATOM     16  C   UNL     1       4.949   6.202  17.101  0.00  0.00    +0.000 A 
ATOM     17  C   UNL     1       6.306   6.463  17.361  0.00  0.00    +0.000 A 
ATOM     18  C   UNL     1       7.318   5.913  16.560  0.00  0.00    +0.000 A 
ATOM     19  C   UNL     1       6.972   5.179  15.434  0.00  0.00    +0.000 A 
ATOM     20  C   UNL     1       5.638   4.920  15.161  0.00  0.00    +0.000 A 
ATOM     21  C   UNL     1       4.643   5.416  15.986  0.00  0.00    +0.000 A 
BRANCH  19  22
ATOM     22  O   UNL     1       7.901   4.710  14.550  0.00  0.00    +0.000 OA
ATOM     23  H   UNL     1       7.638   3.818  14.269  0.00  0.00    +0.000 HD
ENDBRANCH  19  22
BRANCH  20  24
ATOM     24  O   UNL     1       5.267   4.218  14.054  0.00  0.00    +0.000 OA
ATOM     25  H   UNL     1       6.094   3.832  13.711  0.00  0.00    +0.000 HD
ENDBRANCH  20  24
ENDBRANCH  11  16
BRANCH   1  26
ATOM     26  C   UNL     1      -0.006   8.361  22.136  0.00  0.00    +0.000 C 
BRANCH  26  27
ATOM     27  C   UNL     1       0.381   9.714  22.717  0.00  0.00    +0.000 C 
BRANCH  27  28
ATOM     28  C   UNL     1      -0.703  10.752  22.428  0.00  0.00    +0.000 C 
BRANCH  28  29
ATOM     29  C   UNL     1      -0.272  11.691  21.305  0.00  0.00    +0.000 C 
BRANCH  29  30
ATOM     30  C   UNL     1      -1.206  11.565  20.104  0.00  0.00    +0.000 C 
BRANCH  30  31
ATOM     31  C   UNL     1      -0.434  11.752  18.803  0.00  0.00    +0.000 C 
BRANCH  31  32
ATOM     32  N   UNL     1       0.110  10.476  18.361  0.00  0.00    +0.000 NA
ATOM     33  H   UNL     1      -0.552  10.025  17.733  0.00  0.00    +0.000 HD
ATOM     34  H   UNL     1       0.215   9.854  19.164  0.00  0.00    +0.000 HD
ENDBRANCH  31  32
ENDBRANCH  30  31
ENDBRANCH  29  30
ENDBRANCH  28  29
ENDBRANCH  27  28
ENDBRANCH  26  27
ENDBRANCH   1  26
TORSDOF 10
ENDMDL
