MODEL 1
REMARK VINA RESULT:      -9.2      0.000      0.000
REMARK  Name = 
REMARK  6 active torsions:
REMARK  status: ('A' for Active; 'I' for Inactive)
REMARK    1  A    between atoms: C_1  and  C_2
REMARK    2  A    between atoms: C_9  and  N_10
REMARK    3  A    between atoms: N_10  and  C_11
REMARK    4  A    between atoms: C_11  and  N_13
REMARK    5  A    between atoms: N_13  and  C_14
REMARK    6  A    between atoms: C_18  and  C_19
REMARK                            x       y       z     vdW  Elec       q    Type
REMARK                         _______ _______ _______ _____ _____    ______ ____
ROOT
ATOM      1  C   UNL     1       3.586   5.570  18.769  0.00  0.00    +0.000 C 
ATOM      2 SE   UNL     1       2.489   4.463  19.573  0.00  0.00    +0.000 Se
ENDROOT
BRANCH   1   3
ATOM      3  N   UNL     1       3.117   6.793  18.187  0.00  0.00    +0.000 N 
ATOM      4  H   UNL     1       3.611   7.100  17.333  0.00  0.00    +0.000 HD
BRANCH   3  13
ATOM      5  C   UNL     1      -0.852  11.881  19.676  0.00  0.00    +0.000 C 
ATOM      6  C   UNL     1      -0.192  10.786  20.473  0.00  0.00    +0.000 A 
ATOM      7  C   UNL     1      -0.351  10.763  21.865  0.00  0.00    +0.000 A 
ATOM      8  C   UNL     1       0.265   9.757  22.613  0.00  0.00    +0.000 A 
ATOM      9  O   UNL     1       0.134   9.730  23.823  0.00  0.00    +0.000 OA
ATOM     10  O   UNL     1       0.993   8.825  22.014  0.00  0.00    +0.000 OA
ATOM     11  C   UNL     1       1.179   8.794  20.700  0.00  0.00    +0.000 A 
ATOM     12  C   UNL     1       1.984   7.792  20.155  0.00  0.00    +0.000 A 
ATOM     13  C   UNL     1       2.222   7.738  18.773  0.00  0.00    +0.000 A 
ATOM     14  C   UNL     1       1.635   8.711  17.947  0.00  0.00    +0.000 A 
ATOM     15  C   UNL     1       0.825   9.717  18.479  0.00  0.00    +0.000 A 
ATOM     16  C   UNL     1       0.594   9.776  19.866  0.00  0.00    +0.000 A 
ENDBRANCH   3  13
ENDBRANCH   1   3
BRANCH   1  17
ATOM     17  N   UNL     1       4.902   5.133  18.449  0.00  0.00    +0.000 N 
ATOM     18  H   UNL     1       5.637   5.161  19.172  0.00  0.00    +0.000 HD
BRANCH  17  19
ATOM     19  C   UNL     1       5.270   4.793  17.110  0.00  0.00    +0.000 A 
ATOM     20  C   UNL     1       4.511   3.871  16.362  0.00  0.00    +0.000 A 
ATOM     21  C   UNL     1       4.835   3.573  15.043  0.00  0.00    +0.000 A 
ATOM     22  C   UNL     1       5.941   4.180  14.423  0.00  0.00    +0.000 A 
ATOM     23  C   UNL     1       6.327   3.922  13.082  0.00  0.00    +0.000 A 
ATOM     24  C   UNL     1       5.602   2.988  12.141  0.00  0.00    +0.000 C 
ATOM     25  C   UNL     1       7.457   4.578  12.577  0.00  0.00    +0.000 A 
ATOM     26  C   UNL     1       8.165   5.465  13.389  0.00  0.00    +0.000 A 
ATOM     27  O   UNL     1       9.149   6.034  12.953  0.00  0.00    +0.000 OA
ATOM     28  O   UNL     1       7.772   5.697  14.634  0.00  0.00    +0.000 OA
ATOM     29  C   UNL     1       6.713   5.106  15.177  0.00  0.00    +0.000 A 
ATOM     30  C   UNL     1       6.365   5.413  16.500  0.00  0.00    +0.000 A 
ENDBRANCH  17  19
ENDBRANCH   1  17
TORSDOF 4
ENDMDL
MODEL 2
REMARK VINA RESULT:      -8.8      4.791      9.107
REMARK  Name = 
REMARK  6 active torsions:
REMARK  status: ('A' for Active; 'I' for Inactive)
REMARK    1  A    between atoms: C_1  and  C_2
REMARK    2  A    between atoms: C_9  and  N_10
REMARK    3  A    between atoms: N_10  and  C_11
REMARK    4  A    between atoms: C_11  and  N_13
REMARK    5  A    between atoms: N_13  and  C_14
REMARK    6  A    between atoms: C_18  and  C_19
REMARK                            x       y       z     vdW  Elec       q    Type
REMARK                         _______ _______ _______ _____ _____    ______ ____
ROOT
ATOM      1  C   UNL     1       0.693   9.486  20.488  0.00  0.00    +0.000 C 
ATOM      2 SE   UNL     1      -0.130   8.928  21.932  0.00  0.00    +0.000 Se
ENDROOT
BRANCH   1   3
ATOM      3  N   UNL     1       1.877   8.838  20.007  0.00  0.00    +0.000 N 
ATOM      4  H   UNL     1       2.616   9.464  19.646  0.00  0.00    +0.000 HD
BRANCH   3  13
ATOM      5  C   UNL     1       2.506   2.756  17.462  0.00  0.00    +0.000 C 
ATOM      6  C   UNL     1       2.267   3.304  18.845  0.00  0.00    +0.000 A 
ATOM      7  C   UNL     1       2.078   2.413  19.910  0.00  0.00    +0.000 A 
ATOM      8  C   UNL     1       1.846   2.913  21.194  0.00  0.00    +0.000 A 
ATOM      9  O   UNL     1       1.679   2.146  22.125  0.00  0.00    +0.000 OA
ATOM     10  O   UNL     1       1.808   4.220  21.409  0.00  0.00    +0.000 OA
ATOM     11  C   UNL     1       1.981   5.112  20.441  0.00  0.00    +0.000 A 
ATOM     12  C   UNL     1       1.897   6.471  20.751  0.00  0.00    +0.000 A 
ATOM     13  C   UNL     1       2.053   7.444  19.752  0.00  0.00    +0.000 A 
ATOM     14  C   UNL     1       2.295   7.026  18.433  0.00  0.00    +0.000 A 
ATOM     15  C   UNL     1       2.384   5.670  18.109  0.00  0.00    +0.000 A 
ATOM     16  C   UNL     1       2.219   4.695  19.110  0.00  0.00    +0.000 A 
ENDBRANCH   3  13
ENDBRANCH   1   3
BRANCH   1  17
ATOM     17  N   UNL     1       0.349  10.753  19.938  0.00  0.00    +0.000 N 
ATOM     18  H   UNL     1       0.924  11.578  20.166  0.00  0.00    +0.000 HD
BRANCH  17  19
ATOM     19  C   UNL     1      -0.858  10.941  19.196  0.00  0.00    +0.000 A 
ATOM     20  C   UNL     1      -1.949  11.642  19.750  0.00  0.00    +0.000 A 
ATOM     21  C   UNL     1      -3.107  11.870  19.016  0.00  0.00    +0.000 A 
ATOM     22  C   UNL     1      -3.223  11.396  17.697  0.00  0.00    +0.000 A 
ATOM     23  C   UNL     1      -4.375  11.594  16.892  0.00  0.00    +0.000 A 
ATOM     24  C   UNL     1      -5.611  12.349  17.326  0.00  0.00    +0.000 C 
ATOM     25  C   UNL     1      -4.381  11.062  15.597  0.00  0.00    +0.000 A 
ATOM     26  C   UNL     1      -3.267  10.366  15.128  0.00  0.00    +0.000 A 
ATOM     27  O   UNL     1      -3.271   9.900  14.002  0.00  0.00    +0.000 OA
ATOM     28  O   UNL     1      -2.199  10.208  15.898  0.00  0.00    +0.000 OA
ATOM     29  C   UNL     1      -2.129  10.683  17.137  0.00  0.00    +0.000 A 
ATOM     30  C   UNL     1      -0.958  10.475  17.881  0.00  0.00    +0.000 A 
ENDBRANCH  17  19
ENDBRANCH   1  17
TORSDOF 4
ENDMDL
MODEL 3
REMARK VINA RESULT:      -8.8      1.364      1.991
REMARK  Name = 
REMARK  6 active torsions:
REMARK  status: ('A' for Active; 'I' for Inactive)
REMARK    1  A    between atoms: C_1  and  C_2
REMARK    2  A    between atoms: C_9  and  N_10
REMARK    3  A    between atoms: N_10  and  C_11
REMARK    4  A    between atoms: C_11  and  N_13
REMARK    5  A    between atoms: N_13  and  C_14
REMARK    6  A    between atoms: C_18  and  C_19
REMARK                            x       y       z     vdW  Elec       q    Type
REMARK                         _______ _______ _______ _____ _____    ______ ____
ROOT
ATOM      1  C   UNL     1       3.689   5.348  18.973  0.00  0.00    +0.000 C 
ATOM      2 SE   UNL     1       2.929   4.071  19.903  0.00  0.00    +0.000 Se
ENDROOT
BRANCH   1   3
ATOM      3  N   UNL     1       2.920   6.410  18.396  0.00  0.00    +0.000 N 
ATOM      4  H   UNL     1       2.999   6.514  17.371  0.00  0.00    +0.000 HD
BRANCH   3  13
ATOM      5  C   UNL     1      -0.399  10.318  22.588  0.00  0.00    +0.000 C 
ATOM      6  C   UNL     1       0.012  10.425  21.142  0.00  0.00    +0.000 A 
ATOM      7  C   UNL     1      -0.379  11.549  20.402  0.00  0.00    +0.000 A 
ATOM      8  C   UNL     1      -0.011  11.652  19.059  0.00  0.00    +0.000 A 
ATOM      9  O   UNL     1      -0.348  12.624  18.408  0.00  0.00    +0.000 OA
ATOM     10  O   UNL     1       0.707  10.698  18.484  0.00  0.00    +0.000 OA
ATOM     11  C   UNL     1       1.107   9.611  19.134  0.00  0.00    +0.000 A 
ATOM     12  C   UNL     1       1.836   8.642  18.443  0.00  0.00    +0.000 A 
ATOM     13  C   UNL     1       2.260   7.469  19.088  0.00  0.00    +0.000 A 
ATOM     14  C   UNL     1       1.935   7.289  20.443  0.00  0.00    +0.000 A 
ATOM     15  C   UNL     1       1.208   8.252  21.147  0.00  0.00    +0.000 A 
ATOM     16  C   UNL     1       0.777   9.423  20.496  0.00  0.00    +0.000 A 
ENDBRANCH   3  13
ENDBRANCH   1   3
BRANCH   1  17
ATOM     17  N   UNL     1       5.040   5.189  18.553  0.00  0.00    +0.000 N 
ATOM     18  H   UNL     1       5.805   5.431  19.201  0.00  0.00    +0.000 HD
BRANCH  17  19
ATOM     19  C   UNL     1       5.366   4.843  17.205  0.00  0.00    +0.000 A 
ATOM     20  C   UNL     1       4.574   3.932  16.478  0.00  0.00    +0.000 A 
ATOM     21  C   UNL     1       4.858   3.628  15.152  0.00  0.00    +0.000 A 
ATOM     22  C   UNL     1       5.955   4.219  14.501  0.00  0.00    +0.000 A 
ATOM     23  C   UNL     1       6.300   3.955  13.151  0.00  0.00    +0.000 A 
ATOM     24  C   UNL     1       5.536   3.030  12.230  0.00  0.00    +0.000 C 
ATOM     25  C   UNL     1       7.426   4.593  12.614  0.00  0.00    +0.000 A 
ATOM     26  C   UNL     1       8.168   5.470  13.405  0.00  0.00    +0.000 A 
ATOM     27  O   UNL     1       9.149   6.024  12.942  0.00  0.00    +0.000 OA
ATOM     28  O   UNL     1       7.814   5.708  14.661  0.00  0.00    +0.000 OA
ATOM     29  C   UNL     1       6.760   5.133  15.232  0.00  0.00    +0.000 A 
ATOM     30  C   UNL     1       6.453   5.446  16.565  0.00  0.00    +0.000 A 
ENDBRANCH  17  19
ENDBRANCH   1  17
TORSDOF 4
ENDMDL
MODEL 4
REMARK VINA RESULT:      -8.8      4.564     10.040
REMARK  Name = 
REMARK  6 active torsions:
REMARK  status: ('A' for Active; 'I' for Inactive)
REMARK    1  A    between atoms: C_1  and  C_2
REMARK    2  A    between atoms: C_9  and  N_10
REMARK    3  A    between atoms: N_10  and  C_11
REMARK    4  A    between atoms: C_11  and  N_13
REMARK    5  A    between atoms: N_13  and  C_14
REMARK    6  A    between atoms: C_18  and  C_19
REMARK                            x       y       z     vdW  Elec       q    Type
REMARK                         _______ _______ _______ _____ _____    ______ ____
ROOT
ATOM      1  C   UNL     1       0.988  10.256  18.651  0.00  0.00    +0.000 C 
ATOM      2 SE   UNL     1       2.096  11.558  18.261  0.00  0.00    +0.000 Se
ENDROOT
BRANCH   1   3
ATOM      3  N   UNL     1       1.276   9.319  19.696  0.00  0.00    +0.000 N 
ATOM      4  H   UNL     1       1.249   9.696  20.657  0.00  0.00    +0.000 HD
BRANCH   3  13
ATOM      5  C   UNL     1       3.844   3.574  17.629  0.00  0.00    +0.000 C 
ATOM      6  C   UNL     1       3.184   4.041  18.900  0.00  0.00    +0.000 A 
ATOM      7  C   UNL     1       2.974   3.124  19.938  0.00  0.00    +0.000 A 
ATOM      8  C   UNL     1       2.354   3.546  21.117  0.00  0.00    +0.000 A 
ATOM      9  O   UNL     1       2.166   2.754  22.023  0.00  0.00    +0.000 OA
ATOM     10  O   UNL     1       1.968   4.806  21.259  0.00  0.00    +0.000 OA
ATOM     11  C   UNL     1       2.140   5.720  20.311  0.00  0.00    +0.000 A 
ATOM     12  C   UNL     1       1.678   7.018  20.534  0.00  0.00    +0.000 A 
ATOM     13  C   UNL     1       1.822   8.008  19.549  0.00  0.00    +0.000 A 
ATOM     14  C   UNL     1       2.441   7.668  18.335  0.00  0.00    +0.000 A 
ATOM     15  C   UNL     1       2.910   6.373  18.100  0.00  0.00    +0.000 A 
ATOM     16  C   UNL     1       2.757   5.380  19.085  0.00  0.00    +0.000 A 
ENDBRANCH   3  13
ENDBRANCH   1   3
BRANCH   1  17
ATOM     17  N   UNL     1      -0.075   9.957  17.753  0.00  0.00    +0.000 N 
ATOM     18  H   UNL     1       0.127   9.450  16.878  0.00  0.00    +0.000 HD
BRANCH  17  19
ATOM     19  C   UNL     1      -1.394  10.468  17.961  0.00  0.00    +0.000 A 
ATOM     20  C   UNL     1      -2.484   9.992  17.204  0.00  0.00    +0.000 A 
ATOM     21  C   UNL     1      -3.776  10.450  17.435  0.00  0.00    +0.000 A 
ATOM     22  C   UNL     1      -4.028  11.412  18.429  0.00  0.00    +0.000 A 
ATOM     23  C   UNL     1      -5.321  11.921  18.717  0.00  0.00    +0.000 A 
ATOM     24  C   UNL     1      -6.592  11.491  18.019  0.00  0.00    +0.000 C 
ATOM     25  C   UNL     1      -5.446  12.889  19.721  0.00  0.00    +0.000 A 
ATOM     26  C   UNL     1      -4.315  13.320  20.414  0.00  0.00    +0.000 A 
ATOM     27  O   UNL     1      -4.421  14.164  21.285  0.00  0.00    +0.000 OA
ATOM     28  O   UNL     1      -3.121  12.816  20.132  0.00  0.00    +0.000 OA
ATOM     29  C   UNL     1      -2.931  11.899  19.189  0.00  0.00    +0.000 A 
ATOM     30  C   UNL     1      -1.634  11.416  18.960  0.00  0.00    +0.000 A 
ENDBRANCH  17  19
ENDBRANCH   1  17
TORSDOF 4
ENDMDL
MODEL 5
REMARK VINA RESULT:      -8.5      1.271      1.926
REMARK  Name = 
REMARK  6 active torsions:
REMARK  status: ('A' for Active; 'I' for Inactive)
REMARK    1  A    between atoms: C_1  and  C_2
REMARK    2  A    between atoms: C_9  and  N_10
REMARK    3  A    between atoms: N_10  and  C_11
REMARK    4  A    between atoms: C_11  and  N_13
REMARK    5  A    between atoms: N_13  and  C_14
REMARK    6  A    between atoms: C_18  and  C_19
REMARK                            x       y       z     vdW  Elec       q    Type
REMARK                         _______ _______ _______ _____ _____    ______ ____
ROOT
ATOM      1  C   UNL     1       3.775   5.125  18.764  0.00  0.00    +0.000 C 
ATOM      2 SE   UNL     1       2.793   3.947  19.615  0.00  0.00    +0.000 Se
ENDROOT
BRANCH   1   3
ATOM      3  N   UNL     1       3.181   6.221  18.058  0.00  0.00    +0.000 N 
ATOM      4  H   UNL     1       3.485   6.340  17.078  0.00  0.00    +0.000 HD
BRANCH   3  13
ATOM      5  C   UNL     1      -0.040  11.844  19.426  0.00  0.00    +0.000 C 
ATOM      6  C   UNL     1       0.414  10.661  20.240  0.00  0.00    +0.000 A 
ATOM      7  C   UNL     1       0.195  10.659  21.624  0.00  0.00    +0.000 A 
ATOM      8  C   UNL     1       0.621   9.569  22.388  0.00  0.00    +0.000 A 
ATOM      9  O   UNL     1       0.436   9.560  23.592  0.00  0.00    +0.000 OA
ATOM     10  O   UNL     1       1.226   8.540  21.812  0.00  0.00    +0.000 OA
ATOM     11  C   UNL     1       1.460   8.485  20.506  0.00  0.00    +0.000 A 
ATOM     12  C   UNL     1       2.129   7.375  19.987  0.00  0.00    +0.000 A 
ATOM     13  C   UNL     1       2.414   7.289  18.615  0.00  0.00    +0.000 A 
ATOM     14  C   UNL     1       2.015   8.341  17.774  0.00  0.00    +0.000 A 
ATOM     15  C   UNL     1       1.343   9.456  18.281  0.00  0.00    +0.000 A 
ATOM     16  C   UNL     1       1.065   9.545  19.657  0.00  0.00    +0.000 A 
ENDBRANCH   3  13
ENDBRANCH   1   3
BRANCH   1  17
ATOM     17  N   UNL     1       5.152   4.846  18.537  0.00  0.00    +0.000 N 
ATOM     18  H   UNL     1       5.778   4.687  19.342  0.00  0.00    +0.000 HD
BRANCH  17  19
ATOM     19  C   UNL     1       5.724   4.924  17.230  0.00  0.00    +0.000 A 
ATOM     20  C   UNL     1       6.841   5.744  16.974  0.00  0.00    +0.000 A 
ATOM     21  C   UNL     1       7.431   5.787  15.716  0.00  0.00    +0.000 A 
ATOM     22  C   UNL     1       6.918   5.016  14.658  0.00  0.00    +0.000 A 
ATOM     23  C   UNL     1       7.471   5.012  13.351  0.00  0.00    +0.000 A 
ATOM     24  C   UNL     1       8.684   5.809  12.926  0.00  0.00    +0.000 C 
ATOM     25  C   UNL     1       6.865   4.213  12.374  0.00  0.00    +0.000 A 
ATOM     26  C   UNL     1       5.750   3.441  12.704  0.00  0.00    +0.000 A 
ATOM     27  O   UNL     1       5.220   2.748  11.855  0.00  0.00    +0.000 OA
ATOM     28  O   UNL     1       5.263   3.454  13.937  0.00  0.00    +0.000 OA
ATOM     29  C   UNL     1       5.787   4.193  14.910  0.00  0.00    +0.000 A 
ATOM     30  C   UNL     1       5.212   4.143  16.188  0.00  0.00    +0.000 A 
ENDBRANCH  17  19
ENDBRANCH   1  17
TORSDOF 4
ENDMDL
MODEL 6
REMARK VINA RESULT:      -8.5      1.876      2.629
REMARK  Name = 
REMARK  6 active torsions:
REMARK  status: ('A' for Active; 'I' for Inactive)
REMARK    1  A    between atoms: C_1  and  C_2
REMARK    2  A    between atoms: C_9  and  N_10
REMARK    3  A    between atoms: N_10  and  C_11
REMARK    4  A    between atoms: C_11  and  N_13
REMARK    5  A    between atoms: N_13  and  C_14
REMARK    6  A    between atoms: C_18  and  C_19
REMARK                            x       y       z     vdW  Elec       q    Type
REMARK                         _______ _______ _______ _____ _____    ______ ____
ROOT
ATOM      1  C   UNL     1       2.174   3.808  20.643  0.00  0.00    +0.000 C 
ATOM      2 SE   UNL     1       0.665   3.170  20.018  0.00  0.00    +0.000 Se
ENDROOT
BRANCH   1   3
ATOM      3  N   UNL     1       2.236   5.091  21.277  0.00  0.00    +0.000 N 
ATOM      4  H   UNL     1       2.385   5.080  22.299  0.00  0.00    +0.000 HD
BRANCH   3  13
ATOM      5  C   UNL     1       1.744  10.706  17.798  0.00  0.00    +0.000 C 
ATOM      6  C   UNL     1       1.153  10.207  19.092  0.00  0.00    +0.000 A 
ATOM      7  C   UNL     1       0.326  11.058  19.837  0.00  0.00    +0.000 A 
ATOM      8  C   UNL     1      -0.219  10.607  21.042  0.00  0.00    +0.000 A 
ATOM      9  O   UNL     1      -0.937  11.341  21.698  0.00  0.00    +0.000 OA
ATOM     10  O   UNL     1       0.039   9.383  21.480  0.00  0.00    +0.000 OA
ATOM     11  C   UNL     1       0.813   8.533  20.817  0.00  0.00    +0.000 A 
ATOM     12  C   UNL     1       1.054   7.272  21.365  0.00  0.00    +0.000 A 
ATOM     13  C   UNL     1       1.885   6.351  20.705  0.00  0.00    +0.000 A 
ATOM     14  C   UNL     1       2.469   6.723  19.483  0.00  0.00    +0.000 A 
ATOM     15  C   UNL     1       2.234   7.981  18.923  0.00  0.00    +0.000 A 
ATOM     16  C   UNL     1       1.409   8.906  19.589  0.00  0.00    +0.000 A 
ENDBRANCH   3  13
ENDBRANCH   1   3
BRANCH   1  17
ATOM     17  N   UNL     1       3.397   3.176  20.280  0.00  0.00    +0.000 N 
ATOM     18  H   UNL     1       3.860   2.543  20.950  0.00  0.00    +0.000 HD
BRANCH  17  19
ATOM     19  C   UNL     1       4.078   3.509  19.069  0.00  0.00    +0.000 A 
ATOM     20  C   UNL     1       3.810   2.815  17.872  0.00  0.00    +0.000 A 
ATOM     21  C   UNL     1       4.433   3.166  16.680  0.00  0.00    +0.000 A 
ATOM     22  C   UNL     1       5.360   4.223  16.641  0.00  0.00    +0.000 A 
ATOM     23  C   UNL     1       6.030   4.634  15.460  0.00  0.00    +0.000 A 
ATOM     24  C   UNL     1       5.830   4.015  14.094  0.00  0.00    +0.000 C 
ATOM     25  C   UNL     1       6.943   5.692  15.546  0.00  0.00    +0.000 A 
ATOM     26  C   UNL     1       7.165   6.318  16.774  0.00  0.00    +0.000 A 
ATOM     27  O   UNL     1       7.960   7.237  16.852  0.00  0.00    +0.000 OA
ATOM     28  O   UNL     1       6.513   5.922  17.858  0.00  0.00    +0.000 OA
ATOM     29  C   UNL     1       5.638   4.921  17.846  0.00  0.00    +0.000 A 
ATOM     30  C   UNL     1       4.989   4.570  19.040  0.00  0.00    +0.000 A 
ENDBRANCH  17  19
ENDBRANCH   1  17
TORSDOF 4
ENDMDL
MODEL 7
REMARK VINA RESULT:      -8.5      4.678      9.962
REMARK  Name = 
REMARK  6 active torsions:
REMARK  status: ('A' for Active; 'I' for Inactive)
REMARK    1  A    between atoms: C_1  and  C_2
REMARK    2  A    between atoms: C_9  and  N_10
REMARK    3  A    between atoms: N_10  and  C_11
REMARK    4  A    between atoms: C_11  and  N_13
REMARK    5  A    between atoms: N_13  and  C_14
REMARK    6  A    between atoms: C_18  and  C_19
REMARK                            x       y       z     vdW  Elec       q    Type
REMARK                         _______ _______ _______ _____ _____    ______ ____
ROOT
ATOM      1  C   UNL     1       1.085   9.407  19.223  0.00  0.00    +0.000 C 
ATOM      2 SE   UNL     1       0.623   9.608  20.902  0.00  0.00    +0.000 Se
ENDROOT
BRANCH   1   3
ATOM      3  N   UNL     1       2.221   8.617  18.851  0.00  0.00    +0.000 N 
ATOM      4  H   UNL     1       2.954   9.111  18.315  0.00  0.00    +0.000 HD
BRANCH   3  13
ATOM      5  C   UNL     1       2.773   2.105  17.782  0.00  0.00    +0.000 C 
ATOM      6  C   UNL     1       2.423   2.955  18.976  0.00  0.00    +0.000 A 
ATOM      7  C   UNL     1       2.078   2.330  20.181  0.00  0.00    +0.000 A 
ATOM      8  C   UNL     1       1.744   3.110  21.291  0.00  0.00    +0.000 A 
ATOM      9  O   UNL     1       1.440   2.575  22.342  0.00  0.00    +0.000 OA
ATOM     10  O   UNL     1       1.756   4.433  21.210  0.00  0.00    +0.000 OA
ATOM     11  C   UNL     1       2.076   5.081  20.096  0.00  0.00    +0.000 A 
ATOM     12  C   UNL     1       2.035   6.476  20.092  0.00  0.00    +0.000 A 
ATOM     13  C   UNL     1       2.346   7.197  18.928  0.00  0.00    +0.000 A 
ATOM     14  C   UNL     1       2.698   6.489  17.767  0.00  0.00    +0.000 A 
ATOM     15  C   UNL     1       2.745   5.092  17.760  0.00  0.00    +0.000 A 
ATOM     16  C   UNL     1       2.425   4.370  18.924  0.00  0.00    +0.000 A 
ENDBRANCH   3  13
ENDBRANCH   1   3
BRANCH   1  17
ATOM     17  N   UNL     1       0.498  10.249  18.236  0.00  0.00    +0.000 N 
ATOM     18  H   UNL     1       1.095  10.666  17.505  0.00  0.00    +0.000 HD
BRANCH  17  19
ATOM     19  C   UNL     1      -0.871  10.650  18.316  0.00  0.00    +0.000 A 
ATOM     20  C   UNL     1      -1.857  10.024  17.528  0.00  0.00    +0.000 A 
ATOM     21  C   UNL     1      -3.198  10.376  17.637  0.00  0.00    +0.000 A 
ATOM     22  C   UNL     1      -3.603  11.380  18.534  0.00  0.00    +0.000 A 
ATOM     23  C   UNL     1      -4.953  11.788  18.696  0.00  0.00    +0.000 A 
ATOM     24  C   UNL     1      -6.128  11.195  17.951  0.00  0.00    +0.000 C 
ATOM     25  C   UNL     1      -5.235  12.809  19.612  0.00  0.00    +0.000 A 
ATOM     26  C   UNL     1      -4.198  13.390  20.343  0.00  0.00    +0.000 A 
ATOM     27  O   UNL     1      -4.440  14.280  21.138  0.00  0.00    +0.000 OA
ATOM     28  O   UNL     1      -2.947  12.979  20.181  0.00  0.00    +0.000 OA
ATOM     29  C   UNL     1      -2.611  12.018  19.326  0.00  0.00    +0.000 A 
ATOM     30  C   UNL     1      -1.264  11.641  19.221  0.00  0.00    +0.000 A 
ENDBRANCH  17  19
ENDBRANCH   1  17
TORSDOF 4
ENDMDL
MODEL 8
REMARK VINA RESULT:      -8.5      3.659     10.451
REMARK  Name = 
REMARK  6 active torsions:
REMARK  status: ('A' for Active; 'I' for Inactive)
REMARK    1  A    between atoms: C_1  and  C_2
REMARK    2  A    between atoms: C_9  and  N_10
REMARK    3  A    between atoms: N_10  and  C_11
REMARK    4  A    between atoms: C_11  and  N_13
REMARK    5  A    between atoms: N_13  and  C_14
REMARK    6  A    between atoms: C_18  and  C_19
REMARK                            x       y       z     vdW  Elec       q    Type
REMARK                         _______ _______ _______ _____ _____    ______ ____
ROOT
ATOM      1  C   UNL     1       0.829  10.479  18.646  0.00  0.00    +0.000 C 
ATOM      2 SE   UNL     1       1.841  11.907  18.544  0.00  0.00    +0.000 Se
ENDROOT
BRANCH   1   3
ATOM      3  N   UNL     1       1.178   9.375  19.491  0.00  0.00    +0.000 N 
ATOM      4  H   UNL     1       1.005   9.511  20.500  0.00  0.00    +0.000 HD
BRANCH   3  13
ATOM      5  C   UNL     1       4.596   3.710  19.210  0.00  0.00    +0.000 C 
ATOM      6  C   UNL     1       4.455   4.906  18.305  0.00  0.00    +0.000 A 
ATOM      7  C   UNL     1       5.204   4.959  17.122  0.00  0.00    +0.000 A 
ATOM      8  C   UNL     1       5.086   6.069  16.281  0.00  0.00    +0.000 A 
ATOM      9  O   UNL     1       5.735   6.125  15.252  0.00  0.00    +0.000 OA
ATOM     10  O   UNL     1       4.270   7.065  16.594  0.00  0.00    +0.000 OA
ATOM     11  C   UNL     1       3.535   7.069  17.699  0.00  0.00    +0.000 A 
ATOM     12  C   UNL     1       2.722   8.173  17.964  0.00  0.00    +0.000 A 
ATOM     13  C   UNL     1       1.945   8.226  19.133  0.00  0.00    +0.000 A 
ATOM     14  C   UNL     1       2.001   7.147  20.031  0.00  0.00    +0.000 A 
ATOM     15  C   UNL     1       2.809   6.036  19.776  0.00  0.00    +0.000 A 
ATOM     16  C   UNL     1       3.593   5.988  18.609  0.00  0.00    +0.000 A 
ENDBRANCH   3  13
ENDBRANCH   1   3
BRANCH   1  17
ATOM     17  N   UNL     1      -0.203  10.289  17.684  0.00  0.00    +0.000 N 
ATOM     18  H   UNL     1       0.042   9.970  16.734  0.00  0.00    +0.000 HD
BRANCH  17  19
ATOM     19  C   UNL     1      -1.553  10.670  17.953  0.00  0.00    +0.000 A 
ATOM     20  C   UNL     1      -2.630  10.029  17.306  0.00  0.00    +0.000 A 
ATOM     21  C   UNL     1      -3.947  10.361  17.600  0.00  0.00    +0.000 A 
ATOM     22  C   UNL     1      -4.240  11.358  18.548  0.00  0.00    +0.000 A 
ATOM     23  C   UNL     1      -5.561  11.745  18.896  0.00  0.00    +0.000 A 
ATOM     24  C   UNL     1      -6.818  11.135  18.319  0.00  0.00    +0.000 C 
ATOM     25  C   UNL     1      -5.728  12.760  19.845  0.00  0.00    +0.000 A 
ATOM     26  C   UNL     1      -4.609  13.356  20.428  0.00  0.00    +0.000 A 
ATOM     27  O   UNL     1      -4.753  14.242  21.251  0.00  0.00    +0.000 OA
ATOM     28  O   UNL     1      -3.387  12.965  20.094  0.00  0.00    +0.000 OA
ATOM     29  C   UNL     1      -3.158  12.010  19.197  0.00  0.00    +0.000 A 
ATOM     30  C   UNL     1      -1.833  11.654  18.906  0.00  0.00    +0.000 A 
ENDBRANCH  17  19
ENDBRANCH   1  17
TORSDOF 4
ENDMDL
MODEL 9
REMARK VINA RESULT:      -8.4      3.648     11.239
REMARK  Name = 
REMARK  6 active torsions:
REMARK  status: ('A' for Active; 'I' for Inactive)
REMARK    1  A    between atoms: C_1  and  C_2
REMARK    2  A    between atoms: C_9  and  N_10
REMARK    3  A    between atoms: N_10  and  C_11
REMARK    4  A    between atoms: C_11  and  N_13
REMARK    5  A    between atoms: N_13  and  C_14
REMARK    6  A    between atoms: C_18  and  C_19
REMARK                            x       y       z     vdW  Elec       q    Type
REMARK                         _______ _______ _______ _____ _____    ______ ____
ROOT
ATOM      1  C   UNL     1       0.469  10.141  20.073  0.00  0.00    +0.000 C 
ATOM      2 SE   UNL     1      -0.664  10.693  18.854  0.00  0.00    +0.000 Se
ENDROOT
BRANCH   1   3
ATOM      3  N   UNL     1       0.786   8.752  20.223  0.00  0.00    +0.000 N 
ATOM      4  H   UNL     1       0.342   8.275  21.025  0.00  0.00    +0.000 HD
BRANCH   3  13
ATOM      5  C   UNL     1       5.152   6.170  15.964  0.00  0.00    +0.000 C 
ATOM      6  C   UNL     1       4.622   5.761  17.314  0.00  0.00    +0.000 A 
ATOM      7  C   UNL     1       5.051   4.552  17.878  0.00  0.00    +0.000 A 
ATOM      8  C   UNL     1       4.558   4.161  19.125  0.00  0.00    +0.000 A 
ATOM      9  O   UNL     1       4.923   3.111  19.622  0.00  0.00    +0.000 OA
ATOM     10  O   UNL     1       3.693   4.926  19.776  0.00  0.00    +0.000 OA
ATOM     11  C   UNL     1       3.252   6.081  19.293  0.00  0.00    +0.000 A 
ATOM     12  C   UNL     1       2.319   6.810  20.033  0.00  0.00    +0.000 A 
ATOM     13  C   UNL     1       1.812   8.025  19.547  0.00  0.00    +0.000 A 
ATOM     14  C   UNL     1       2.261   8.495  18.301  0.00  0.00    +0.000 A 
ATOM     15  C   UNL     1       3.196   7.776  17.552  0.00  0.00    +0.000 A 
ATOM     16  C   UNL     1       3.696   6.554  18.036  0.00  0.00    +0.000 A 
ENDBRANCH   3  13
ENDBRANCH   1   3
BRANCH   1  17
ATOM     17  N   UNL     1       0.872  11.039  21.102  0.00  0.00    +0.000 N 
ATOM     18  H   UNL     1       1.831  10.980  21.480  0.00  0.00    +0.000 HD
BRANCH  17  19
ATOM     19  C   UNL     1      -0.060  11.922  21.728  0.00  0.00    +0.000 A 
ATOM     20  C   UNL     1       0.083  13.321  21.623  0.00  0.00    +0.000 A 
ATOM     21  C   UNL     1      -0.847  14.185  22.189  0.00  0.00    +0.000 A 
ATOM     22  C   UNL     1      -1.955  13.682  22.894  0.00  0.00    +0.000 A 
ATOM     23  C   UNL     1      -2.941  14.507  23.494  0.00  0.00    +0.000 A 
ATOM     24  C   UNL     1      -2.949  16.018  23.445  0.00  0.00    +0.000 C 
ATOM     25  C   UNL     1      -3.994  13.892  24.183  0.00  0.00    +0.000 A 
ATOM     26  C   UNL     1      -4.055  12.499  24.256  0.00  0.00    +0.000 A 
ATOM     27  O   UNL     1      -4.968  11.962  24.856  0.00  0.00    +0.000 OA
ATOM     28  O   UNL     1      -3.127  11.754  23.672  0.00  0.00    +0.000 OA
ATOM     29  C   UNL     1      -2.099  12.273  23.008  0.00  0.00    +0.000 A 
ATOM     30  C   UNL     1      -1.165  11.411  22.416  0.00  0.00    +0.000 A 
ENDBRANCH  17  19
ENDBRANCH   1  17
TORSDOF 4
ENDMDL
