MODEL 1
REMARK VINA RESULT:      -7.7      0.000      0.000
REMARK  Name = 
REMARK  6 active torsions:
REMARK  status: ('A' for Active; 'I' for Inactive)
REMARK    1  A    between atoms: C_1  and  O_2
REMARK    2  A    between atoms: O_2  and  C_3
REMARK    3  A    between atoms: C_6  and  C_7
REMARK    4  A    between atoms: C_8  and  C_9
REMARK    5  A    between atoms: N_14  and  C_15
REMARK    6  A    between atoms: N_18  and  C_19
REMARK                            x       y       z     vdW  Elec       q    Type
REMARK                         _______ _______ _______ _____ _____    ______ ____
ROOT
ATOM      1  C   UNL     1       1.536   8.259  20.209  0.00  0.00    +0.000 A 
ATOM      2  N   UNL     1       1.214   8.516  21.464  0.00  0.00    +0.000 NA
ATOM      3  C   UNL     1       0.399   9.624  21.428  0.00  0.00    +0.000 A 
ATOM      4  C   UNL     1      -0.201  10.327  22.538  0.00  0.00    +0.000 A 
ATOM      5  O   UNL     1      -0.030   9.984  23.703  0.00  0.00    +0.000 OA
ATOM      6  N   UNL     1      -0.984  11.426  22.168  0.00  0.00    +0.000 N 
ATOM      7  C   UNL     1      -1.630  12.191  23.216  0.00  0.00    +0.000 C 
ATOM      8  C   UNL     1      -1.213  11.859  20.870  0.00  0.00    +0.000 A 
ATOM      9  O   UNL     1      -1.908  12.817  20.563  0.00  0.00    +0.000 OA
ATOM     10  N   UNL     1      -0.575  11.115  19.809  0.00  0.00    +0.000 N 
ATOM     11  C   UNL     1      -0.785  11.527  18.416  0.00  0.00    +0.000 C 
ATOM     12  C   UNL     1       0.208  10.029  20.139  0.00  0.00    +0.000 A 
ATOM     13  N   UNL     1       0.929   9.167  19.364  0.00  0.00    +0.000 N 
ATOM     14  H   UNL     1       1.029   9.188  18.361  0.00  0.00    +0.000 HD
ENDROOT
BRANCH   1  16
ATOM     15  C   UNL     1       2.761   7.362  18.352  0.00  0.00    +0.000 C 
ATOM     16  C   UNL     1       2.385   7.276  19.639  0.00  0.00    +0.000 C 
BRANCH  15  20
ATOM     17  C   UNL     1       5.144   4.470  16.244  0.00  0.00    +0.000 A 
ATOM     18  C   UNL     1       5.434   5.832  16.178  0.00  0.00    +0.000 A 
ATOM     19  C   UNL     1       4.662   6.760  16.886  0.00  0.00    +0.000 A 
ATOM     20  C   UNL     1       3.563   6.344  17.648  0.00  0.00    +0.000 A 
ATOM     21  C   UNL     1       3.286   4.973  17.717  0.00  0.00    +0.000 A 
ATOM     22  C   UNL     1       4.064   4.042  17.014  0.00  0.00    +0.000 A 
BRANCH  17  24
ATOM     23  C   UNL     1       6.644   4.295  14.426  0.00  0.00    +0.000 C 
ATOM     24  O   UNL     1       5.952   3.660  15.495  0.00  0.00    +0.000 OA
ENDBRANCH  17  24
ENDBRANCH  15  20
ENDBRANCH   1  16
TORSDOF 3
ENDMDL
MODEL 2
REMARK VINA RESULT:      -7.7      0.810      1.368
REMARK  Name = 
REMARK  6 active torsions:
REMARK  status: ('A' for Active; 'I' for Inactive)
REMARK    1  A    between atoms: C_1  and  O_2
REMARK    2  A    between atoms: O_2  and  C_3
REMARK    3  A    between atoms: C_6  and  C_7
REMARK    4  A    between atoms: C_8  and  C_9
REMARK    5  A    between atoms: N_14  and  C_15
REMARK    6  A    between atoms: N_18  and  C_19
REMARK                            x       y       z     vdW  Elec       q    Type
REMARK                         _______ _______ _______ _____ _____    ______ ____
ROOT
ATOM      1  C   UNL     1       1.430   9.022  18.746  0.00  0.00    +0.000 A 
ATOM      2  N   UNL     1       1.355   9.045  20.065  0.00  0.00    +0.000 NA
ATOM      3  C   UNL     1       0.494  10.072  20.379  0.00  0.00    +0.000 A 
ATOM      4  C   UNL     1       0.096  10.533  21.688  0.00  0.00    +0.000 A 
ATOM      5  O   UNL     1       0.516  10.022  22.721  0.00  0.00    +0.000 OA
ATOM      6  N   UNL     1      -0.800  11.607  21.672  0.00  0.00    +0.000 N 
ATOM      7  C   UNL     1      -1.259  12.136  22.942  0.00  0.00    +0.000 C 
ATOM      8  C   UNL     1      -1.308  12.223  20.537  0.00  0.00    +0.000 A 
ATOM      9  O   UNL     1      -2.099  13.157  20.541  0.00  0.00    +0.000 OA
ATOM     10  N   UNL     1      -0.860  11.717  19.261  0.00  0.00    +0.000 N 
ATOM     11  C   UNL     1      -1.368  12.329  18.028  0.00  0.00    +0.000 C 
ATOM     12  C   UNL     1       0.027  10.662  19.241  0.00  0.00    +0.000 A 
ATOM     13  N   UNL     1       0.620  10.000  18.205  0.00  0.00    +0.000 N 
ATOM     14  H   UNL     1       0.514  10.191  17.220  0.00  0.00    +0.000 HD
ENDROOT
BRANCH   1  16
ATOM     15  C   UNL     1       2.819   7.117  18.308  0.00  0.00    +0.000 C 
ATOM     16  C   UNL     1       2.194   8.219  17.862  0.00  0.00    +0.000 C 
BRANCH  15  20
ATOM     17  C   UNL     1       5.378   4.572  15.970  0.00  0.00    +0.000 A 
ATOM     18  C   UNL     1       4.387   4.040  16.795  0.00  0.00    +0.000 A 
ATOM     19  C   UNL     1       3.548   4.882  17.534  0.00  0.00    +0.000 A 
ATOM     20  C   UNL     1       3.707   6.273  17.487  0.00  0.00    +0.000 A 
ATOM     21  C   UNL     1       4.699   6.798  16.649  0.00  0.00    +0.000 A 
ATOM     22  C   UNL     1       5.534   5.955  15.902  0.00  0.00    +0.000 A 
BRANCH  17  24
ATOM     23  C   UNL     1       6.277   3.846  13.908  0.00  0.00    +0.000 C 
ATOM     24  O   UNL     1       6.151   3.655  15.313  0.00  0.00    +0.000 OA
ENDBRANCH  17  24
ENDBRANCH  15  20
ENDBRANCH   1  16
TORSDOF 3
ENDMDL
MODEL 3
REMARK VINA RESULT:      -7.7      1.046      1.187
REMARK  Name = 
REMARK  6 active torsions:
REMARK  status: ('A' for Active; 'I' for Inactive)
REMARK    1  A    between atoms: C_1  and  O_2
REMARK    2  A    between atoms: O_2  and  C_3
REMARK    3  A    between atoms: C_6  and  C_7
REMARK    4  A    between atoms: C_8  and  C_9
REMARK    5  A    between atoms: N_14  and  C_15
REMARK    6  A    between atoms: N_18  and  C_19
REMARK                            x       y       z     vdW  Elec       q    Type
REMARK                         _______ _______ _______ _____ _____    ______ ____
ROOT
ATOM      1  C   UNL     1       1.414   9.103  18.646  0.00  0.00    +0.000 A 
ATOM      2  N   UNL     1       1.365   9.397  19.932  0.00  0.00    +0.000 NA
ATOM      3  C   UNL     1       0.303  10.259  20.085  0.00  0.00    +0.000 A 
ATOM      4  C   UNL     1      -0.160  10.899  21.294  0.00  0.00    +0.000 A 
ATOM      5  O   UNL     1       0.387  10.729  22.379  0.00  0.00    +0.000 OA
ATOM      6  N   UNL     1      -1.274  11.725  21.117  0.00  0.00    +0.000 N 
ATOM      7  C   UNL     1      -1.812  12.409  22.278  0.00  0.00    +0.000 C 
ATOM      8  C   UNL     1      -1.933  11.954  19.918  0.00  0.00    +0.000 A 
ATOM      9  O   UNL     1      -2.913  12.673  19.782  0.00  0.00    +0.000 OA
ATOM     10  N   UNL     1      -1.411  11.288  18.747  0.00  0.00    +0.000 N 
ATOM     11  C   UNL     1      -2.071  11.492  17.452  0.00  0.00    +0.000 C 
ATOM     12  C   UNL     1      -0.310  10.471  18.885  0.00  0.00    +0.000 A 
ATOM     13  N   UNL     1       0.393   9.741  17.970  0.00  0.00    +0.000 N 
ATOM     14  H   UNL     1       0.224   9.684  16.978  0.00  0.00    +0.000 HD
ENDROOT
BRANCH   1  16
ATOM     15  C   UNL     1       2.528   7.022  18.221  0.00  0.00    +0.000 C 
ATOM     16  C   UNL     1       2.319   8.309  17.897  0.00  0.00    +0.000 C 
BRANCH  15  20
ATOM     17  C   UNL     1       5.441   4.551  16.247  0.00  0.00    +0.000 A 
ATOM     18  C   UNL     1       5.559   5.941  16.256  0.00  0.00    +0.000 A 
ATOM     19  C   UNL     1       4.614   6.731  16.920  0.00  0.00    +0.000 A 
ATOM     20  C   UNL     1       3.514   6.146  17.561  0.00  0.00    +0.000 A 
ATOM     21  C   UNL     1       3.410   4.749  17.555  0.00  0.00    +0.000 A 
ATOM     22  C   UNL     1       4.361   3.957  16.895  0.00  0.00    +0.000 A 
BRANCH  17  24
ATOM     23  C   UNL     1       6.354   4.016  14.132  0.00  0.00    +0.000 C 
ATOM     24  O   UNL     1       6.410   3.884  15.549  0.00  0.00    +0.000 OA
ENDBRANCH  17  24
ENDBRANCH  15  20
ENDBRANCH   1  16
TORSDOF 3
ENDMDL
MODEL 4
REMARK VINA RESULT:      -7.7      7.785      9.198
REMARK  Name = 
REMARK  6 active torsions:
REMARK  status: ('A' for Active; 'I' for Inactive)
REMARK    1  A    between atoms: C_1  and  O_2
REMARK    2  A    between atoms: O_2  and  C_3
REMARK    3  A    between atoms: C_6  and  C_7
REMARK    4  A    between atoms: C_8  and  C_9
REMARK    5  A    between atoms: N_14  and  C_15
REMARK    6  A    between atoms: N_18  and  C_19
REMARK                            x       y       z     vdW  Elec       q    Type
REMARK                         _______ _______ _______ _____ _____    ______ ____
ROOT
ATOM      1  C   UNL     1       9.427  10.918  18.462  0.00  0.00    +0.000 A 
ATOM      2  N   UNL     1      10.442  11.370  17.748  0.00  0.00    +0.000 NA
ATOM      3  C   UNL     1      10.408  12.740  17.863  0.00  0.00    +0.000 A 
ATOM      4  C   UNL     1      11.284  13.710  17.248  0.00  0.00    +0.000 A 
ATOM      5  O   UNL     1      12.208  13.385  16.509  0.00  0.00    +0.000 OA
ATOM      6  N   UNL     1      10.985  15.039  17.565  0.00  0.00    +0.000 N 
ATOM      7  C   UNL     1      11.815  16.083  16.995  0.00  0.00    +0.000 C 
ATOM      8  C   UNL     1       9.956  15.464  18.393  0.00  0.00    +0.000 A 
ATOM      9  O   UNL     1       9.714  16.631  18.668  0.00  0.00    +0.000 OA
ATOM     10  N   UNL     1       9.113  14.441  18.967  0.00  0.00    +0.000 N 
ATOM     11  C   UNL     1       8.011  14.834  19.854  0.00  0.00    +0.000 C 
ATOM     12  C   UNL     1       9.377  13.121  18.671  0.00  0.00    +0.000 A 
ATOM     13  N   UNL     1       8.752  11.969  19.051  0.00  0.00    +0.000 N 
ATOM     14  H   UNL     1       7.935  11.883  19.636  0.00  0.00    +0.000 HD
ENDROOT
BRANCH   1  16
ATOM     15  C   UNL     1       8.215   8.984  17.725  0.00  0.00    +0.000 C 
ATOM     16  C   UNL     1       8.937   9.604  18.673  0.00  0.00    +0.000 C 
BRANCH  15  20
ATOM     17  C   UNL     1       6.304   5.156  18.153  0.00  0.00    +0.000 A 
ATOM     18  C   UNL     1       5.793   6.127  17.291  0.00  0.00    +0.000 A 
ATOM     19  C   UNL     1       6.438   7.361  17.147  0.00  0.00    +0.000 A 
ATOM     20  C   UNL     1       7.589   7.658  17.888  0.00  0.00    +0.000 A 
ATOM     21  C   UNL     1       8.099   6.673  18.743  0.00  0.00    +0.000 A 
ATOM     22  C   UNL     1       7.458   5.434  18.882  0.00  0.00    +0.000 A 
BRANCH  17  24
ATOM     23  C   UNL     1       4.496   4.006  19.153  0.00  0.00    +0.000 C 
ATOM     24  O   UNL     1       5.579   3.998  18.229  0.00  0.00    +0.000 OA
ENDBRANCH  17  24
ENDBRANCH  15  20
ENDBRANCH   1  16
TORSDOF 3
ENDMDL
MODEL 5
REMARK VINA RESULT:      -7.7      7.921      9.320
REMARK  Name = 
REMARK  6 active torsions:
REMARK  status: ('A' for Active; 'I' for Inactive)
REMARK    1  A    between atoms: C_1  and  O_2
REMARK    2  A    between atoms: O_2  and  C_3
REMARK    3  A    between atoms: C_6  and  C_7
REMARK    4  A    between atoms: C_8  and  C_9
REMARK    5  A    between atoms: N_14  and  C_15
REMARK    6  A    between atoms: N_18  and  C_19
REMARK                            x       y       z     vdW  Elec       q    Type
REMARK                         _______ _______ _______ _____ _____    ______ ____
ROOT
ATOM      1  C   UNL     1       9.479  10.943  18.612  0.00  0.00    +0.000 A 
ATOM      2  N   UNL     1      10.360  11.393  17.737  0.00  0.00    +0.000 NA
ATOM      3  C   UNL     1      10.467  12.745  17.968  0.00  0.00    +0.000 A 
ATOM      4  C   UNL     1      11.278  13.709  17.262  0.00  0.00    +0.000 A 
ATOM      5  O   UNL     1      11.997  13.398  16.318  0.00  0.00    +0.000 OA
ATOM      6  N   UNL     1      11.165  15.018  17.742  0.00  0.00    +0.000 N 
ATOM      7  C   UNL     1      11.946  16.056  17.095  0.00  0.00    +0.000 C 
ATOM      8  C   UNL     1      10.370  15.428  18.802  0.00  0.00    +0.000 A 
ATOM      9  O   UNL     1      10.290  16.577  19.216  0.00  0.00    +0.000 OA
ATOM     10  N   UNL     1       9.580  14.413  19.458  0.00  0.00    +0.000 N 
ATOM     11  C   UNL     1       8.722  14.790  20.588  0.00  0.00    +0.000 C 
ATOM     12  C   UNL     1       9.662  13.114  19.006  0.00  0.00    +0.000 A 
ATOM     13  N   UNL     1       9.033  11.974  19.416  0.00  0.00    +0.000 N 
ATOM     14  H   UNL     1       8.350  11.886  20.152  0.00  0.00    +0.000 HD
ENDROOT
BRANCH   1  16
ATOM     15  C   UNL     1       8.299   9.012  17.818  0.00  0.00    +0.000 C 
ATOM     16  C   UNL     1       8.933   9.650  18.816  0.00  0.00    +0.000 C 
BRANCH  15  20
ATOM     17  C   UNL     1       6.410   5.177  18.279  0.00  0.00    +0.000 A 
ATOM     18  C   UNL     1       7.566   5.503  18.987  0.00  0.00    +0.000 A 
ATOM     19  C   UNL     1       8.158   6.763  18.842  0.00  0.00    +0.000 A 
ATOM     20  C   UNL     1       7.622   7.709  17.959  0.00  0.00    +0.000 A 
ATOM     21  C   UNL     1       6.455   7.376  17.261  0.00  0.00    +0.000 A 
ATOM     22  C   UNL     1       5.857   6.116  17.411  0.00  0.00    +0.000 A 
BRANCH  17  24
ATOM     23  C   UNL     1       4.545   3.724  18.226  0.00  0.00    +0.000 C 
ATOM     24  O   UNL     1       5.933   3.911  18.483  0.00  0.00    +0.000 OA
ENDBRANCH  17  24
ENDBRANCH  15  20
ENDBRANCH   1  16
TORSDOF 3
ENDMDL
MODEL 6
REMARK VINA RESULT:      -7.6      1.140      2.298
REMARK  Name = 
REMARK  6 active torsions:
REMARK  status: ('A' for Active; 'I' for Inactive)
REMARK    1  A    between atoms: C_1  and  O_2
REMARK    2  A    between atoms: O_2  and  C_3
REMARK    3  A    between atoms: C_6  and  C_7
REMARK    4  A    between atoms: C_8  and  C_9
REMARK    5  A    between atoms: N_14  and  C_15
REMARK    6  A    between atoms: N_18  and  C_19
REMARK                            x       y       z     vdW  Elec       q    Type
REMARK                         _______ _______ _______ _____ _____    ______ ____
ROOT
ATOM      1  C   UNL     1       1.438   9.250  18.668  0.00  0.00    +0.000 A 
ATOM      2  N   UNL     1       0.769  10.341  18.340  0.00  0.00    +0.000 NA
ATOM      3  C   UNL     1       0.192  10.797  19.503  0.00  0.00    +0.000 A 
ATOM      4  C   UNL     1      -0.667  11.944  19.683  0.00  0.00    +0.000 A 
ATOM      5  O   UNL     1      -0.994  12.673  18.752  0.00  0.00    +0.000 OA
ATOM      6  N   UNL     1      -1.094  12.142  21.000  0.00  0.00    +0.000 N 
ATOM      7  C   UNL     1      -1.959  13.273  21.277  0.00  0.00    +0.000 C 
ATOM      8  C   UNL     1      -0.759  11.352  22.090  0.00  0.00    +0.000 A 
ATOM      9  O   UNL     1      -1.133  11.546  23.238  0.00  0.00    +0.000 OA
ATOM     10  N   UNL     1       0.098  10.217  21.837  0.00  0.00    +0.000 N 
ATOM     11  C   UNL     1       0.488   9.349  22.954  0.00  0.00    +0.000 C 
ATOM     12  C   UNL     1       0.532   9.989  20.549  0.00  0.00    +0.000 A 
ATOM     13  N   UNL     1       1.321   9.007  20.022  0.00  0.00    +0.000 N 
ATOM     14  H   UNL     1       1.732   8.227  20.513  0.00  0.00    +0.000 HD
ENDROOT
BRANCH   1  16
ATOM     15  C   UNL     1       2.575   7.156  18.399  0.00  0.00    +0.000 C 
ATOM     16  C   UNL     1       2.183   8.333  17.884  0.00  0.00    +0.000 C 
BRANCH  15  20
ATOM     17  C   UNL     1       5.101   4.390  16.288  0.00  0.00    +0.000 A 
ATOM     18  C   UNL     1       5.339   5.763  16.245  0.00  0.00    +0.000 A 
ATOM     19  C   UNL     1       4.521   6.650  16.954  0.00  0.00    +0.000 A 
ATOM     20  C   UNL     1       3.427   6.180  17.694  0.00  0.00    +0.000 A 
ATOM     21  C   UNL     1       3.203   4.798  17.739  0.00  0.00    +0.000 A 
ATOM     22  C   UNL     1       4.028   3.909  17.035  0.00  0.00    +0.000 A 
BRANCH  17  24
ATOM     23  C   UNL     1       6.366   4.188  14.301  0.00  0.00    +0.000 C 
ATOM     24  O   UNL     1       5.951   3.623  15.540  0.00  0.00    +0.000 OA
ENDBRANCH  17  24
ENDBRANCH  15  20
ENDBRANCH   1  16
TORSDOF 3
ENDMDL
MODEL 7
REMARK VINA RESULT:      -7.6      7.885      9.299
REMARK  Name = 
REMARK  6 active torsions:
REMARK  status: ('A' for Active; 'I' for Inactive)
REMARK    1  A    between atoms: C_1  and  O_2
REMARK    2  A    between atoms: O_2  and  C_3
REMARK    3  A    between atoms: C_6  and  C_7
REMARK    4  A    between atoms: C_8  and  C_9
REMARK    5  A    between atoms: N_14  and  C_15
REMARK    6  A    between atoms: N_18  and  C_19
REMARK                            x       y       z     vdW  Elec       q    Type
REMARK                         _______ _______ _______ _____ _____    ______ ____
ROOT
ATOM      1  C   UNL     1       9.479  10.691  18.750  0.00  0.00    +0.000 A 
ATOM      2  N   UNL     1      10.067  11.291  17.731  0.00  0.00    +0.000 NA
ATOM      3  C   UNL     1      10.388  12.555  18.168  0.00  0.00    +0.000 A 
ATOM      4  C   UNL     1      11.021  13.621  17.427  0.00  0.00    +0.000 A 
ATOM      5  O   UNL     1      11.355  13.498  16.253  0.00  0.00    +0.000 OA
ATOM      6  N   UNL     1      11.212  14.797  18.160  0.00  0.00    +0.000 N 
ATOM      7  C   UNL     1      11.844  15.923  17.498  0.00  0.00    +0.000 C 
ATOM      8  C   UNL     1      10.855  14.994  19.486  0.00  0.00    +0.000 A 
ATOM      9  O   UNL     1      11.038  16.026  20.116  0.00  0.00    +0.000 OA
ATOM     10  N   UNL     1      10.219  13.888  20.164  0.00  0.00    +0.000 N 
ATOM     11  C   UNL     1       9.824  14.040  21.569  0.00  0.00    +0.000 C 
ATOM     12  C   UNL     1      10.011  12.717  19.469  0.00  0.00    +0.000 A 
ATOM     13  N   UNL     1       9.432  11.537  19.840  0.00  0.00    +0.000 N 
ATOM     14  H   UNL     1       9.022  11.315  20.735  0.00  0.00    +0.000 HD
ENDROOT
BRANCH   1  16
ATOM     15  C   UNL     1       8.246   8.846  17.839  0.00  0.00    +0.000 C 
ATOM     16  C   UNL     1       8.894   9.405  18.874  0.00  0.00    +0.000 C 
BRANCH  15  20
ATOM     17  C   UNL     1       6.079   5.135  17.971  0.00  0.00    +0.000 A 
ATOM     18  C   UNL     1       5.653   6.193  17.168  0.00  0.00    +0.000 A 
ATOM     19  C   UNL     1       6.380   7.388  17.119  0.00  0.00    +0.000 A 
ATOM     20  C   UNL     1       7.531   7.558  17.900  0.00  0.00    +0.000 A 
ATOM     21  C   UNL     1       7.957   6.486  18.695  0.00  0.00    +0.000 A 
ATOM     22  C   UNL     1       7.232   5.286  18.738  0.00  0.00    +0.000 A 
BRANCH  17  24
ATOM     23  C   UNL     1       4.388   3.922  16.850  0.00  0.00    +0.000 C 
ATOM     24  O   UNL     1       5.279   4.026  17.955  0.00  0.00    +0.000 OA
ENDBRANCH  17  24
ENDBRANCH  15  20
ENDBRANCH   1  16
TORSDOF 3
ENDMDL
MODEL 8
REMARK VINA RESULT:      -7.5      1.152      2.515
REMARK  Name = 
REMARK  6 active torsions:
REMARK  status: ('A' for Active; 'I' for Inactive)
REMARK    1  A    between atoms: C_1  and  O_2
REMARK    2  A    between atoms: O_2  and  C_3
REMARK    3  A    between atoms: C_6  and  C_7
REMARK    4  A    between atoms: C_8  and  C_9
REMARK    5  A    between atoms: N_14  and  C_15
REMARK    6  A    between atoms: N_18  and  C_19
REMARK                            x       y       z     vdW  Elec       q    Type
REMARK                         _______ _______ _______ _____ _____    ______ ____
ROOT
ATOM      1  C   UNL     1       1.199   9.373  18.744  0.00  0.00    +0.000 A 
ATOM      2  N   UNL     1       0.562  10.492  18.447  0.00  0.00    +0.000 NA
ATOM      3  C   UNL     1       0.020  10.945  19.627  0.00  0.00    +0.000 A 
ATOM      4  C   UNL     1      -0.797  12.117  19.841  0.00  0.00    +0.000 A 
ATOM      5  O   UNL     1      -1.113  12.874  18.929  0.00  0.00    +0.000 OA
ATOM      6  N   UNL     1      -1.196  12.306  21.169  0.00  0.00    +0.000 N 
ATOM      7  C   UNL     1      -2.018  13.460  21.480  0.00  0.00    +0.000 C 
ATOM      8  C   UNL     1      -0.870  11.485  22.238  0.00  0.00    +0.000 A 
ATOM      9  O   UNL     1      -1.219  11.670  23.396  0.00  0.00    +0.000 OA
ATOM     10  N   UNL     1      -0.057  10.327  21.951  0.00  0.00    +0.000 N 
ATOM     11  C   UNL     1       0.321   9.425  23.046  0.00  0.00    +0.000 C 
ATOM     12  C   UNL     1       0.349  10.107  20.652  0.00  0.00    +0.000 A 
ATOM     13  N   UNL     1       1.095   9.109  20.095  0.00  0.00    +0.000 N 
ATOM     14  H   UNL     1       1.487   8.307  20.565  0.00  0.00    +0.000 HD
ENDROOT
BRANCH   1  16
ATOM     15  C   UNL     1       2.638   7.472  18.489  0.00  0.00    +0.000 C 
ATOM     16  C   UNL     1       1.900   8.446  17.932  0.00  0.00    +0.000 C 
BRANCH  15  20
ATOM     17  C   UNL     1       5.027   4.620  16.332  0.00  0.00    +0.000 A 
ATOM     18  C   UNL     1       3.954   4.213  17.125  0.00  0.00    +0.000 A 
ATOM     19  C   UNL     1       3.173   5.154  17.805  0.00  0.00    +0.000 A 
ATOM     20  C   UNL     1       3.472   6.521  17.730  0.00  0.00    +0.000 A 
ATOM     21  C   UNL     1       4.544   6.921  16.922  0.00  0.00    +0.000 A 
ATOM     22  C   UNL     1       5.322   5.978  16.235  0.00  0.00    +0.000 A 
BRANCH  17  24
ATOM     23  C   UNL     1       6.316   3.929  14.474  0.00  0.00    +0.000 C 
ATOM     24  O   UNL     1       5.731   3.612  15.733  0.00  0.00    +0.000 OA
ENDBRANCH  17  24
ENDBRANCH  15  20
ENDBRANCH   1  16
TORSDOF 3
ENDMDL
MODEL 9
REMARK VINA RESULT:      -7.5      6.894      9.925
REMARK  Name = 
REMARK  6 active torsions:
REMARK  status: ('A' for Active; 'I' for Inactive)
REMARK    1  A    between atoms: C_1  and  O_2
REMARK    2  A    between atoms: O_2  and  C_3
REMARK    3  A    between atoms: C_6  and  C_7
REMARK    4  A    between atoms: C_8  and  C_9
REMARK    5  A    between atoms: N_14  and  C_15
REMARK    6  A    between atoms: N_18  and  C_19
REMARK                            x       y       z     vdW  Elec       q    Type
REMARK                         _______ _______ _______ _____ _____    ______ ____
ROOT
ATOM      1  C   UNL     1       7.757   7.368  17.862  0.00  0.00    +0.000 A 
ATOM      2  N   UNL     1       7.776   7.021  16.588  0.00  0.00    +0.000 NA
ATOM      3  C   UNL     1       6.918   5.952  16.472  0.00  0.00    +0.000 A 
ATOM      4  C   UNL     1       6.604   5.184  15.290  0.00  0.00    +0.000 A 
ATOM      5  O   UNL     1       7.107   5.423  14.198  0.00  0.00    +0.000 OA
ATOM      6  N   UNL     1       5.687   4.149  15.503  0.00  0.00    +0.000 N 
ATOM      7  C   UNL     1       5.308   3.325  14.371  0.00  0.00    +0.000 C 
ATOM      8  C   UNL     1       5.087   3.832  16.713  0.00  0.00    +0.000 A 
ATOM      9  O   UNL     1       4.278   2.930  16.880  0.00  0.00    +0.000 OA
ATOM     10  N   UNL     1       5.453   4.636  17.855  0.00  0.00    +0.000 N 
ATOM     11  C   UNL     1       4.846   4.348  19.161  0.00  0.00    +0.000 C 
ATOM     12  C   UNL     1       6.359   5.661  17.682  0.00  0.00    +0.000 A 
ATOM     13  N   UNL     1       6.890   6.556  18.565  0.00  0.00    +0.000 N 
ATOM     14  H   UNL     1       6.710   6.613  19.556  0.00  0.00    +0.000 HD
ENDROOT
BRANCH   1  16
ATOM     15  C   UNL     1       8.532   9.623  18.119  0.00  0.00    +0.000 C 
ATOM     16  C   UNL     1       8.474   8.361  18.576  0.00  0.00    +0.000 C 
BRANCH  15  20
ATOM     17  C   UNL     1      10.879  12.788  19.841  0.00  0.00    +0.000 A 
ATOM     18  C   UNL     1      10.676  12.705  18.463  0.00  0.00    +0.000 A 
ATOM     19  C   UNL     1       9.892  11.682  17.919  0.00  0.00    +0.000 A 
ATOM     20  C   UNL     1       9.324  10.700  18.741  0.00  0.00    +0.000 A 
ATOM     21  C   UNL     1       9.526  10.797  20.124  0.00  0.00    +0.000 A 
ATOM     22  C   UNL     1      10.305  11.827  20.670  0.00  0.00    +0.000 A 
BRANCH  17  24
ATOM     23  C   UNL     1      11.629  14.998  19.463  0.00  0.00    +0.000 C 
ATOM     24  O   UNL     1      11.679  13.816  20.256  0.00  0.00    +0.000 OA
ENDBRANCH  17  24
ENDBRANCH  15  20
ENDBRANCH   1  16
TORSDOF 3
ENDMDL
