MODEL 1
REMARK VINA RESULT:      -8.5      0.000      0.000
REMARK  Name = 
REMARK  5 active torsions:
REMARK  status: ('A' for Active; 'I' for Inactive)
REMARK    1  A    between atoms: C_2  and  C_25
REMARK    2  A    between atoms: N_3  and  C_4
REMARK    3  A    between atoms: C_7  and  C_8
REMARK    4  A    between atoms: C_11  and  N_12
REMARK    5  A    between atoms: C_13  and  C_15
REMARK                            x       y       z     vdW  Elec       q    Type
REMARK                         _______ _______ _______ _____ _____    ______ ____
ROOT
ATOM      1  C   UNL     1       2.340   7.178  19.082  0.00  0.00    +0.000 A 
ATOM      2  C   UNL     1       1.948   7.018  20.406  0.00  0.00    +0.000 A 
ATOM      3  C   UNL     1       1.205   8.008  21.045  0.00  0.00    +0.000 A 
ATOM      4  C   UNL     1       0.845   9.205  20.401  0.00  0.00    +0.000 A 
ATOM      5  C   UNL     1       1.269   9.364  19.072  0.00  0.00    +0.000 A 
ATOM      6  C   UNL     1       2.016   8.367  18.422  0.00  0.00    +0.000 A 
ENDROOT
BRANCH   4   7
ATOM      7  C   UNL     1       0.057  10.221  21.133  0.00  0.00    +0.000 A 
ATOM      8  C   UNL     1      -0.321   9.980  22.465  0.00  0.00    +0.000 A 
ATOM      9  C   UNL     1      -1.167  10.842  23.163  0.00  0.00    +0.000 A 
ATOM     10  C   UNL     1      -1.647  11.998  22.563  0.00  0.00    +0.000 A 
ATOM     11  C   UNL     1      -1.241  12.289  21.253  0.00  0.00    +0.000 A 
ATOM     12  C   UNL     1      -0.399  11.409  20.549  0.00  0.00    +0.000 A 
BRANCH  10  13
ATOM     13  N   UNL     1      -2.542  12.882  23.204  0.00  0.00    +0.000 N 
ATOM     14  C   UNL     1      -3.916  12.963  23.001  0.00  0.00    +0.000 C 
ATOM     15  O   UNL     1      -4.574  12.258  22.243  0.00  0.00    +0.000 OA
ATOM     16  H   UNL     1      -2.127  13.541  23.849  0.00  0.00    +0.000 HD
BRANCH  14  17
ATOM     17  C   UNL     1      -4.575  14.082  23.811  0.00  0.00    +0.000 C 
ATOM     18  C   UNL     1      -5.814  14.644  23.107  0.00  0.00    +0.000 C 
ATOM     19  C   UNL     1      -5.437  15.532  21.922  0.00  0.00    +0.000 C 
ATOM     20  N   UNL     1      -4.564  16.627  22.330  0.00  0.00    +0.000 NA
ATOM     21  C   UNL     1      -3.326  16.133  22.929  0.00  0.00    +0.000 C 
ATOM     22  C   UNL     1      -3.585  15.216  24.126  0.00  0.00    +0.000 C 
ATOM     23  H   UNL     1      -5.051  17.222  23.002  0.00  0.00    +0.000 HD
ENDBRANCH  14  17
ENDBRANCH  10  13
ENDBRANCH   4   7
BRANCH   1  26
ATOM     24  O   UNL     1       1.345   4.687  17.930  0.00  0.00    +0.000 OA
ATOM     25  C   UNL     1       2.530   5.003  17.897  0.00  0.00    +0.000 C 
ATOM     26  N   UNL     1       3.065   6.186  18.389  0.00  0.00    +0.000 N 
ATOM     27  H   UNL     1       4.001   6.434  18.095  0.00  0.00    +0.000 HD
BRANCH  25  28
ATOM     28  C   UNL     1       3.584   4.077  17.297  0.00  0.00    +0.000 C 
ATOM     29  C   UNL     1       3.262   2.603  17.584  0.00  0.00    +0.000 C 
ATOM     30  C   UNL     1       3.638   2.161  18.999  0.00  0.00    +0.000 C 
ATOM     31  N   UNL     1       5.019   2.512  19.328  0.00  0.00    +0.000 NA
ATOM     32  C   UNL     1       5.217   3.958  19.239  0.00  0.00    +0.000 C 
ATOM     33  C   UNL     1       4.972   4.464  17.817  0.00  0.00    +0.000 C 
ATOM     34  H   UNL     1       5.651   2.041  18.683  0.00  0.00    +0.000 HD
ENDBRANCH  25  28
ENDBRANCH   1  26
TORSDOF 5
ENDMDL
MODEL 2
REMARK VINA RESULT:      -8.5      0.678      1.105
REMARK  Name = 
REMARK  5 active torsions:
REMARK  status: ('A' for Active; 'I' for Inactive)
REMARK    1  A    between atoms: C_2  and  C_25
REMARK    2  A    between atoms: N_3  and  C_4
REMARK    3  A    between atoms: C_7  and  C_8
REMARK    4  A    between atoms: C_11  and  N_12
REMARK    5  A    between atoms: C_13  and  C_15
REMARK                            x       y       z     vdW  Elec       q    Type
REMARK                         _______ _______ _______ _____ _____    ______ ____
ROOT
ATOM      1  C   UNL     1       2.245   7.742  18.925  0.00  0.00    +0.000 A 
ATOM      2  C   UNL     1       1.713   8.870  18.310  0.00  0.00    +0.000 A 
ATOM      3  C   UNL     1       0.914   9.755  19.031  0.00  0.00    +0.000 A 
ATOM      4  C   UNL     1       0.592   9.539  20.382  0.00  0.00    +0.000 A 
ATOM      5  C   UNL     1       1.115   8.383  20.985  0.00  0.00    +0.000 A 
ATOM      6  C   UNL     1       1.925   7.489  20.263  0.00  0.00    +0.000 A 
ENDROOT
BRANCH   4   7
ATOM      7  C   UNL     1      -0.264  10.514  21.094  0.00  0.00    +0.000 A 
ATOM      8  C   UNL     1      -0.513  10.349  22.467  0.00  0.00    +0.000 A 
ATOM      9  C   UNL     1      -1.409  11.162  23.160  0.00  0.00    +0.000 A 
ATOM     10  C   UNL     1      -2.074  12.194  22.512  0.00  0.00    +0.000 A 
ATOM     11  C   UNL     1      -1.801  12.413  21.154  0.00  0.00    +0.000 A 
ATOM     12  C   UNL     1      -0.908  11.581  20.456  0.00  0.00    +0.000 A 
BRANCH  10  13
ATOM     13  N   UNL     1      -3.025  13.017  23.151  0.00  0.00    +0.000 N 
ATOM     14  C   UNL     1      -4.405  12.980  22.978  0.00  0.00    +0.000 C 
ATOM     15  O   UNL     1      -5.017  12.204  22.252  0.00  0.00    +0.000 OA
ATOM     16  H   UNL     1      -2.652  13.725  23.771  0.00  0.00    +0.000 HD
BRANCH  14  17
ATOM     17  C   UNL     1      -5.138  14.062  23.775  0.00  0.00    +0.000 C 
ATOM     18  C   UNL     1      -6.520  14.367  23.189  0.00  0.00    +0.000 C 
ATOM     19  C   UNL     1      -6.421  15.184  21.902  0.00  0.00    +0.000 C 
ATOM     20  N   UNL     1      -5.691  16.430  22.113  0.00  0.00    +0.000 NA
ATOM     21  C   UNL     1      -4.332  16.182  22.590  0.00  0.00    +0.000 C 
ATOM     22  C   UNL     1      -4.308  15.354  23.876  0.00  0.00    +0.000 C 
ATOM     23  H   UNL     1      -6.188  17.007  22.793  0.00  0.00    +0.000 HD
ENDBRANCH  14  17
ENDBRANCH  10  13
ENDBRANCH   4   7
BRANCH   1  26
ATOM     24  O   UNL     1       1.618   5.049  17.989  0.00  0.00    +0.000 OA
ATOM     25  C   UNL     1       2.728   5.552  17.856  0.00  0.00    +0.000 C 
ATOM     26  N   UNL     1       3.085   6.838  18.241  0.00  0.00    +0.000 N 
ATOM     27  H   UNL     1       3.947   7.216  17.871  0.00  0.00    +0.000 HD
BRANCH  25  28
ATOM     28  C   UNL     1       3.886   4.774  17.239  0.00  0.00    +0.000 C 
ATOM     29  C   UNL     1       3.720   3.262  17.451  0.00  0.00    +0.000 C 
ATOM     30  C   UNL     1       4.115   2.796  18.853  0.00  0.00    +0.000 C 
ATOM     31  N   UNL     1       5.444   3.275  19.229  0.00  0.00    +0.000 NA
ATOM     32  C   UNL     1       5.487   4.737  19.212  0.00  0.00    +0.000 C 
ATOM     33  C   UNL     1       5.216   5.281  17.808  0.00  0.00    +0.000 C 
ATOM     34  H   UNL     1       6.135   2.905  18.578  0.00  0.00    +0.000 HD
ENDBRANCH  25  28
ENDBRANCH   1  26
TORSDOF 5
ENDMDL
MODEL 3
REMARK VINA RESULT:      -8.5      1.010      1.089
REMARK  Name = 
REMARK  5 active torsions:
REMARK  status: ('A' for Active; 'I' for Inactive)
REMARK    1  A    between atoms: C_2  and  C_25
REMARK    2  A    between atoms: N_3  and  C_4
REMARK    3  A    between atoms: C_7  and  C_8
REMARK    4  A    between atoms: C_11  and  N_12
REMARK    5  A    between atoms: C_13  and  C_15
REMARK                            x       y       z     vdW  Elec       q    Type
REMARK                         _______ _______ _______ _____ _____    ______ ____
ROOT
ATOM      1  C   UNL     1       2.333   7.098  19.068  0.00  0.00    +0.000 A 
ATOM      2  C   UNL     1       1.960   6.959  20.400  0.00  0.00    +0.000 A 
ATOM      3  C   UNL     1       1.229   7.959  21.035  0.00  0.00    +0.000 A 
ATOM      4  C   UNL     1       0.863   9.148  20.379  0.00  0.00    +0.000 A 
ATOM      5  C   UNL     1       1.267   9.287  19.042  0.00  0.00    +0.000 A 
ATOM      6  C   UNL     1       2.002   8.278  18.395  0.00  0.00    +0.000 A 
ENDROOT
BRANCH   4   7
ATOM      7  C   UNL     1       0.088  10.176  21.109  0.00  0.00    +0.000 A 
ATOM      8  C   UNL     1      -0.258   9.961  22.454  0.00  0.00    +0.000 A 
ATOM      9  C   UNL     1      -1.090  10.835  23.153  0.00  0.00    +0.000 A 
ATOM     10  C   UNL     1      -1.589  11.976  22.542  0.00  0.00    +0.000 A 
ATOM     11  C   UNL     1      -1.215  12.241  21.217  0.00  0.00    +0.000 A 
ATOM     12  C   UNL     1      -0.386  11.350  20.511  0.00  0.00    +0.000 A 
BRANCH  10  13
ATOM     13  N   UNL     1      -2.472  12.870  23.185  0.00  0.00    +0.000 N 
ATOM     14  C   UNL     1      -2.121  14.000  23.917  0.00  0.00    +0.000 C 
ATOM     15  O   UNL     1      -0.980  14.412  24.101  0.00  0.00    +0.000 OA
ATOM     16  H   UNL     1      -3.455  12.638  23.130  0.00  0.00    +0.000 HD
BRANCH  14  17
ATOM     17  C   UNL     1      -3.327  14.709  24.540  0.00  0.00    +0.000 C 
ATOM     18  C   UNL     1      -4.566  14.621  23.644  0.00  0.00    +0.000 C 
ATOM     19  C   UNL     1      -4.460  15.556  22.439  0.00  0.00    +0.000 C 
ATOM     20  N   UNL     1      -4.248  16.939  22.852  0.00  0.00    +0.000 NA
ATOM     21  C   UNL     1      -3.025  17.084  23.638  0.00  0.00    +0.000 C 
ATOM     22  C   UNL     1      -3.015  16.178  24.871  0.00  0.00    +0.000 C 
ATOM     23  H   UNL     1      -5.045  17.258  23.405  0.00  0.00    +0.000 HD
ENDBRANCH  14  17
ENDBRANCH  10  13
ENDBRANCH   4   7
BRANCH   1  26
ATOM     24  O   UNL     1       1.291   4.658  17.848  0.00  0.00    +0.000 OA
ATOM     25  C   UNL     1       2.486   4.937  17.852  0.00  0.00    +0.000 C 
ATOM     26  N   UNL     1       3.045   6.095  18.377  0.00  0.00    +0.000 N 
ATOM     27  H   UNL     1       3.996   6.317  18.113  0.00  0.00    +0.000 HD
BRANCH  25  28
ATOM     28  C   UNL     1       3.526   3.988  17.265  0.00  0.00    +0.000 C 
ATOM     29  C   UNL     1       3.200   2.524  17.600  0.00  0.00    +0.000 C 
ATOM     30  C   UNL     1       3.593   2.123  19.022  0.00  0.00    +0.000 C 
ATOM     31  N   UNL     1       4.981   2.474  19.322  0.00  0.00    +0.000 NA
ATOM     32  C   UNL     1       5.185   3.916  19.188  0.00  0.00    +0.000 C 
ATOM     33  C   UNL     1       4.924   4.382  17.754  0.00  0.00    +0.000 C 
ATOM     34  H   UNL     1       5.601   1.980  18.682  0.00  0.00    +0.000 HD
ENDBRANCH  25  28
ENDBRANCH   1  26
TORSDOF 5
ENDMDL
MODEL 4
REMARK VINA RESULT:      -8.3      1.001      1.239
REMARK  Name = 
REMARK  5 active torsions:
REMARK  status: ('A' for Active; 'I' for Inactive)
REMARK    1  A    between atoms: C_2  and  C_25
REMARK    2  A    between atoms: N_3  and  C_4
REMARK    3  A    between atoms: C_7  and  C_8
REMARK    4  A    between atoms: C_11  and  N_12
REMARK    5  A    between atoms: C_13  and  C_15
REMARK                            x       y       z     vdW  Elec       q    Type
REMARK                         _______ _______ _______ _____ _____    ______ ____
ROOT
ATOM      1  C   UNL     1       2.443   7.404  18.578  0.00  0.00    +0.000 A 
ATOM      2  C   UNL     1       2.147   7.467  19.934  0.00  0.00    +0.000 A 
ATOM      3  C   UNL     1       1.363   8.503  20.437  0.00  0.00    +0.000 A 
ATOM      4  C   UNL     1       0.866   9.530  19.615  0.00  0.00    +0.000 A 
ATOM      5  C   UNL     1       1.193   9.468  18.252  0.00  0.00    +0.000 A 
ATOM      6  C   UNL     1       1.980   8.422  17.739  0.00  0.00    +0.000 A 
ENDROOT
BRANCH   4   7
ATOM      7  C   UNL     1       0.041  10.605  20.209  0.00  0.00    +0.000 A 
ATOM      8  C   UNL     1       0.150  10.889  21.581  0.00  0.00    +0.000 A 
ATOM      9  C   UNL     1      -0.689  11.803  22.217  0.00  0.00    +0.000 A 
ATOM     10  C   UNL     1      -1.656  12.493  21.500  0.00  0.00    +0.000 A 
ATOM     11  C   UNL     1      -1.748  12.269  20.119  0.00  0.00    +0.000 A 
ATOM     12  C   UNL     1      -0.910  11.335  19.483  0.00  0.00    +0.000 A 
BRANCH  10  13
ATOM     13  N   UNL     1      -2.562  13.394  22.099  0.00  0.00    +0.000 N 
ATOM     14  C   UNL     1      -3.534  13.087  23.045  0.00  0.00    +0.000 C 
ATOM     15  O   UNL     1      -3.743  11.978  23.527  0.00  0.00    +0.000 OA
ATOM     16  H   UNL     1      -2.512  14.352  21.776  0.00  0.00    +0.000 HD
BRANCH  14  17
ATOM     17  C   UNL     1      -4.394  14.292  23.434  0.00  0.00    +0.000 C 
ATOM     18  C   UNL     1      -5.821  13.881  23.807  0.00  0.00    +0.000 C 
ATOM     19  C   UNL     1      -6.645  13.513  22.574  0.00  0.00    +0.000 C 
ATOM     20  N   UNL     1      -6.685  14.608  21.610  0.00  0.00    +0.000 NA
ATOM     21  C   UNL     1      -5.344  14.976  21.159  0.00  0.00    +0.000 C 
ATOM     22  C   UNL     1      -4.422  15.353  22.320  0.00  0.00    +0.000 C 
ATOM     23  H   UNL     1      -7.134  15.422  22.035  0.00  0.00    +0.000 HD
ENDBRANCH  14  17
ENDBRANCH  10  13
ENDBRANCH   4   7
BRANCH   1  26
ATOM     24  O   UNL     1       1.567   4.708  17.881  0.00  0.00    +0.000 OA
ATOM     25  C   UNL     1       2.728   5.079  17.749  0.00  0.00    +0.000 C 
ATOM     26  N   UNL     1       3.205   6.355  18.023  0.00  0.00    +0.000 N 
ATOM     27  H   UNL     1       4.115   6.603  17.656  0.00  0.00    +0.000 HD
BRANCH  25  28
ATOM     28  C   UNL     1       3.818   4.129  17.263  0.00  0.00    +0.000 C 
ATOM     29  C   UNL     1       3.479   2.669  17.601  0.00  0.00    +0.000 C 
ATOM     30  C   UNL     1       3.765   2.299  19.057  0.00  0.00    +0.000 C 
ATOM     31  N   UNL     1       5.123   2.669  19.454  0.00  0.00    +0.000 NA
ATOM     32  C   UNL     1       5.326   4.110  19.307  0.00  0.00    +0.000 C 
ATOM     33  C   UNL     1       5.171   4.545  17.849  0.00  0.00    +0.000 C 
ATOM     34  H   UNL     1       5.794   2.169  18.874  0.00  0.00    +0.000 HD
ENDBRANCH  25  28
ENDBRANCH   1  26
TORSDOF 5
ENDMDL
MODEL 5
REMARK VINA RESULT:      -8.3      1.628      2.314
REMARK  Name = 
REMARK  5 active torsions:
REMARK  status: ('A' for Active; 'I' for Inactive)
REMARK    1  A    between atoms: C_2  and  C_25
REMARK    2  A    between atoms: N_3  and  C_4
REMARK    3  A    between atoms: C_7  and  C_8
REMARK    4  A    between atoms: C_11  and  N_12
REMARK    5  A    between atoms: C_13  and  C_15
REMARK                            x       y       z     vdW  Elec       q    Type
REMARK                         _______ _______ _______ _____ _____    ______ ____
ROOT
ATOM      1  C   UNL     1       2.653   6.730  18.942  0.00  0.00    +0.000 A 
ATOM      2  C   UNL     1       2.165   6.454  20.214  0.00  0.00    +0.000 A 
ATOM      3  C   UNL     1       1.385   7.391  20.888  0.00  0.00    +0.000 A 
ATOM      4  C   UNL     1       1.083   8.648  20.334  0.00  0.00    +0.000 A 
ATOM      5  C   UNL     1       1.602   8.923  19.059  0.00  0.00    +0.000 A 
ATOM      6  C   UNL     1       2.387   7.979  18.374  0.00  0.00    +0.000 A 
ENDROOT
BRANCH   4   7
ATOM      7  C   UNL     1       0.251   9.603  21.100  0.00  0.00    +0.000 A 
ATOM      8  C   UNL     1      -0.070  10.850  20.539  0.00  0.00    +0.000 A 
ATOM      9  C   UNL     1      -0.743  11.836  21.260  0.00  0.00    +0.000 A 
ATOM     10  C   UNL     1      -1.147  11.602  22.568  0.00  0.00    +0.000 A 
ATOM     11  C   UNL     1      -0.886  10.345  23.132  0.00  0.00    +0.000 A 
ATOM     12  C   UNL     1      -0.194   9.360  22.405  0.00  0.00    +0.000 A 
BRANCH  10  13
ATOM     13  N   UNL     1      -1.788  12.578  23.361  0.00  0.00    +0.000 N 
ATOM     14  C   UNL     1      -3.153  12.843  23.407  0.00  0.00    +0.000 C 
ATOM     15  O   UNL     1      -4.022  12.250  22.776  0.00  0.00    +0.000 OA
ATOM     16  H   UNL     1      -1.182  13.160  23.923  0.00  0.00    +0.000 HD
BRANCH  14  17
ATOM     17  C   UNL     1      -3.505  14.016  24.325  0.00  0.00    +0.000 C 
ATOM     18  C   UNL     1      -4.762  14.754  23.854  0.00  0.00    +0.000 C 
ATOM     19  C   UNL     1      -4.485  15.616  22.624  0.00  0.00    +0.000 C 
ATOM     20  N   UNL     1      -3.415  16.577  22.873  0.00  0.00    +0.000 NA
ATOM     21  C   UNL     1      -2.168  15.910  23.241  0.00  0.00    +0.000 C 
ATOM     22  C   UNL     1      -2.332  15.002  24.462  0.00  0.00    +0.000 C 
ATOM     23  H   UNL     1      -3.693  17.212  23.624  0.00  0.00    +0.000 HD
ENDBRANCH  14  17
ENDBRANCH  10  13
ENDBRANCH   4   7
BRANCH   1  26
ATOM     24  O   UNL     1       5.185   5.486  19.697  0.00  0.00    +0.000 OA
ATOM     25  C   UNL     1       4.639   5.271  18.620  0.00  0.00    +0.000 C 
ATOM     26  N   UNL     1       3.419   5.796  18.212  0.00  0.00    +0.000 N 
ATOM     27  H   UNL     1       2.967   5.366  17.416  0.00  0.00    +0.000 HD
BRANCH  25  28
ATOM     28  C   UNL     1       5.283   4.376  17.566  0.00  0.00    +0.000 C 
ATOM     29  C   UNL     1       6.816   4.415  17.659  0.00  0.00    +0.000 C 
ATOM     30  C   UNL     1       7.433   5.660  17.021  0.00  0.00    +0.000 C 
ATOM     31  N   UNL     1       6.946   5.870  15.659  0.00  0.00    +0.000 NA
ATOM     32  C   UNL     1       5.492   6.035  15.653  0.00  0.00    +0.000 C 
ATOM     33  C   UNL     1       4.791   4.778  16.171  0.00  0.00    +0.000 C 
ATOM     34  H   UNL     1       7.201   5.072  15.080  0.00  0.00    +0.000 HD
ENDBRANCH  25  28
ENDBRANCH   1  26
TORSDOF 5
ENDMDL
MODEL 6
REMARK VINA RESULT:      -8.3      0.888     11.583
REMARK  Name = 
REMARK  5 active torsions:
REMARK  status: ('A' for Active; 'I' for Inactive)
REMARK    1  A    between atoms: C_2  and  C_25
REMARK    2  A    between atoms: N_3  and  C_4
REMARK    3  A    between atoms: C_7  and  C_8
REMARK    4  A    between atoms: C_11  and  N_12
REMARK    5  A    between atoms: C_13  and  C_15
REMARK                            x       y       z     vdW  Elec       q    Type
REMARK                         _______ _______ _______ _____ _____    ______ ____
ROOT
ATOM      1  C   UNL     1      -1.977  12.527  22.263  0.00  0.00    +0.000 A 
ATOM      2  C   UNL     1      -1.332  11.479  22.909  0.00  0.00    +0.000 A 
ATOM      3  C   UNL     1      -0.558  10.574  22.186  0.00  0.00    +0.000 A 
ATOM      4  C   UNL     1      -0.418  10.661  20.790  0.00  0.00    +0.000 A 
ATOM      5  C   UNL     1      -1.094  11.708  20.146  0.00  0.00    +0.000 A 
ATOM      6  C   UNL     1      -1.873  12.626  20.872  0.00  0.00    +0.000 A 
ENDROOT
BRANCH   4   7
ATOM      7  C   UNL     1       0.416   9.668  20.077  0.00  0.00    +0.000 A 
ATOM      8  C   UNL     1       0.971   8.589  20.786  0.00  0.00    +0.000 A 
ATOM      9  C   UNL     1       1.863   7.694  20.194  0.00  0.00    +0.000 A 
ATOM     10  C   UNL     1       2.216   7.828  18.859  0.00  0.00    +0.000 A 
ATOM     11  C   UNL     1       1.633   8.864  18.115  0.00  0.00    +0.000 A 
ATOM     12  C   UNL     1       0.745   9.772  18.719  0.00  0.00    +0.000 A 
BRANCH  10  13
ATOM     13  N   UNL     1       3.148   6.981  18.221  0.00  0.00    +0.000 N 
ATOM     14  C   UNL     1       2.909   5.700  17.736  0.00  0.00    +0.000 C 
ATOM     15  O   UNL     1       1.835   5.108  17.767  0.00  0.00    +0.000 OA
ATOM     16  H   UNL     1       4.091   7.340  18.144  0.00  0.00    +0.000 HD
BRANCH  14  17
ATOM     17  C   UNL     1       4.163   5.033  17.162  0.00  0.00    +0.000 C 
ATOM     18  C   UNL     1       4.096   3.507  17.264  0.00  0.00    +0.000 C 
ATOM     19  C   UNL     1       4.324   3.025  18.696  0.00  0.00    +0.000 C 
ATOM     20  N   UNL     1       5.599   3.498  19.224  0.00  0.00    +0.000 NA
ATOM     21  C   UNL     1       5.671   4.957  19.227  0.00  0.00    +0.000 C 
ATOM     22  C   UNL     1       5.443   5.554  17.837  0.00  0.00    +0.000 C 
ATOM     23  H   UNL     1       6.364   3.122  18.660  0.00  0.00    +0.000 HD
ENDBRANCH  14  17
ENDBRANCH  10  13
ENDBRANCH   4   7
BRANCH   1  26
ATOM     24  O   UNL     1      -4.786  12.370  23.044  0.00  0.00    +0.000 OA
ATOM     25  C   UNL     1      -4.092  13.356  23.269  0.00  0.00    +0.000 C 
ATOM     26  N   UNL     1      -2.743  13.483  22.961  0.00  0.00    +0.000 N 
ATOM     27  H   UNL     1      -2.232  14.237  23.402  0.00  0.00    +0.000 HD
BRANCH  25  28
ATOM     28  C   UNL     1      -4.672  14.604  23.926  0.00  0.00    +0.000 C 
ATOM     29  C   UNL     1      -6.206  14.617  23.846  0.00  0.00    +0.000 C 
ATOM     30  C   UNL     1      -6.741  15.052  22.480  0.00  0.00    +0.000 C 
ATOM     31  N   UNL     1      -6.143  16.311  22.039  0.00  0.00    +0.000 NA
ATOM     32  C   UNL     1      -4.690  16.179  21.932  0.00  0.00    +0.000 C 
ATOM     33  C   UNL     1      -4.062  15.858  23.290  0.00  0.00    +0.000 C 
ATOM     34  H   UNL     1      -6.371  17.047  22.705  0.00  0.00    +0.000 HD
ENDBRANCH  25  28
ENDBRANCH   1  26
TORSDOF 5
ENDMDL
MODEL 7
REMARK VINA RESULT:      -8.3      0.939     11.567
REMARK  Name = 
REMARK  5 active torsions:
REMARK  status: ('A' for Active; 'I' for Inactive)
REMARK    1  A    between atoms: C_2  and  C_25
REMARK    2  A    between atoms: N_3  and  C_4
REMARK    3  A    between atoms: C_7  and  C_8
REMARK    4  A    between atoms: C_11  and  N_12
REMARK    5  A    between atoms: C_13  and  C_15
REMARK                            x       y       z     vdW  Elec       q    Type
REMARK                         _______ _______ _______ _____ _____    ______ ____
ROOT
ATOM      1  C   UNL     1      -1.819  12.637  21.582  0.00  0.00    +0.000 A 
ATOM      2  C   UNL     1      -1.707  12.428  20.213  0.00  0.00    +0.000 A 
ATOM      3  C   UNL     1      -0.862  11.437  19.718  0.00  0.00    +0.000 A 
ATOM      4  C   UNL     1      -0.077  10.634  20.564  0.00  0.00    +0.000 A 
ATOM      5  C   UNL     1      -0.181  10.872  21.944  0.00  0.00    +0.000 A 
ATOM      6  C   UNL     1      -1.035  11.868  22.448  0.00  0.00    +0.000 A 
ENDROOT
BRANCH   4   7
ATOM      7  C   UNL     1       0.804   9.599  19.979  0.00  0.00    +0.000 A 
ATOM      8  C   UNL     1       1.142   9.664  18.616  0.00  0.00    +0.000 A 
ATOM      9  C   UNL     1       1.864   8.652  17.983  0.00  0.00    +0.000 A 
ATOM     10  C   UNL     1       2.302   7.545  18.696  0.00  0.00    +0.000 A 
ATOM     11  C   UNL     1       2.024   7.483  20.069  0.00  0.00    +0.000 A 
ATOM     12  C   UNL     1       1.283   8.499  20.700  0.00  0.00    +0.000 A 
BRANCH  10  13
ATOM     13  N   UNL     1       2.995   6.470  18.099  0.00  0.00    +0.000 N 
ATOM     14  C   UNL     1       2.543   5.160  17.971  0.00  0.00    +0.000 C 
ATOM     15  O   UNL     1       1.453   4.737  18.340  0.00  0.00    +0.000 OA
ATOM     16  H   UNL     1       3.926   6.676  17.763  0.00  0.00    +0.000 HD
BRANCH  14  17
ATOM     17  C   UNL     1       3.578   4.230  17.332  0.00  0.00    +0.000 C 
ATOM     18  C   UNL     1       3.387   2.775  17.772  0.00  0.00    +0.000 C 
ATOM     19  C   UNL     1       3.862   2.551  19.207  0.00  0.00    +0.000 C 
ATOM     20  N   UNL     1       5.260   2.936  19.374  0.00  0.00    +0.000 NA
ATOM     21  C   UNL     1       5.472   4.345  19.049  0.00  0.00    +0.000 C 
ATOM     22  C   UNL     1       5.015   4.690  17.629  0.00  0.00    +0.000 C 
ATOM     23  H   UNL     1       5.849   2.358  18.773  0.00  0.00    +0.000 HD
ENDBRANCH  14  17
ENDBRANCH  10  13
ENDBRANCH   4   7
BRANCH   1  26
ATOM     24  O   UNL     1      -4.481  12.245  22.717  0.00  0.00    +0.000 OA
ATOM     25  C   UNL     1      -3.961  13.352  22.618  0.00  0.00    +0.000 C 
ATOM     26  N   UNL     1      -2.687  13.606  22.126  0.00  0.00    +0.000 N 
ATOM     27  H   UNL     1      -2.287  14.517  22.312  0.00  0.00    +0.000 HD
BRANCH  25  28
ATOM     28  C   UNL     1      -4.703  14.619  23.031  0.00  0.00    +0.000 C 
ATOM     29  C   UNL     1      -6.171  14.322  23.374  0.00  0.00    +0.000 C 
ATOM     30  C   UNL     1      -7.064  14.166  22.142  0.00  0.00    +0.000 C 
ATOM     31  N   UNL     1      -6.918  15.290  21.219  0.00  0.00    +0.000 NA
ATOM     32  C   UNL     1      -5.533  15.399  20.760  0.00  0.00    +0.000 C 
ATOM     33  C   UNL     1      -4.583  15.675  21.927  0.00  0.00    +0.000 C 
ATOM     34  H   UNL     1      -7.191  16.152  21.687  0.00  0.00    +0.000 HD
ENDBRANCH  25  28
ENDBRANCH   1  26
TORSDOF 5
ENDMDL
MODEL 8
REMARK VINA RESULT:      -8.3      1.066     11.538
REMARK  Name = 
REMARK  5 active torsions:
REMARK  status: ('A' for Active; 'I' for Inactive)
REMARK    1  A    between atoms: C_2  and  C_25
REMARK    2  A    between atoms: N_3  and  C_4
REMARK    3  A    between atoms: C_7  and  C_8
REMARK    4  A    between atoms: C_11  and  N_12
REMARK    5  A    between atoms: C_13  and  C_15
REMARK                            x       y       z     vdW  Elec       q    Type
REMARK                         _______ _______ _______ _____ _____    ______ ____
ROOT
ATOM      1  C   UNL     1      -1.524  12.638  20.744  0.00  0.00    +0.000 A 
ATOM      2  C   UNL     1      -0.706  11.950  21.632  0.00  0.00    +0.000 A 
ATOM      3  C   UNL     1       0.110  10.915  21.182  0.00  0.00    +0.000 A 
ATOM      4  C   UNL     1       0.124  10.507  19.836  0.00  0.00    +0.000 A 
ATOM      5  C   UNL     1      -0.726  11.193  18.954  0.00  0.00    +0.000 A 
ATOM      6  C   UNL     1      -1.548  12.241  19.403  0.00  0.00    +0.000 A 
ENDROOT
BRANCH   4   7
ATOM      7  C   UNL     1       1.010   9.398  19.419  0.00  0.00    +0.000 A 
ATOM      8  C   UNL     1       1.446   9.320  18.085  0.00  0.00    +0.000 A 
ATOM      9  C   UNL     1       2.178   8.234  17.607  0.00  0.00    +0.000 A 
ATOM     10  C   UNL     1       2.529   7.191  18.453  0.00  0.00    +0.000 A 
ATOM     11  C   UNL     1       2.153   7.271  19.801  0.00  0.00    +0.000 A 
ATOM     12  C   UNL     1       1.402   8.362  20.276  0.00  0.00    +0.000 A 
BRANCH  10  13
ATOM     13  N   UNL     1       3.227   6.046  18.014  0.00  0.00    +0.000 N 
ATOM     14  C   UNL     1       2.674   4.814  17.679  0.00  0.00    +0.000 C 
ATOM     15  O   UNL     1       1.480   4.535  17.692  0.00  0.00    +0.000 OA
ATOM     16  H   UNL     1       4.234   6.130  17.974  0.00  0.00    +0.000 HD
BRANCH  14  17
ATOM     17  C   UNL     1       3.726   3.766  17.308  0.00  0.00    +0.000 C 
ATOM     18  C   UNL     1       3.409   2.396  17.916  0.00  0.00    +0.000 C 
ATOM     19  C   UNL     1       3.699   2.363  19.416  0.00  0.00    +0.000 C 
ATOM     20  N   UNL     1       5.085   2.718  19.702  0.00  0.00    +0.000 NA
ATOM     21  C   UNL     1       5.408   4.057  19.215  0.00  0.00    +0.000 C 
ATOM     22  C   UNL     1       5.141   4.212  17.716  0.00  0.00    +0.000 C 
ATOM     23  H   UNL     1       5.710   2.039  19.263  0.00  0.00    +0.000 HD
ENDBRANCH  14  17
ENDBRANCH  10  13
ENDBRANCH   4   7
BRANCH   1  26
ATOM     24  O   UNL     1      -4.395  12.625  21.277  0.00  0.00    +0.000 OA
ATOM     25  C   UNL     1      -3.713  13.642  21.354  0.00  0.00    +0.000 C 
ATOM     26  N   UNL     1      -2.341  13.713  21.152  0.00  0.00    +0.000 N 
ATOM     27  H   UNL     1      -1.864  14.547  21.471  0.00  0.00    +0.000 HD
BRANCH  25  28
ATOM     28  C   UNL     1      -4.338  14.996  21.678  0.00  0.00    +0.000 C 
ATOM     29  C   UNL     1      -3.497  15.768  22.705  0.00  0.00    +0.000 C 
ATOM     30  C   UNL     1      -3.706  15.295  24.144  0.00  0.00    +0.000 C 
ATOM     31  N   UNL     1      -5.124  15.246  24.498  0.00  0.00    +0.000 NA
ATOM     32  C   UNL     1      -5.843  14.331  23.613  0.00  0.00    +0.000 C 
ATOM     33  C   UNL     1      -5.780  14.802  22.159  0.00  0.00    +0.000 C 
ATOM     34  H   UNL     1      -5.525  16.180  24.422  0.00  0.00    +0.000 HD
ENDBRANCH  25  28
ENDBRANCH   1  26
TORSDOF 5
ENDMDL
MODEL 9
REMARK VINA RESULT:      -8.3      1.038      1.452
REMARK  Name = 
REMARK  5 active torsions:
REMARK  status: ('A' for Active; 'I' for Inactive)
REMARK    1  A    between atoms: C_2  and  C_25
REMARK    2  A    between atoms: N_3  and  C_4
REMARK    3  A    between atoms: C_7  and  C_8
REMARK    4  A    between atoms: C_11  and  N_12
REMARK    5  A    between atoms: C_13  and  C_15
REMARK                            x       y       z     vdW  Elec       q    Type
REMARK                         _______ _______ _______ _____ _____    ______ ____
ROOT
ATOM      1  C   UNL     1       2.239   8.071  18.704  0.00  0.00    +0.000 A 
ATOM      2  C   UNL     1       1.929   7.928  20.052  0.00  0.00    +0.000 A 
ATOM      3  C   UNL     1       1.018   8.787  20.661  0.00  0.00    +0.000 A 
ATOM      4  C   UNL     1       0.400   9.838  19.960  0.00  0.00    +0.000 A 
ATOM      5  C   UNL     1       0.741   9.988  18.607  0.00  0.00    +0.000 A 
ATOM      6  C   UNL     1       1.657   9.121  17.987  0.00  0.00    +0.000 A 
ENDROOT
BRANCH   4   7
ATOM      7  C   UNL     1      -0.558  10.721  20.663  0.00  0.00    +0.000 A 
ATOM      8  C   UNL     1      -1.376  11.590  19.921  0.00  0.00    +0.000 A 
ATOM      9  C   UNL     1      -2.205  12.530  20.533  0.00  0.00    +0.000 A 
ATOM     10  C   UNL     1      -2.271  12.619  21.916  0.00  0.00    +0.000 A 
ATOM     11  C   UNL     1      -1.506  11.725  22.679  0.00  0.00    +0.000 A 
ATOM     12  C   UNL     1      -0.660  10.789  22.058  0.00  0.00    +0.000 A 
BRANCH  10  13
ATOM     13  N   UNL     1      -3.056  13.580  22.589  0.00  0.00    +0.000 N 
ATOM     14  C   UNL     1      -4.312  13.378  23.153  0.00  0.00    +0.000 C 
ATOM     15  O   UNL     1      -4.928  12.318  23.173  0.00  0.00    +0.000 OA
ATOM     16  H   UNL     1      -2.672  14.515  22.629  0.00  0.00    +0.000 HD
BRANCH  14  17
ATOM     17  C   UNL     1      -4.914  14.655  23.746  0.00  0.00    +0.000 C 
ATOM     18  C   UNL     1      -6.445  14.637  23.705  0.00  0.00    +0.000 C 
ATOM     19  C   UNL     1      -6.976  14.874  22.292  0.00  0.00    +0.000 C 
ATOM     20  N   UNL     1      -6.483  16.132  21.739  0.00  0.00    +0.000 NA
ATOM     21  C   UNL     1      -5.024  16.157  21.677  0.00  0.00    +0.000 C 
ATOM     22  C   UNL     1      -4.379  15.915  23.044  0.00  0.00    +0.000 C 
ATOM     23  H   UNL     1      -6.811  16.911  22.314  0.00  0.00    +0.000 HD
ENDBRANCH  14  17
ENDBRANCH  10  13
ENDBRANCH   4   7
BRANCH   1  26
ATOM     24  O   UNL     1       1.873   5.245  18.073  0.00  0.00    +0.000 OA
ATOM     25  C   UNL     1       2.904   5.853  17.806  0.00  0.00    +0.000 C 
ATOM     26  N   UNL     1       3.132   7.203  18.042  0.00  0.00    +0.000 N 
ATOM     27  H   UNL     1       3.916   7.635  17.570  0.00  0.00    +0.000 HD
BRANCH  25  28
ATOM     28  C   UNL     1       4.101   5.150  17.173  0.00  0.00    +0.000 C 
ATOM     29  C   UNL     1       3.993   3.624  17.314  0.00  0.00    +0.000 C 
ATOM     30  C   UNL     1       4.388   3.111  18.699  0.00  0.00    +0.000 C 
ATOM     31  N   UNL     1       5.691   3.624  19.118  0.00  0.00    +0.000 NA
ATOM     32  C   UNL     1       5.675   5.086  19.167  0.00  0.00    +0.000 C 
ATOM     33  C   UNL     1       5.401   5.683  17.785  0.00  0.00    +0.000 C 
ATOM     34  H   UNL     1       6.405   3.313  18.462  0.00  0.00    +0.000 HD
ENDBRANCH  25  28
ENDBRANCH   1  26
TORSDOF 5
ENDMDL
