MODEL 1
REMARK VINA RESULT:      -7.6      0.000      0.000
REMARK  Name = 
REMARK  7 active torsions:
REMARK  status: ('A' for Active; 'I' for Inactive)
REMARK    1  A    between atoms: C_1  and  C_2
REMARK    2  A    between atoms: C_4  and  O_5
REMARK    3  A    between atoms: C_13  and  N_14
REMARK    4  A    between atoms: N_14  and  C_15
REMARK    5  A    between atoms: N_14  and  C_16
REMARK    6  A    between atoms: C_19  and  C_20
REMARK    7  A    between atoms: C_24  and  C_25
REMARK                            x       y       z     vdW  Elec       q    Type
REMARK                         _______ _______ _______ _____ _____    ______ ____
ROOT
ATOM      1  C   UNL     1      -1.588  11.081  23.132  0.00  0.00    +0.000 C 
ATOM      2  C   UNL     1      -0.699  11.602  21.938  0.00  0.00    +0.000 C 
ATOM      3  C   UNL     1       0.251  10.815  21.343  0.00  0.00    +0.000 C 
ATOM      4  C   UNL     1       0.454   9.599  22.293  0.00  0.00    +0.000 C 
ATOM      5  C   UNL     1       0.011   8.564  21.321  0.00  0.00    +0.000 C 
ATOM      6  C   UNL     1       1.002   8.952  20.243  0.00  0.00    +0.000 C 
ATOM      7  C   UNL     1       1.567   7.754  19.677  0.00  0.00    +0.000 C 
ATOM      8  C   UNL     1       2.339   7.271  20.895  0.00  0.00    +0.000 C 
ATOM      9  C   UNL     1       2.182   5.853  20.798  0.00  0.00    +0.000 C 
ATOM     10  C   UNL     1       3.042   5.500  19.636  0.00  0.00    +0.000 C 
ATOM     11  C   UNL     1       3.260   4.074  19.996  0.00  0.00    +0.000 C 
ATOM     12  C   UNL     1       3.029   2.703  19.503  0.00  0.00    +0.000 C 
ATOM     13  C   UNL     1       3.162   3.082  17.905  0.00  0.00    +0.000 C 
ATOM     14  C   UNL     1       3.527   4.779  17.427  0.00  0.00    +0.000 C 
ATOM     15  C   UNL     1       2.605   5.941  18.165  0.00  0.00    +0.000 C 
ATOM     16  C   UNL     1       1.262   5.664  17.439  0.00  0.00    +0.000 C 
ATOM     17  C   UNL     1       2.561   7.700  18.460  0.00  0.00    +0.000 C 
ATOM     18  C   UNL     1       2.108   9.009  17.660  0.00  0.00    +0.000 C 
ATOM     19  C   UNL     1       1.762  10.399  18.622  0.00  0.00    +0.000 C 
ATOM     20  C   UNL     1       0.520  10.251  19.684  0.00  0.00    +0.000 C 
ATOM     21  C   UNL     1      -0.766  10.264  18.846  0.00  0.00    +0.000 C 
ENDROOT
BRANCH  12  22
ATOM     22  N   UNL     1       1.777   2.227  20.283  0.00  0.00    +0.000 NA
ATOM     23  C   UNL     1       1.811   2.582  21.698  0.00  0.00    +0.000 C 
ATOM     24  C   UNL     1       0.474   2.823  19.811  0.00  0.00    +0.000 C 
ENDBRANCH  12  22
BRANCH   4  25
ATOM     25  O   UNL     1       1.802   9.581  22.746  0.00  0.00    +0.000 OA
ATOM     26  H   UNL     1       1.814   9.108  23.597  0.00  0.00    +0.000 HD
ENDBRANCH   4  25
TORSDOF 2
ENDMDL
MODEL 2
REMARK VINA RESULT:      -6.5      1.004      1.334
REMARK  Name = 
REMARK  7 active torsions:
REMARK  status: ('A' for Active; 'I' for Inactive)
REMARK    1  A    between atoms: C_1  and  C_2
REMARK    2  A    between atoms: C_4  and  O_5
REMARK    3  A    between atoms: C_13  and  N_14
REMARK    4  A    between atoms: N_14  and  C_15
REMARK    5  A    between atoms: N_14  and  C_16
REMARK    6  A    between atoms: C_19  and  C_20
REMARK    7  A    between atoms: C_24  and  C_25
REMARK                            x       y       z     vdW  Elec       q    Type
REMARK                         _______ _______ _______ _____ _____    ______ ____
ROOT
ATOM      1  C   UNL     1      -2.566  11.531  23.400  0.00  0.00    +0.000 C 
ATOM      2  C   UNL     1      -1.548  12.221  22.412  0.00  0.00    +0.000 C 
ATOM      3  C   UNL     1      -0.512  11.531  21.840  0.00  0.00    +0.000 C 
ATOM      4  C   UNL     1      -0.400  10.196  22.631  0.00  0.00    +0.000 C 
ATOM      5  C   UNL     1      -0.693   9.304  21.477  0.00  0.00    +0.000 C 
ATOM      6  C   UNL     1       0.416   9.846  20.597  0.00  0.00    +0.000 C 
ATOM      7  C   UNL     1       1.076   8.743  19.947  0.00  0.00    +0.000 C 
ATOM      8  C   UNL     1       1.702   8.099  21.175  0.00  0.00    +0.000 C 
ATOM      9  C   UNL     1       1.592   6.707  20.864  0.00  0.00    +0.000 C 
ATOM     10  C   UNL     1       2.599   6.527  19.783  0.00  0.00    +0.000 C 
ATOM     11  C   UNL     1       2.805   5.066  19.967  0.00  0.00    +0.000 C 
ATOM     12  C   UNL     1       2.670   3.776  19.265  0.00  0.00    +0.000 C 
ATOM     13  C   UNL     1       2.993   4.377  17.764  0.00  0.00    +0.000 C 
ATOM     14  C   UNL     1       3.373   6.126  17.575  0.00  0.00    +0.000 C 
ATOM     15  C   UNL     1       2.338   7.166  18.344  0.00  0.00    +0.000 C 
ATOM     16  C   UNL     1       1.104   6.985  17.422  0.00  0.00    +0.000 C 
ATOM     17  C   UNL     1       2.215   8.867  18.871  0.00  0.00    +0.000 C 
ATOM     18  C   UNL     1       1.833  10.272  18.209  0.00  0.00    +0.000 C 
ATOM     19  C   UNL     1       1.336  11.510  19.301  0.00  0.00    +0.000 C 
ATOM     20  C   UNL     1      -0.025  11.207  20.166  0.00  0.00    +0.000 C 
ATOM     21  C   UNL     1      -1.196  11.329  19.182  0.00  0.00    +0.000 C 
ENDROOT
BRANCH  12  22
ATOM     22  N   UNL     1       1.344   3.187  19.805  0.00  0.00    +0.000 NA
ATOM     23  C   UNL     1       0.787   2.142  18.952  0.00  0.00    +0.000 C 
ATOM     24  C   UNL     1       1.454   2.510  21.149  0.00  0.00    +0.000 C 
ENDBRANCH  12  22
BRANCH   4  25
ATOM     25  O   UNL     1       0.881  10.123  23.244  0.00  0.00    +0.000 OA
ATOM     26  H   UNL     1       1.542  10.099  22.530  0.00  0.00    +0.000 HD
ENDBRANCH   4  25
TORSDOF 2
ENDMDL
MODEL 3
REMARK VINA RESULT:      -5.9      9.390     11.788
REMARK  Name = 
REMARK  7 active torsions:
REMARK  status: ('A' for Active; 'I' for Inactive)
REMARK    1  A    between atoms: C_1  and  C_2
REMARK    2  A    between atoms: C_4  and  O_5
REMARK    3  A    between atoms: C_13  and  N_14
REMARK    4  A    between atoms: N_14  and  C_15
REMARK    5  A    between atoms: N_14  and  C_16
REMARK    6  A    between atoms: C_19  and  C_20
REMARK    7  A    between atoms: C_24  and  C_25
REMARK                            x       y       z     vdW  Elec       q    Type
REMARK                         _______ _______ _______ _____ _____    ______ ____
ROOT
ATOM      1  C   UNL     1      10.834  16.381  16.707  0.00  0.00    +0.000 C 
ATOM      2  C   UNL     1      11.184  14.874  17.016  0.00  0.00    +0.000 C 
ATOM      3  C   UNL     1      11.018  14.331  18.263  0.00  0.00    +0.000 C 
ATOM      4  C   UNL     1      10.809  15.535  19.228  0.00  0.00    +0.000 C 
ATOM      5  C   UNL     1       9.438  15.154  19.659  0.00  0.00    +0.000 C 
ATOM      6  C   UNL     1       9.820  13.766  20.131  0.00  0.00    +0.000 C 
ATOM      7  C   UNL     1       9.166  13.504  21.387  0.00  0.00    +0.000 C 
ATOM      8  C   UNL     1       9.899  14.526  22.242  0.00  0.00    +0.000 C 
ATOM      9  C   UNL     1       8.861  14.972  23.120  0.00  0.00    +0.000 C 
ATOM     10  C   UNL     1       8.657  13.803  24.016  0.00  0.00    +0.000 C 
ATOM     11  C   UNL     1       8.057  14.547  25.155  0.00  0.00    +0.000 C 
ATOM     12  C   UNL     1       6.824  14.646  25.958  0.00  0.00    +0.000 C 
ATOM     13  C   UNL     1       6.425  13.051  25.836  0.00  0.00    +0.000 C 
ATOM     14  C   UNL     1       7.510  11.936  24.930  0.00  0.00    +0.000 C 
ATOM     15  C   UNL     1       7.994  12.470  23.439  0.00  0.00    +0.000 C 
ATOM     16  C   UNL     1       6.644  12.315  22.690  0.00  0.00    +0.000 C 
ATOM     17  C   UNL     1       9.209  12.143  22.173  0.00  0.00    +0.000 C 
ATOM     18  C   UNL     1       9.387  11.116  20.959  0.00  0.00    +0.000 C 
ATOM     19  C   UNL     1      10.479  11.600  19.716  0.00  0.00    +0.000 C 
ATOM     20  C   UNL     1      10.082  12.966  18.897  0.00  0.00    +0.000 C 
ATOM     21  C   UNL     1       8.901  12.595  17.990  0.00  0.00    +0.000 C 
ENDROOT
BRANCH  12  22
ATOM     22  N   UNL     1       6.087  15.874  25.370  0.00  0.00    +0.000 NA
ATOM     23  C   UNL     1       5.256  15.549  24.216  0.00  0.00    +0.000 C 
ATOM     24  C   UNL     1       5.117  16.540  26.314  0.00  0.00    +0.000 C 
ENDBRANCH  12  22
BRANCH   4  25
ATOM     25  O   UNL     1      11.853  15.545  20.194  0.00  0.00    +0.000 OA
ATOM     26  H   UNL     1      12.370  14.731  20.068  0.00  0.00    +0.000 HD
ENDBRANCH   4  25
TORSDOF 2
ENDMDL
MODEL 4
REMARK VINA RESULT:      -5.8      4.929      7.852
REMARK  Name = 
REMARK  7 active torsions:
REMARK  status: ('A' for Active; 'I' for Inactive)
REMARK    1  A    between atoms: C_1  and  C_2
REMARK    2  A    between atoms: C_4  and  O_5
REMARK    3  A    between atoms: C_13  and  N_14
REMARK    4  A    between atoms: N_14  and  C_15
REMARK    5  A    between atoms: N_14  and  C_16
REMARK    6  A    between atoms: C_19  and  C_20
REMARK    7  A    between atoms: C_24  and  C_25
REMARK                            x       y       z     vdW  Elec       q    Type
REMARK                         _______ _______ _______ _____ _____    ______ ____
ROOT
ATOM      1  C   UNL     1      -7.332  14.192  24.201  0.00  0.00    +0.000 C 
ATOM      2  C   UNL     1      -7.909  14.199  22.733  0.00  0.00    +0.000 C 
ATOM      3  C   UNL     1      -7.117  13.961  21.641  0.00  0.00    +0.000 C 
ATOM      4  C   UNL     1      -5.649  14.072  22.146  0.00  0.00    +0.000 C 
ATOM      5  C   UNL     1      -5.270  12.668  21.837  0.00  0.00    +0.000 C 
ATOM      6  C   UNL     1      -5.654  12.739  20.372  0.00  0.00    +0.000 C 
ATOM      7  C   UNL     1      -4.632  12.091  19.591  0.00  0.00    +0.000 C 
ATOM      8  C   UNL     1      -3.497  13.072  19.844  0.00  0.00    +0.000 C 
ATOM      9  C   UNL     1      -2.366  12.200  19.916  0.00  0.00    +0.000 C 
ATOM     10  C   UNL     1      -2.188  11.767  18.503  0.00  0.00    +0.000 C 
ATOM     11  C   UNL     1      -0.751  11.399  18.604  0.00  0.00    +0.000 C 
ATOM     12  C   UNL     1       0.168  10.254  18.464  0.00  0.00    +0.000 C 
ATOM     13  C   UNL     1      -0.700   9.495  17.286  0.00  0.00    +0.000 C 
ATOM     14  C   UNL     1      -2.210  10.258  16.671  0.00  0.00    +0.000 C 
ATOM     15  C   UNL     1      -3.262  10.794  17.833  0.00  0.00    +0.000 C 
ATOM     16  C   UNL     1      -3.760   9.416  18.344  0.00  0.00    +0.000 C 
ATOM     17  C   UNL     1      -4.685  11.851  18.038  0.00  0.00    +0.000 C 
ATOM     18  C   UNL     1      -6.265  11.741  17.818  0.00  0.00    +0.000 C 
ATOM     19  C   UNL     1      -7.230  12.866  18.700  0.00  0.00    +0.000 C 
ATOM     20  C   UNL     1      -7.147  12.762  20.336  0.00  0.00    +0.000 C 
ATOM     21  C   UNL     1      -7.916  11.493  20.725  0.00  0.00    +0.000 C 
ENDROOT
BRANCH  12  22
ATOM     22  N   UNL     1       0.427   9.797  19.921  0.00  0.00    +0.000 NA
ATOM     23  C   UNL     1       1.440   8.752  20.025  0.00  0.00    +0.000 C 
ATOM     24  C   UNL     1       0.950  10.874  20.838  0.00  0.00    +0.000 C 
ENDBRANCH  12  22
BRANCH   4  25
ATOM     25  O   UNL     1      -4.995  15.127  21.452  0.00  0.00    +0.000 OA
ATOM     26  H   UNL     1      -5.447  15.955  21.693  0.00  0.00    +0.000 HD
ENDBRANCH   4  25
TORSDOF 2
ENDMDL
MODEL 5
REMARK VINA RESULT:      -5.8      8.241     11.315
REMARK  Name = 
REMARK  7 active torsions:
REMARK  status: ('A' for Active; 'I' for Inactive)
REMARK    1  A    between atoms: C_1  and  C_2
REMARK    2  A    between atoms: C_4  and  O_5
REMARK    3  A    between atoms: C_13  and  N_14
REMARK    4  A    between atoms: N_14  and  C_15
REMARK    5  A    between atoms: N_14  and  C_16
REMARK    6  A    between atoms: C_19  and  C_20
REMARK    7  A    between atoms: C_24  and  C_25
REMARK                            x       y       z     vdW  Elec       q    Type
REMARK                         _______ _______ _______ _____ _____    ______ ____
ROOT
ATOM      1  C   UNL     1      11.845  11.624  19.072  0.00  0.00    +0.000 C 
ATOM      2  C   UNL     1      11.992  13.146  19.460  0.00  0.00    +0.000 C 
ATOM      3  C   UNL     1      10.975  14.044  19.271  0.00  0.00    +0.000 C 
ATOM      4  C   UNL     1       9.948  13.336  18.340  0.00  0.00    +0.000 C 
ATOM      5  C   UNL     1       8.822  13.346  19.311  0.00  0.00    +0.000 C 
ATOM      6  C   UNL     1       8.846  14.844  19.537  0.00  0.00    +0.000 C 
ATOM      7  C   UNL     1       7.492  15.336  19.547  0.00  0.00    +0.000 C 
ATOM      8  C   UNL     1       7.144  15.070  18.090  0.00  0.00    +0.000 C 
ATOM      9  C   UNL     1       5.773  14.677  18.183  0.00  0.00    +0.000 C 
ATOM     10  C   UNL     1       5.081  15.952  18.514  0.00  0.00    +0.000 C 
ATOM     11  C   UNL     1       3.735  15.565  18.017  0.00  0.00    +0.000 C 
ATOM     12  C   UNL     1       2.343  15.366  18.464  0.00  0.00    +0.000 C 
ATOM     13  C   UNL     1       2.385  16.526  19.635  0.00  0.00    +0.000 C 
ATOM     14  C   UNL     1       3.886  17.491  19.869  0.00  0.00    +0.000 C 
ATOM     15  C   UNL     1       5.290  16.616  19.951  0.00  0.00    +0.000 C 
ATOM     16  C   UNL     1       5.078  15.971  21.346  0.00  0.00    +0.000 C 
ATOM     17  C   UNL     1       7.061  16.816  19.853  0.00  0.00    +0.000 C 
ATOM     18  C   UNL     1       8.243  17.264  20.832  0.00  0.00    +0.000 C 
ATOM     19  C   UNL     1       9.827  16.744  20.389  0.00  0.00    +0.000 C 
ATOM     20  C   UNL     1      10.069  15.122  20.349  0.00  0.00    +0.000 C 
ATOM     21  C   UNL     1      10.109  14.656  21.811  0.00  0.00    +0.000 C 
ENDROOT
BRANCH  12  22
ATOM     22  N   UNL     1       2.214  13.831  18.629  0.00  0.00    +0.000 NA
ATOM     23  C   UNL     1       2.572  13.363  19.963  0.00  0.00    +0.000 C 
ATOM     24  C   UNL     1       0.819  13.291  18.439  0.00  0.00    +0.000 C 
ENDBRANCH  12  22
BRANCH   4  25
ATOM     25  O   UNL     1       9.821  14.081  17.135  0.00  0.00    +0.000 OA
ATOM     26  H   UNL     1      10.290  14.924  17.266  0.00  0.00    +0.000 HD
ENDBRANCH   4  25
TORSDOF 2
ENDMDL
MODEL 6
REMARK VINA RESULT:      -5.6      4.842      9.476
REMARK  Name = 
REMARK  7 active torsions:
REMARK  status: ('A' for Active; 'I' for Inactive)
REMARK    1  A    between atoms: C_1  and  C_2
REMARK    2  A    between atoms: C_4  and  O_5
REMARK    3  A    between atoms: C_13  and  N_14
REMARK    4  A    between atoms: N_14  and  C_15
REMARK    5  A    between atoms: N_14  and  C_16
REMARK    6  A    between atoms: C_19  and  C_20
REMARK    7  A    between atoms: C_24  and  C_25
REMARK                            x       y       z     vdW  Elec       q    Type
REMARK                         _______ _______ _______ _____ _____    ______ ____
ROOT
ATOM      1  C   UNL     1       2.159   9.510  18.222  0.00  0.00    +0.000 C 
ATOM      2  C   UNL     1       0.631   9.519  17.830  0.00  0.00    +0.000 C 
ATOM      3  C   UNL     1      -0.332  10.001  18.676  0.00  0.00    +0.000 C 
ATOM      4  C   UNL     1       0.351  10.135  20.068  0.00  0.00    +0.000 C 
ATOM      5  C   UNL     1       0.182  11.608  20.185  0.00  0.00    +0.000 C 
ATOM      6  C   UNL     1      -1.322  11.591  19.993  0.00  0.00    +0.000 C 
ATOM      7  C   UNL     1      -1.923  12.491  20.944  0.00  0.00    +0.000 C 
ATOM      8  C   UNL     1      -1.587  11.732  22.218  0.00  0.00    +0.000 C 
ATOM      9  C   UNL     1      -1.315  12.798  23.132  0.00  0.00    +0.000 C 
ATOM     10  C   UNL     1      -2.662  13.379  23.378  0.00  0.00    +0.000 C 
ATOM     11  C   UNL     1      -2.354  14.010  24.688  0.00  0.00    +0.000 C 
ATOM     12  C   UNL     1      -2.302  15.320  25.364  0.00  0.00    +0.000 C 
ATOM     13  C   UNL     1      -3.532  15.995  24.499  0.00  0.00    +0.000 C 
ATOM     14  C   UNL     1      -4.384  15.009  23.257  0.00  0.00    +0.000 C 
ATOM     15  C   UNL     1      -3.404  14.179  22.211  0.00  0.00    +0.000 C 
ATOM     16  C   UNL     1      -2.876  15.383  21.387  0.00  0.00    +0.000 C 
ATOM     17  C   UNL     1      -3.451  12.851  21.020  0.00  0.00    +0.000 C 
ATOM     18  C   UNL     1      -3.866  12.670  19.486  0.00  0.00    +0.000 C 
ATOM     19  C   UNL     1      -3.188  11.306  18.678  0.00  0.00    +0.000 C 
ATOM     20  C   UNL     1      -1.553  11.281  18.551  0.00  0.00    +0.000 C 
ATOM     21  C   UNL     1      -1.187  12.337  17.499  0.00  0.00    +0.000 C 
ENDROOT
BRANCH  12  22
ATOM     22  N   UNL     1      -0.798  15.690  25.356  0.00  0.00    +0.000 NA
ATOM     23  C   UNL     1      -0.402  16.465  24.185  0.00  0.00    +0.000 C 
ATOM     24  C   UNL     1      -0.355  16.558  26.507  0.00  0.00    +0.000 C 
ENDBRANCH  12  22
BRANCH   4  25
ATOM     25  O   UNL     1      -0.318   9.292  20.998  0.00  0.00    +0.000 OA
ATOM     26  H   UNL     1      -1.268   9.494  20.939  0.00  0.00    +0.000 HD
ENDBRANCH   4  25
TORSDOF 2
ENDMDL
MODEL 7
REMARK VINA RESULT:      -5.6      9.246     10.676
REMARK  Name = 
REMARK  7 active torsions:
REMARK  status: ('A' for Active; 'I' for Inactive)
REMARK    1  A    between atoms: C_1  and  C_2
REMARK    2  A    between atoms: C_4  and  O_5
REMARK    3  A    between atoms: C_13  and  N_14
REMARK    4  A    between atoms: N_14  and  C_15
REMARK    5  A    between atoms: N_14  and  C_16
REMARK    6  A    between atoms: C_19  and  C_20
REMARK    7  A    between atoms: C_24  and  C_25
REMARK                            x       y       z     vdW  Elec       q    Type
REMARK                         _______ _______ _______ _____ _____    ______ ____
ROOT
ATOM      1  C   UNL     1       5.316  13.327  26.437  0.00  0.00    +0.000 C 
ATOM      2  C   UNL     1       6.444  14.430  26.457  0.00  0.00    +0.000 C 
ATOM      3  C   UNL     1       7.513  14.390  25.602  0.00  0.00    +0.000 C 
ATOM      4  C   UNL     1       7.513  12.960  24.986  0.00  0.00    +0.000 C 
ATOM      5  C   UNL     1       7.312  13.396  23.578  0.00  0.00    +0.000 C 
ATOM      6  C   UNL     1       8.516  14.317  23.545  0.00  0.00    +0.000 C 
ATOM      7  C   UNL     1       9.209  14.132  22.296  0.00  0.00    +0.000 C 
ATOM      8  C   UNL     1       9.694  12.707  22.514  0.00  0.00    +0.000 C 
ATOM      9  C   UNL     1       9.580  12.154  21.200  0.00  0.00    +0.000 C 
ATOM     10  C   UNL     1      10.684  12.823  20.460  0.00  0.00    +0.000 C 
ATOM     11  C   UNL     1      10.834  11.801  19.391  0.00  0.00    +0.000 C 
ATOM     12  C   UNL     1      10.737  11.625  17.930  0.00  0.00    +0.000 C 
ATOM     13  C   UNL     1      11.221  13.154  17.552  0.00  0.00    +0.000 C 
ATOM     14  C   UNL     1      11.662  14.294  18.874  0.00  0.00    +0.000 C 
ATOM     15  C   UNL     1      10.583  14.381  20.128  0.00  0.00    +0.000 C 
ATOM     16  C   UNL     1       9.441  15.135  19.396  0.00  0.00    +0.000 C 
ATOM     17  C   UNL     1      10.451  14.964  21.810  0.00  0.00    +0.000 C 
ATOM     18  C   UNL     1      10.172  16.355  22.547  0.00  0.00    +0.000 C 
ATOM     19  C   UNL     1       9.602  16.247  24.171  0.00  0.00    +0.000 C 
ATOM     20  C   UNL     1       8.155  15.501  24.380  0.00  0.00    +0.000 C 
ATOM     21  C   UNL     1       7.090  16.477  23.860  0.00  0.00    +0.000 C 
ENDROOT
BRANCH  12  22
ATOM     22  N   UNL     1       9.349  10.971  17.719  0.00  0.00    +0.000 NA
ATOM     23  C   UNL     1       9.014   9.987  18.744  0.00  0.00    +0.000 C 
ATOM     24  C   UNL     1       8.185  11.929  17.770  0.00  0.00    +0.000 C 
ENDBRANCH  12  22
BRANCH   4  25
ATOM     25  O   UNL     1       8.725  12.302  25.334  0.00  0.00    +0.000 OA
ATOM     26  H   UNL     1       9.429  12.685  24.781  0.00  0.00    +0.000 HD
ENDBRANCH   4  25
TORSDOF 2
ENDMDL
MODEL 8
REMARK VINA RESULT:      -5.5      4.530      9.295
REMARK  Name = 
REMARK  7 active torsions:
REMARK  status: ('A' for Active; 'I' for Inactive)
REMARK    1  A    between atoms: C_1  and  C_2
REMARK    2  A    between atoms: C_4  and  O_5
REMARK    3  A    between atoms: C_13  and  N_14
REMARK    4  A    between atoms: N_14  and  C_15
REMARK    5  A    between atoms: N_14  and  C_16
REMARK    6  A    between atoms: C_19  and  C_20
REMARK    7  A    between atoms: C_24  and  C_25
REMARK                            x       y       z     vdW  Elec       q    Type
REMARK                         _______ _______ _______ _____ _____    ______ ____
ROOT
ATOM      1  C   UNL     1       1.761   8.628  18.484  0.00  0.00    +0.000 C 
ATOM      2  C   UNL     1       2.103  10.130  18.141  0.00  0.00    +0.000 C 
ATOM      3  C   UNL     1       1.195  11.140  18.320  0.00  0.00    +0.000 C 
ATOM      4  C   UNL     1      -0.181  10.444  18.533  0.00  0.00    +0.000 C 
ATOM      5  C   UNL     1      -0.406  10.960  19.909  0.00  0.00    +0.000 C 
ATOM      6  C   UNL     1      -0.262  12.422  19.535  0.00  0.00    +0.000 C 
ATOM      7  C   UNL     1      -1.292  13.178  20.201  0.00  0.00    +0.000 C 
ATOM      8  C   UNL     1      -2.499  12.607  19.472  0.00  0.00    +0.000 C 
ATOM      9  C   UNL     1      -3.475  12.558  20.516  0.00  0.00    +0.000 C 
ATOM     10  C   UNL     1      -3.804  13.993  20.732  0.00  0.00    +0.000 C 
ATOM     11  C   UNL     1      -5.145  13.785  21.338  0.00  0.00    +0.000 C 
ATOM     12  C   UNL     1      -5.909  14.021  22.578  0.00  0.00    +0.000 C 
ATOM     13  C   UNL     1      -5.134  15.418  22.981  0.00  0.00    +0.000 C 
ATOM     14  C   UNL     1      -3.853  16.064  21.893  0.00  0.00    +0.000 C 
ATOM     15  C   UNL     1      -2.721  14.962  21.394  0.00  0.00    +0.000 C 
ATOM     16  C   UNL     1      -1.967  14.783  22.738  0.00  0.00    +0.000 C 
ATOM     17  C   UNL     1      -1.441  14.742  20.169  0.00  0.00    +0.000 C 
ATOM     18  C   UNL     1       0.087  15.173  19.984  0.00  0.00    +0.000 C 
ATOM     19  C   UNL     1       1.011  14.224  18.880  0.00  0.00    +0.000 C 
ATOM     20  C   UNL     1       1.191  12.639  19.265  0.00  0.00    +0.000 C 
ATOM     21  C   UNL     1       2.177  12.592  20.440  0.00  0.00    +0.000 C 
ENDROOT
BRANCH  12  22
ATOM     22  N   UNL     1      -5.880  12.654  23.306  0.00  0.00    +0.000 NA
ATOM     23  C   UNL     1      -4.883  12.591  24.370  0.00  0.00    +0.000 C 
ATOM     24  C   UNL     1      -7.160  12.287  24.014  0.00  0.00    +0.000 C 
ENDBRANCH  12  22
BRANCH   4  25
ATOM     25  O   UNL     1      -1.071  10.842  17.497  0.00  0.00    +0.000 OA
ATOM     26  H   UNL     1      -1.511  10.038  17.171  0.00  0.00    +0.000 HD
ENDBRANCH   4  25
TORSDOF 2
ENDMDL
MODEL 9
REMARK VINA RESULT:      -5.5      9.164     10.936
REMARK  Name = 
REMARK  7 active torsions:
REMARK  status: ('A' for Active; 'I' for Inactive)
REMARK    1  A    between atoms: C_1  and  C_2
REMARK    2  A    between atoms: C_4  and  O_5
REMARK    3  A    between atoms: C_13  and  N_14
REMARK    4  A    between atoms: N_14  and  C_15
REMARK    5  A    between atoms: N_14  and  C_16
REMARK    6  A    between atoms: C_19  and  C_20
REMARK    7  A    between atoms: C_24  and  C_25
REMARK                            x       y       z     vdW  Elec       q    Type
REMARK                         _______ _______ _______ _____ _____    ______ ____
ROOT
ATOM      1  C   UNL     1       5.423  11.269  26.195  0.00  0.00    +0.000 C 
ATOM      2  C   UNL     1       6.213  12.589  26.542  0.00  0.00    +0.000 C 
ATOM      3  C   UNL     1       7.231  13.054  25.752  0.00  0.00    +0.000 C 
ATOM      4  C   UNL     1       7.600  11.882  24.797  0.00  0.00    +0.000 C 
ATOM      5  C   UNL     1       7.253  12.591  23.537  0.00  0.00    +0.000 C 
ATOM      6  C   UNL     1       8.163  13.776  23.789  0.00  0.00    +0.000 C 
ATOM      7  C   UNL     1       8.848  14.107  22.566  0.00  0.00    +0.000 C 
ATOM      8  C   UNL     1       9.704  12.856  22.440  0.00  0.00    +0.000 C 
ATOM      9  C   UNL     1       9.710  12.645  21.026  0.00  0.00    +0.000 C 
ATOM     10  C   UNL     1      10.573  13.749  20.527  0.00  0.00    +0.000 C 
ATOM     11  C   UNL     1      10.965  13.110  19.243  0.00  0.00    +0.000 C 
ATOM     12  C   UNL     1      10.881  13.292  17.782  0.00  0.00    +0.000 C 
ATOM     13  C   UNL     1      10.926  14.939  17.822  0.00  0.00    +0.000 C 
ATOM     14  C   UNL     1      11.078  15.780  19.407  0.00  0.00    +0.000 C 
ATOM     15  C   UNL     1      10.048  15.256  20.593  0.00  0.00    +0.000 C 
ATOM     16  C   UNL     1       8.727  15.837  20.024  0.00  0.00    +0.000 C 
ATOM     17  C   UNL     1       9.808  15.335  22.360  0.00  0.00    +0.000 C 
ATOM     18  C   UNL     1       9.184  16.366  23.410  0.00  0.00    +0.000 C 
ATOM     19  C   UNL     1       8.705  15.701  24.928  0.00  0.00    +0.000 C 
ATOM     20  C   UNL     1       7.518  14.569  24.878  0.00  0.00    +0.000 C 
ATOM     21  C   UNL     1       6.217  15.325  24.573  0.00  0.00    +0.000 C 
ENDROOT
BRANCH  12  22
ATOM     22  N   UNL     1       9.715  12.367  17.352  0.00  0.00    +0.000 NA
ATOM     23  C   UNL     1       9.704  11.089  18.057  0.00  0.00    +0.000 C 
ATOM     24  C   UNL     1       8.338  12.920  17.622  0.00  0.00    +0.000 C 
ENDBRANCH  12  22
BRANCH   4  25
ATOM     25  O   UNL     1       8.953  11.505  25.022  0.00  0.00    +0.000 OA
ATOM     26  H   UNL     1       9.404  12.272  25.417  0.00  0.00    +0.000 HD
ENDBRANCH   4  25
TORSDOF 2
ENDMDL
