MODEL 1
REMARK VINA RESULT:      -6.8      0.000      0.000
REMARK  Name = 
REMARK  15 active torsions:
REMARK  status: ('A' for Active; 'I' for Inactive)
REMARK    1  A    between atoms: C_1  and  C_2
REMARK    2  A    between atoms: C_2  and  C_3
REMARK    3  A    between atoms: C_3  and  C_4
REMARK    4  A    between atoms: C_4  and  O_5
REMARK    5  A    between atoms: C_4  and  C_6
REMARK    6  A    between atoms: C_6  and  O_7
REMARK    7  A    between atoms: C_6  and  C_12
REMARK    8  A    between atoms: O_7  and  S_8
REMARK    9  A    between atoms: C_12  and  O_13
REMARK   10  A    between atoms: C_12  and  C_14
REMARK   11  A    between atoms: C_14  and  S_15
REMARK   12  A    between atoms: C_17  and  O_18
REMARK   13  A    between atoms: C_19  and  O_20
REMARK   14  A    between atoms: C_21  and  C_22
REMARK   15  A    between atoms: C_22  and  O_23
REMARK                            x       y       z     vdW  Elec       q    Type
REMARK                         _______ _______ _______ _____ _____    ______ ____
ROOT
ATOM      1  C   UNL     1       5.234   4.099  17.166  0.00  0.00    +0.000 C 
ENDROOT
BRANCH   1   2
ATOM      2  O   UNL     1       4.060   4.716  16.622  0.00  0.00    +0.000 OA
ATOM      3  H   UNL     1       3.903   4.284  15.758  0.00  0.00    +0.000 HD
ENDBRANCH   1   2
BRANCH   1   4
ATOM      4  C   UNL     1       6.468   5.025  16.974  0.00  0.00    +0.000 C 
BRANCH   4   5
ATOM      5  C   UNL     1       7.423   5.010  18.197  0.00  0.00    +0.000 C 
BRANCH   5   6
ATOM      6  O   UNL     1       8.538   4.142  17.922  0.00  0.00    +0.000 OA
ATOM      7  H   UNL     1       8.190   3.235  18.059  0.00  0.00    +0.000 HD
ENDBRANCH   5   6
BRANCH   5   8
ATOM      8  C   UNL     1       8.010   6.364  18.621  0.00  0.00    +0.000 C 
BRANCH   8  10
ATOM      9  C   UNL     1       8.332   8.805  18.106  0.00  0.00    +0.000 C 
ATOM     10  C   UNL     1       7.668   7.507  17.671  0.00  0.00    +0.000 C 
ENDBRANCH   8  10
ENDBRANCH   5   8
ENDBRANCH   4   5
BRANCH   4  11
ATOM     11  O   UNL     1       7.265   4.558  15.879  0.00  0.00    +0.000 OA
BRANCH  11  12
ATOM     12  S   UNL     1       6.899   5.002  14.358  0.00  0.00    +0.000 S 
ATOM     13  O   UNL     1       6.550   3.730  13.702  0.00  0.00    +0.000 OA
ATOM     14  O   UNL     1       5.830   5.979  14.490  0.00  0.00    +0.000 OA
ATOM     15  O   UNL     1       8.168   5.575  13.888  0.00  0.00    +0.000 OA
ENDBRANCH  11  12
ENDBRANCH   4  11
ENDBRANCH   1   4
BRANCH   1  16
ATOM     16  C   UNL     1       4.864   3.803  18.628  0.00  0.00    +0.000 C 
BRANCH  16  17
ATOM     17  S   UNL     1       3.149   3.162  18.730  0.00  0.00    +0.000 S 
ATOM     18  C   UNL     1       3.284   2.478  20.411  0.00  0.00    +0.000 C 
ATOM     19  C   UNL     1       1.873   2.610  20.948  0.00  0.00    +0.000 C 
ATOM     20  C   UNL     1       1.378   4.032  20.577  0.00  0.00    +0.000 C 
ATOM     21  C   UNL     1       2.203   4.585  19.381  0.00  0.00    +0.000 C 
BRANCH  19  22
ATOM     22  O   UNL     1       1.824   2.379  22.352  0.00  0.00    +0.000 OA
ATOM     23  H   UNL     1       0.916   2.122  22.588  0.00  0.00    +0.000 HD
ENDBRANCH  19  22
BRANCH  20  24
ATOM     24  O   UNL     1      -0.010   3.973  20.208  0.00  0.00    +0.000 OA
ATOM     25  H   UNL     1      -0.389   3.194  20.655  0.00  0.00    +0.000 HD
ENDBRANCH  20  24
BRANCH  21  26
ATOM     26  C   UNL     1       3.016   5.820  19.778  0.00  0.00    +0.000 C 
BRANCH  26  27
ATOM     27  O   UNL     1       2.205   6.775  20.461  0.00  0.00    +0.000 OA
ATOM     28  H   UNL     1       1.900   7.426  19.806  0.00  0.00    +0.000 HD
ENDBRANCH  26  27
ENDBRANCH  21  26
ENDBRANCH  16  17
ENDBRANCH   1  16
TORSDOF 14
ENDMDL
MODEL 2
REMARK VINA RESULT:      -6.7      2.457      4.054
REMARK  Name = 
REMARK  15 active torsions:
REMARK  status: ('A' for Active; 'I' for Inactive)
REMARK    1  A    between atoms: C_1  and  C_2
REMARK    2  A    between atoms: C_2  and  C_3
REMARK    3  A    between atoms: C_3  and  C_4
REMARK    4  A    between atoms: C_4  and  O_5
REMARK    5  A    between atoms: C_4  and  C_6
REMARK    6  A    between atoms: C_6  and  O_7
REMARK    7  A    between atoms: C_6  and  C_12
REMARK    8  A    between atoms: O_7  and  S_8
REMARK    9  A    between atoms: C_12  and  O_13
REMARK   10  A    between atoms: C_12  and  C_14
REMARK   11  A    between atoms: C_14  and  S_15
REMARK   12  A    between atoms: C_17  and  O_18
REMARK   13  A    between atoms: C_19  and  O_20
REMARK   14  A    between atoms: C_21  and  C_22
REMARK   15  A    between atoms: C_22  and  O_23
REMARK                            x       y       z     vdW  Elec       q    Type
REMARK                         _______ _______ _______ _____ _____    ______ ____
ROOT
ATOM      1  C   UNL     1       4.426   5.577  16.869  0.00  0.00    +0.000 C 
ENDROOT
BRANCH   1   2
ATOM      2  O   UNL     1       4.276   6.572  17.891  0.00  0.00    +0.000 OA
ATOM      3  H   UNL     1       4.675   6.191  18.699  0.00  0.00    +0.000 HD
ENDBRANCH   1   2
BRANCH   1   4
ATOM      4  C   UNL     1       5.924   5.190  16.708  0.00  0.00    +0.000 C 
BRANCH   4   5
ATOM      5  C   UNL     1       6.403   5.256  15.234  0.00  0.00    +0.000 C 
BRANCH   5   6
ATOM      6  O   UNL     1       7.782   4.848  15.162  0.00  0.00    +0.000 OA
ATOM      7  H   UNL     1       8.051   4.706  16.094  0.00  0.00    +0.000 HD
ENDBRANCH   5   6
BRANCH   5   8
ATOM      8  C   UNL     1       5.632   4.390  14.225  0.00  0.00    +0.000 C 
BRANCH   8  10
ATOM      9  C   UNL     1       5.662   3.094  12.071  0.00  0.00    +0.000 C 
ATOM     10  C   UNL     1       6.496   3.862  13.086  0.00  0.00    +0.000 C 
ENDBRANCH   8  10
ENDBRANCH   5   8
ENDBRANCH   4   5
BRANCH   4  11
ATOM     11  O   UNL     1       6.750   6.128  17.406  0.00  0.00    +0.000 OA
BRANCH  11  12
ATOM     12  S   UNL     1       7.560   5.666  18.739  0.00  0.00    +0.000 S 
ATOM     13  O   UNL     1       8.460   6.800  19.006  0.00  0.00    +0.000 OA
ATOM     14  O   UNL     1       6.536   5.402  19.737  0.00  0.00    +0.000 OA
ATOM     15  O   UNL     1       8.258   4.460  18.276  0.00  0.00    +0.000 OA
ENDBRANCH  11  12
ENDBRANCH   4  11
ENDBRANCH   1   4
BRANCH   1  16
ATOM     16  C   UNL     1       3.503   4.434  17.315  0.00  0.00    +0.000 C 
BRANCH  16  17
ATOM     17  S   UNL     1       2.973   4.687  19.051  0.00  0.00    +0.000 S 
ATOM     18  C   UNL     1       1.306   3.979  18.865  0.00  0.00    +0.000 C 
ATOM     19  C   UNL     1       1.024   3.404  20.238  0.00  0.00    +0.000 C 
ATOM     20  C   UNL     1       2.298   2.639  20.680  0.00  0.00    +0.000 C 
ATOM     21  C   UNL     1       3.531   3.162  19.892  0.00  0.00    +0.000 C 
BRANCH  19  22
ATOM     22  O   UNL     1      -0.126   2.563  20.227  0.00  0.00    +0.000 OA
ATOM     23  H   UNL     1      -0.818   3.001  19.701  0.00  0.00    +0.000 HD
ENDBRANCH  19  22
BRANCH  20  24
ATOM     24  O   UNL     1       2.513   2.845  22.087  0.00  0.00    +0.000 OA
ATOM     25  H   UNL     1       1.925   3.572  22.361  0.00  0.00    +0.000 HD
ENDBRANCH  20  24
BRANCH  21  26
ATOM     26  C   UNL     1       4.134   2.074  19.000  0.00  0.00    +0.000 C 
BRANCH  26  27
ATOM     27  O   UNL     1       3.137   1.155  18.559  0.00  0.00    +0.000 OA
ATOM     28  H   UNL     1       2.404   1.672  18.181  0.00  0.00    +0.000 HD
ENDBRANCH  26  27
ENDBRANCH  21  26
ENDBRANCH  16  17
ENDBRANCH   1  16
TORSDOF 14
ENDMDL
MODEL 3
REMARK VINA RESULT:      -6.6      1.750      2.658
REMARK  Name = 
REMARK  15 active torsions:
REMARK  status: ('A' for Active; 'I' for Inactive)
REMARK    1  A    between atoms: C_1  and  C_2
REMARK    2  A    between atoms: C_2  and  C_3
REMARK    3  A    between atoms: C_3  and  C_4
REMARK    4  A    between atoms: C_4  and  O_5
REMARK    5  A    between atoms: C_4  and  C_6
REMARK    6  A    between atoms: C_6  and  O_7
REMARK    7  A    between atoms: C_6  and  C_12
REMARK    8  A    between atoms: O_7  and  S_8
REMARK    9  A    between atoms: C_12  and  O_13
REMARK   10  A    between atoms: C_12  and  C_14
REMARK   11  A    between atoms: C_14  and  S_15
REMARK   12  A    between atoms: C_17  and  O_18
REMARK   13  A    between atoms: C_19  and  O_20
REMARK   14  A    between atoms: C_21  and  C_22
REMARK   15  A    between atoms: C_22  and  O_23
REMARK                            x       y       z     vdW  Elec       q    Type
REMARK                         _______ _______ _______ _____ _____    ______ ____
ROOT
ATOM      1  C   UNL     1       5.509   5.556  18.871  0.00  0.00    +0.000 C 
ENDROOT
BRANCH   1   2
ATOM      2  O   UNL     1       6.363   4.711  19.652  0.00  0.00    +0.000 OA
ATOM      3  H   UNL     1       6.756   4.070  19.026  0.00  0.00    +0.000 HD
ENDBRANCH   1   2
BRANCH   1   4
ATOM      4  C   UNL     1       6.334   6.300  17.783  0.00  0.00    +0.000 C 
BRANCH   4   5
ATOM      5  C   UNL     1       7.422   7.226  18.387  0.00  0.00    +0.000 C 
BRANCH   5   6
ATOM      6  O   UNL     1       8.454   6.421  18.987  0.00  0.00    +0.000 OA
ATOM      7  H   UNL     1       9.283   6.703  18.544  0.00  0.00    +0.000 HD
ENDBRANCH   5   6
BRANCH   5   8
ATOM      8  C   UNL     1       8.120   8.186  17.413  0.00  0.00    +0.000 C 
BRANCH   8  10
ATOM      9  C   UNL     1       9.145   9.835  19.012  0.00  0.00    +0.000 C 
ATOM     10  C   UNL     1       8.140   9.635  17.888  0.00  0.00    +0.000 C 
ENDBRANCH   8  10
ENDBRANCH   5   8
ENDBRANCH   4   5
BRANCH   4  11
ATOM     11  O   UNL     1       7.055   5.356  16.983  0.00  0.00    +0.000 OA
BRANCH  11  12
ATOM     12  S   UNL     1       6.645   5.125  15.427  0.00  0.00    +0.000 S 
ATOM     13  O   UNL     1       7.878   5.458  14.693  0.00  0.00    +0.000 OA
ATOM     14  O   UNL     1       6.197   3.744  15.349  0.00  0.00    +0.000 OA
ATOM     15  O   UNL     1       5.569   6.107  15.240  0.00  0.00    +0.000 OA
ENDBRANCH  11  12
ENDBRANCH   4  11
ENDBRANCH   1   4
BRANCH   1  16
ATOM     16  C   UNL     1       4.427   4.608  18.332  0.00  0.00    +0.000 C 
BRANCH  16  17
ATOM     17  S   UNL     1       2.951   4.647  19.419  0.00  0.00    +0.000 S 
ATOM     18  C   UNL     1       1.821   3.809  18.263  0.00  0.00    +0.000 C 
ATOM     19  C   UNL     1       0.863   3.084  19.188  0.00  0.00    +0.000 C 
ATOM     20  C   UNL     1       1.721   2.401  20.284  0.00  0.00    +0.000 C 
ATOM     21  C   UNL     1       3.101   3.107  20.394  0.00  0.00    +0.000 C 
BRANCH  19  22
ATOM     22  O   UNL     1       0.061   2.146  18.477  0.00  0.00    +0.000 OA
ATOM     23  H   UNL     1      -0.839   2.173  18.846  0.00  0.00    +0.000 HD
ENDBRANCH  19  22
BRANCH  20  24
ATOM     24  O   UNL     1       1.040   2.493  21.547  0.00  0.00    +0.000 OA
ATOM     25  H   UNL     1       1.211   3.386  21.897  0.00  0.00    +0.000 HD
ENDBRANCH  20  24
BRANCH  21  26
ATOM     26  C   UNL     1       4.248   2.168  20.013  0.00  0.00    +0.000 C 
BRANCH  26  27
ATOM     27  O   UNL     1       5.148   1.982  21.103  0.00  0.00    +0.000 OA
ATOM     28  H   UNL     1       4.637   2.071  21.927  0.00  0.00    +0.000 HD
ENDBRANCH  26  27
ENDBRANCH  21  26
ENDBRANCH  16  17
ENDBRANCH   1  16
TORSDOF 14
ENDMDL
MODEL 4
REMARK VINA RESULT:      -6.6      2.621      3.969
REMARK  Name = 
REMARK  15 active torsions:
REMARK  status: ('A' for Active; 'I' for Inactive)
REMARK    1  A    between atoms: C_1  and  C_2
REMARK    2  A    between atoms: C_2  and  C_3
REMARK    3  A    between atoms: C_3  and  C_4
REMARK    4  A    between atoms: C_4  and  O_5
REMARK    5  A    between atoms: C_4  and  C_6
REMARK    6  A    between atoms: C_6  and  O_7
REMARK    7  A    between atoms: C_6  and  C_12
REMARK    8  A    between atoms: O_7  and  S_8
REMARK    9  A    between atoms: C_12  and  O_13
REMARK   10  A    between atoms: C_12  and  C_14
REMARK   11  A    between atoms: C_14  and  S_15
REMARK   12  A    between atoms: C_17  and  O_18
REMARK   13  A    between atoms: C_19  and  O_20
REMARK   14  A    between atoms: C_21  and  C_22
REMARK   15  A    between atoms: C_22  and  O_23
REMARK                            x       y       z     vdW  Elec       q    Type
REMARK                         _______ _______ _______ _____ _____    ______ ____
ROOT
ATOM      1  C   UNL     1       4.116   6.322  17.158  0.00  0.00    +0.000 C 
ENDROOT
BRANCH   1   2
ATOM      2  O   UNL     1       4.320   7.680  17.567  0.00  0.00    +0.000 OA
ATOM      3  H   UNL     1       3.432   8.036  17.776  0.00  0.00    +0.000 HD
ENDBRANCH   1   2
BRANCH   1   4
ATOM      4  C   UNL     1       5.482   5.630  16.884  0.00  0.00    +0.000 C 
BRANCH   4   5
ATOM      5  C   UNL     1       5.864   5.637  15.380  0.00  0.00    +0.000 C 
BRANCH   5   6
ATOM      6  O   UNL     1       7.298   5.634  15.252  0.00  0.00    +0.000 OA
ATOM      7  H   UNL     1       7.469   5.299  14.346  0.00  0.00    +0.000 HD
ENDBRANCH   5   6
BRANCH   5   8
ATOM      8  C   UNL     1       5.342   4.464  14.537  0.00  0.00    +0.000 C 
BRANCH   8  10
ATOM      9  C   UNL     1       5.833   3.377  12.323  0.00  0.00    +0.000 C 
ATOM     10  C   UNL     1       6.408   3.816  13.661  0.00  0.00    +0.000 C 
ENDBRANCH   8  10
ENDBRANCH   5   8
ENDBRANCH   4   5
BRANCH   4  11
ATOM     11  O   UNL     1       6.535   6.350  17.535  0.00  0.00    +0.000 OA
BRANCH  11  12
ATOM     12  S   UNL     1       7.427   5.625  18.685  0.00  0.00    +0.000 S 
ATOM     13  O   UNL     1       6.455   5.361  19.760  0.00  0.00    +0.000 OA
ATOM     14  O   UNL     1       8.012   4.460  18.040  0.00  0.00    +0.000 OA
ATOM     15  O   UNL     1       8.406   6.667  19.023  0.00  0.00    +0.000 OA
ENDBRANCH  11  12
ENDBRANCH   4  11
ENDBRANCH   1   4
BRANCH   1  16
ATOM     16  C   UNL     1       3.290   5.702  18.296  0.00  0.00    +0.000 C 
BRANCH  16  17
ATOM     17  S   UNL     1       2.419   4.202  17.702  0.00  0.00    +0.000 S 
ATOM     18  C   UNL     1       3.827   3.063  17.876  0.00  0.00    +0.000 C 
ATOM     19  C   UNL     1       3.158   1.737  18.181  0.00  0.00    +0.000 C 
ATOM     20  C   UNL     1       2.070   2.014  19.250  0.00  0.00    +0.000 C 
ATOM     21  C   UNL     1       1.672   3.517  19.224  0.00  0.00    +0.000 C 
BRANCH  19  22
ATOM     22  O   UNL     1       4.102   0.765  18.621  0.00  0.00    +0.000 OA
ATOM     23  H   UNL     1       3.625  -0.065  18.795  0.00  0.00    +0.000 HD
ENDBRANCH  19  22
BRANCH  20  24
ATOM     24  O   UNL     1       0.911   1.212  18.968  0.00  0.00    +0.000 OA
ATOM     25  H   UNL     1       0.139   1.805  19.008  0.00  0.00    +0.000 HD
ENDBRANCH  20  24
BRANCH  21  26
ATOM     26  C   UNL     1       2.030   4.219  20.536  0.00  0.00    +0.000 C 
BRANCH  26  27
ATOM     27  O   UNL     1       2.326   3.276  21.563  0.00  0.00    +0.000 OA
ATOM     28  H   UNL     1       3.133   3.576  22.017  0.00  0.00    +0.000 HD
ENDBRANCH  26  27
ENDBRANCH  21  26
ENDBRANCH  16  17
ENDBRANCH   1  16
TORSDOF 14
ENDMDL
MODEL 5
REMARK VINA RESULT:      -6.6      0.704      1.138
REMARK  Name = 
REMARK  15 active torsions:
REMARK  status: ('A' for Active; 'I' for Inactive)
REMARK    1  A    between atoms: C_1  and  C_2
REMARK    2  A    between atoms: C_2  and  C_3
REMARK    3  A    between atoms: C_3  and  C_4
REMARK    4  A    between atoms: C_4  and  O_5
REMARK    5  A    between atoms: C_4  and  C_6
REMARK    6  A    between atoms: C_6  and  O_7
REMARK    7  A    between atoms: C_6  and  C_12
REMARK    8  A    between atoms: O_7  and  S_8
REMARK    9  A    between atoms: C_12  and  O_13
REMARK   10  A    between atoms: C_12  and  C_14
REMARK   11  A    between atoms: C_14  and  S_15
REMARK   12  A    between atoms: C_17  and  O_18
REMARK   13  A    between atoms: C_19  and  O_20
REMARK   14  A    between atoms: C_21  and  C_22
REMARK   15  A    between atoms: C_22  and  O_23
REMARK                            x       y       z     vdW  Elec       q    Type
REMARK                         _______ _______ _______ _____ _____    ______ ____
ROOT
ATOM      1  C   UNL     1       4.978   5.174  17.261  0.00  0.00    +0.000 C 
ENDROOT
BRANCH   1   2
ATOM      2  O   UNL     1       4.011   6.205  17.023  0.00  0.00    +0.000 OA
ATOM      3  H   UNL     1       3.406   6.191  17.792  0.00  0.00    +0.000 HD
ENDBRANCH   1   2
BRANCH   1   4
ATOM      4  C   UNL     1       6.418   5.729  17.064  0.00  0.00    +0.000 C 
BRANCH   4   5
ATOM      5  C   UNL     1       7.259   5.682  18.367  0.00  0.00    +0.000 C 
BRANCH   5   6
ATOM      6  O   UNL     1       8.138   4.543  18.327  0.00  0.00    +0.000 OA
ATOM      7  H   UNL     1       8.499   4.535  17.415  0.00  0.00    +0.000 HD
ENDBRANCH   5   6
BRANCH   5   8
ATOM      8  C   UNL     1       8.137   6.908  18.657  0.00  0.00    +0.000 C 
BRANCH   8  10
ATOM      9  C   UNL     1       8.477   9.369  18.261  0.00  0.00    +0.000 C 
ATOM     10  C   UNL     1       7.892   8.077  17.709  0.00  0.00    +0.000 C 
ENDBRANCH   8  10
ENDBRANCH   5   8
ENDBRANCH   4   5
BRANCH   4  11
ATOM     11  O   UNL     1       7.135   4.911  16.132  0.00  0.00    +0.000 OA
BRANCH  11  12
ATOM     12  S   UNL     1       6.817   5.018  14.542  0.00  0.00    +0.000 S 
ATOM     13  O   UNL     1       5.684   5.957  14.479  0.00  0.00    +0.000 OA
ATOM     14  O   UNL     1       8.060   5.459  13.930  0.00  0.00    +0.000 OA
ATOM     15  O   UNL     1       6.451   3.636  14.204  0.00  0.00    +0.000 OA
ENDBRANCH  11  12
ENDBRANCH   4  11
ENDBRANCH   1   4
BRANCH   1  16
ATOM     16  C   UNL     1       4.661   4.675  18.679  0.00  0.00    +0.000 C 
BRANCH  16  17
ATOM     17  S   UNL     1       3.291   3.458  18.630  0.00  0.00    +0.000 S 
ATOM     18  C   UNL     1       3.492   2.853  20.335  0.00  0.00    +0.000 C 
ATOM     19  C   UNL     1       2.081   2.461  20.727  0.00  0.00    +0.000 C 
ATOM     20  C   UNL     1       1.148   3.612  20.270  0.00  0.00    +0.000 C 
ATOM     21  C   UNL     1       1.835   4.436  19.145  0.00  0.00    +0.000 C 
BRANCH  19  22
ATOM     22  O   UNL     1       1.977   2.215  22.126  0.00  0.00    +0.000 OA
ATOM     23  H   UNL     1       1.035   2.119  22.350  0.00  0.00    +0.000 HD
ENDBRANCH  19  22
BRANCH  20  24
ATOM     24  O   UNL     1      -0.080   3.058  19.768  0.00  0.00    +0.000 OA
ATOM     25  H   UNL     1      -0.079   2.111  19.997  0.00  0.00    +0.000 HD
ENDBRANCH  20  24
BRANCH  21  26
ATOM     26  C   UNL     1       2.103   5.878  19.585  0.00  0.00    +0.000 C 
BRANCH  26  27
ATOM     27  O   UNL     1       2.108   5.992  21.006  0.00  0.00    +0.000 OA
ATOM     28  H   UNL     1       1.187   6.118  21.296  0.00  0.00    +0.000 HD
ENDBRANCH  26  27
ENDBRANCH  21  26
ENDBRANCH  16  17
ENDBRANCH   1  16
TORSDOF 14
ENDMDL
MODEL 6
REMARK VINA RESULT:      -6.5      1.232      1.583
REMARK  Name = 
REMARK  15 active torsions:
REMARK  status: ('A' for Active; 'I' for Inactive)
REMARK    1  A    between atoms: C_1  and  C_2
REMARK    2  A    between atoms: C_2  and  C_3
REMARK    3  A    between atoms: C_3  and  C_4
REMARK    4  A    between atoms: C_4  and  O_5
REMARK    5  A    between atoms: C_4  and  C_6
REMARK    6  A    between atoms: C_6  and  O_7
REMARK    7  A    between atoms: C_6  and  C_12
REMARK    8  A    between atoms: O_7  and  S_8
REMARK    9  A    between atoms: C_12  and  O_13
REMARK   10  A    between atoms: C_12  and  C_14
REMARK   11  A    between atoms: C_14  and  S_15
REMARK   12  A    between atoms: C_17  and  O_18
REMARK   13  A    between atoms: C_19  and  O_20
REMARK   14  A    between atoms: C_21  and  C_22
REMARK   15  A    between atoms: C_22  and  O_23
REMARK                            x       y       z     vdW  Elec       q    Type
REMARK                         _______ _______ _______ _____ _____    ______ ____
ROOT
ATOM      1  C   UNL     1       5.030   4.050  18.251  0.00  0.00    +0.000 C 
ENDROOT
BRANCH   1   2
ATOM      2  O   UNL     1       5.599   3.088  19.149  0.00  0.00    +0.000 OA
ATOM      3  H   UNL     1       6.491   2.886  18.800  0.00  0.00    +0.000 HD
ENDBRANCH   1   2
BRANCH   1   4
ATOM      4  C   UNL     1       6.153   4.875  17.562  0.00  0.00    +0.000 C 
BRANCH   4   5
ATOM      5  C   UNL     1       7.439   4.972  18.424  0.00  0.00    +0.000 C 
BRANCH   5   6
ATOM      6  O   UNL     1       8.456   4.123  17.860  0.00  0.00    +0.000 OA
ATOM      7  H   UNL     1       9.295   4.613  17.994  0.00  0.00    +0.000 HD
ENDBRANCH   5   6
BRANCH   5   8
ATOM      8  C   UNL     1       8.060   6.369  18.571  0.00  0.00    +0.000 C 
BRANCH   8  10
ATOM      9  C   UNL     1       8.067   8.781  17.858  0.00  0.00    +0.000 C 
ATOM     10  C   UNL     1       7.511   7.392  17.583  0.00  0.00    +0.000 C 
ENDBRANCH   8  10
ENDBRANCH   5   8
ENDBRANCH   4   5
BRANCH   4  11
ATOM     11  O   UNL     1       6.567   4.227  16.354  0.00  0.00    +0.000 OA
BRANCH  11  12
ATOM     12  S   UNL     1       6.382   4.976  14.923  0.00  0.00    +0.000 S 
ATOM     13  O   UNL     1       7.743   5.436  14.596  0.00  0.00    +0.000 OA
ATOM     14  O   UNL     1       5.806   3.976  14.037  0.00  0.00    +0.000 OA
ATOM     15  O   UNL     1       5.459   6.068  15.260  0.00  0.00    +0.000 OA
ENDBRANCH  11  12
ENDBRANCH   4  11
ENDBRANCH   1   4
BRANCH   1  16
ATOM     16  C   UNL     1       4.160   3.213  17.301  0.00  0.00    +0.000 C 
BRANCH  16  17
ATOM     17  S   UNL     1       2.945   2.227  18.256  0.00  0.00    +0.000 S 
ATOM     18  C   UNL     1       3.442   2.825  19.902  0.00  0.00    +0.000 C 
ATOM     19  C   UNL     1       2.151   2.757  20.693  0.00  0.00    +0.000 C 
ATOM     20  C   UNL     1       1.039   3.363  19.798  0.00  0.00    +0.000 C 
ATOM     21  C   UNL     1       1.469   3.304  18.306  0.00  0.00    +0.000 C 
BRANCH  19  22
ATOM     22  O   UNL     1       2.264   3.441  21.937  0.00  0.00    +0.000 OA
ATOM     23  H   UNL     1       2.790   4.247  21.796  0.00  0.00    +0.000 HD
ENDBRANCH  19  22
BRANCH  20  24
ATOM     24  O   UNL     1      -0.174   2.610  19.971  0.00  0.00    +0.000 OA
ATOM     25  H   UNL     1       0.071   1.667  19.951  0.00  0.00    +0.000 HD
ENDBRANCH  20  24
BRANCH  21  26
ATOM     26  C   UNL     1       1.627   4.705  17.708  0.00  0.00    +0.000 C 
BRANCH  26  27
ATOM     27  O   UNL     1       1.968   5.659  18.711  0.00  0.00    +0.000 OA
ATOM     28  H   UNL     1       1.682   5.302  19.569  0.00  0.00    +0.000 HD
ENDBRANCH  26  27
ENDBRANCH  21  26
ENDBRANCH  16  17
ENDBRANCH   1  16
TORSDOF 14
ENDMDL
MODEL 7
REMARK VINA RESULT:      -6.5      1.788      2.391
REMARK  Name = 
REMARK  15 active torsions:
REMARK  status: ('A' for Active; 'I' for Inactive)
REMARK    1  A    between atoms: C_1  and  C_2
REMARK    2  A    between atoms: C_2  and  C_3
REMARK    3  A    between atoms: C_3  and  C_4
REMARK    4  A    between atoms: C_4  and  O_5
REMARK    5  A    between atoms: C_4  and  C_6
REMARK    6  A    between atoms: C_6  and  O_7
REMARK    7  A    between atoms: C_6  and  C_12
REMARK    8  A    between atoms: O_7  and  S_8
REMARK    9  A    between atoms: C_12  and  O_13
REMARK   10  A    between atoms: C_12  and  C_14
REMARK   11  A    between atoms: C_14  and  S_15
REMARK   12  A    between atoms: C_17  and  O_18
REMARK   13  A    between atoms: C_19  and  O_20
REMARK   14  A    between atoms: C_21  and  C_22
REMARK   15  A    between atoms: C_22  and  O_23
REMARK                            x       y       z     vdW  Elec       q    Type
REMARK                         _______ _______ _______ _____ _____    ______ ____
ROOT
ATOM      1  C   UNL     1       6.103   5.307  18.862  0.00  0.00    +0.000 C 
ENDROOT
BRANCH   1   2
ATOM      2  O   UNL     1       6.579   3.995  18.536  0.00  0.00    +0.000 OA
ATOM      3  H   UNL     1       7.555   4.040  18.592  0.00  0.00    +0.000 HD
ENDBRANCH   1   2
BRANCH   1   4
ATOM      4  C   UNL     1       6.612   6.341  17.818  0.00  0.00    +0.000 C 
BRANCH   4   5
ATOM      5  C   UNL     1       7.553   7.406  18.441  0.00  0.00    +0.000 C 
BRANCH   5   6
ATOM      6  O   UNL     1       8.619   6.745  19.148  0.00  0.00    +0.000 OA
ATOM      7  H   UNL     1       9.088   7.463  19.624  0.00  0.00    +0.000 HD
ENDBRANCH   5   6
BRANCH   5   8
ATOM      8  C   UNL     1       8.214   8.390  17.464  0.00  0.00    +0.000 C 
BRANCH   8  10
ATOM      9  C   UNL     1       9.196  10.020  19.108  0.00  0.00    +0.000 C 
ATOM     10  C   UNL     1       8.219   9.833  17.957  0.00  0.00    +0.000 C 
ENDBRANCH   8  10
ENDBRANCH   5   8
ENDBRANCH   4   5
BRANCH   4  11
ATOM     11  O   UNL     1       7.406   5.684  16.824  0.00  0.00    +0.000 OA
BRANCH  11  12
ATOM     12  S   UNL     1       6.733   5.225  15.416  0.00  0.00    +0.000 S 
ATOM     13  O   UNL     1       7.810   5.435  14.434  0.00  0.00    +0.000 OA
ATOM     14  O   UNL     1       6.305   3.851  15.626  0.00  0.00    +0.000 OA
ATOM     15  O   UNL     1       5.621   6.175  15.279  0.00  0.00    +0.000 OA
ENDBRANCH  11  12
ENDBRANCH   4  11
ENDBRANCH   1   4
BRANCH   1  16
ATOM     16  C   UNL     1       4.576   5.151  18.931  0.00  0.00    +0.000 C 
BRANCH  16  17
ATOM     17  S   UNL     1       4.137   3.455  19.473  0.00  0.00    +0.000 S 
ATOM     18  C   UNL     1       2.775   3.938  20.580  0.00  0.00    +0.000 C 
ATOM     19  C   UNL     1       1.839   2.748  20.509  0.00  0.00    +0.000 C 
ATOM     20  C   UNL     1       1.708   2.364  19.012  0.00  0.00    +0.000 C 
ATOM     21  C   UNL     1       2.927   2.909  18.216  0.00  0.00    +0.000 C 
BRANCH  19  22
ATOM     22  O   UNL     1       0.575   3.042  21.096  0.00  0.00    +0.000 OA
ATOM     23  H   UNL     1      -0.110   2.943  20.412  0.00  0.00    +0.000 HD
ENDBRANCH  19  22
BRANCH  20  24
ATOM     24  O   UNL     1       1.665   0.932  18.891  0.00  0.00    +0.000 OA
ATOM     25  H   UNL     1       1.579   0.573  19.793  0.00  0.00    +0.000 HD
ENDBRANCH  20  24
BRANCH  21  26
ATOM     26  C   UNL     1       2.503   3.951  17.178  0.00  0.00    +0.000 C 
BRANCH  26  27
ATOM     27  O   UNL     1       1.120   4.274  17.305  0.00  0.00    +0.000 OA
ATOM     28  H   UNL     1       0.640   3.800  16.604  0.00  0.00    +0.000 HD
ENDBRANCH  26  27
ENDBRANCH  21  26
ENDBRANCH  16  17
ENDBRANCH   1  16
TORSDOF 14
ENDMDL
MODEL 8
REMARK VINA RESULT:      -6.4      2.635      3.949
REMARK  Name = 
REMARK  15 active torsions:
REMARK  status: ('A' for Active; 'I' for Inactive)
REMARK    1  A    between atoms: C_1  and  C_2
REMARK    2  A    between atoms: C_2  and  C_3
REMARK    3  A    between atoms: C_3  and  C_4
REMARK    4  A    between atoms: C_4  and  O_5
REMARK    5  A    between atoms: C_4  and  C_6
REMARK    6  A    between atoms: C_6  and  O_7
REMARK    7  A    between atoms: C_6  and  C_12
REMARK    8  A    between atoms: O_7  and  S_8
REMARK    9  A    between atoms: C_12  and  O_13
REMARK   10  A    between atoms: C_12  and  C_14
REMARK   11  A    between atoms: C_14  and  S_15
REMARK   12  A    between atoms: C_17  and  O_18
REMARK   13  A    between atoms: C_19  and  O_20
REMARK   14  A    between atoms: C_21  and  C_22
REMARK   15  A    between atoms: C_22  and  O_23
REMARK                            x       y       z     vdW  Elec       q    Type
REMARK                         _______ _______ _______ _____ _____    ______ ____
ROOT
ATOM      1  C   UNL     1       4.474   6.119  16.784  0.00  0.00    +0.000 C 
ENDROOT
BRANCH   1   2
ATOM      2  O   UNL     1       4.772   7.489  17.085  0.00  0.00    +0.000 OA
ATOM      3  H   UNL     1       5.043   7.899  16.239  0.00  0.00    +0.000 HD
ENDBRANCH   1   2
BRANCH   1   4
ATOM      4  C   UNL     1       5.788   5.308  16.603  0.00  0.00    +0.000 C 
BRANCH   4   5
ATOM      5  C   UNL     1       6.222   5.195  15.118  0.00  0.00    +0.000 C 
BRANCH   5   6
ATOM      6  O   UNL     1       7.634   5.456  15.013  0.00  0.00    +0.000 OA
ATOM      7  H   UNL     1       8.004   4.661  14.572  0.00  0.00    +0.000 HD
ENDBRANCH   5   6
BRANCH   5   8
ATOM      8  C   UNL     1       5.969   3.845  14.432  0.00  0.00    +0.000 C 
BRANCH   8  10
ATOM      9  C   UNL     1       6.032   2.997  12.065  0.00  0.00    +0.000 C 
ATOM     10  C   UNL     1       5.374   3.969  13.034  0.00  0.00    +0.000 C 
ENDBRANCH   8  10
ENDBRANCH   5   8
ENDBRANCH   4   5
BRANCH   4  11
ATOM     11  O   UNL     1       6.872   5.979  17.255  0.00  0.00    +0.000 OA
BRANCH  11  12
ATOM     12  S   UNL     1       7.601   5.296  18.537  0.00  0.00    +0.000 S 
ATOM     13  O   UNL     1       8.383   6.400  19.118  0.00  0.00    +0.000 OA
ATOM     14  O   UNL     1       6.522   4.765  19.354  0.00  0.00    +0.000 OA
ATOM     15  O   UNL     1       8.430   4.259  17.908  0.00  0.00    +0.000 OA
ENDBRANCH  11  12
ENDBRANCH   4  11
ENDBRANCH   1   4
BRANCH   1  16
ATOM     16  C   UNL     1       3.580   5.661  17.947  0.00  0.00    +0.000 C 
BRANCH  16  17
ATOM     17  S   UNL     1       2.626   4.172  17.464  0.00  0.00    +0.000 S 
ATOM     18  C   UNL     1       3.989   2.982  17.655  0.00  0.00    +0.000 C 
ATOM     19  C   UNL     1       3.275   1.706  18.053  0.00  0.00    +0.000 C 
ATOM     20  C   UNL     1       2.237   2.087  19.139  0.00  0.00    +0.000 C 
ATOM     21  C   UNL     1       1.903   3.602  19.044  0.00  0.00    +0.000 C 
BRANCH  19  22
ATOM     22  O   UNL     1       4.191   0.717  18.515  0.00  0.00    +0.000 OA
ATOM     23  H   UNL     1       3.701  -0.113  18.650  0.00  0.00    +0.000 HD
ENDBRANCH  19  22
BRANCH  20  24
ATOM     24  O   UNL     1       1.036   1.324  18.939  0.00  0.00    +0.000 OA
ATOM     25  H   UNL     1       1.125   0.875  18.079  0.00  0.00    +0.000 HD
ENDBRANCH  20  24
BRANCH  21  26
ATOM     26  C   UNL     1       2.335   4.357  20.304  0.00  0.00    +0.000 C 
BRANCH  26  27
ATOM     27  O   UNL     1       1.332   5.279  20.724  0.00  0.00    +0.000 OA
ATOM     28  H   UNL     1       0.757   4.821  21.361  0.00  0.00    +0.000 HD
ENDBRANCH  26  27
ENDBRANCH  21  26
ENDBRANCH  16  17
ENDBRANCH   1  16
TORSDOF 14
ENDMDL
MODEL 9
REMARK VINA RESULT:      -6.3      1.822      2.374
REMARK  Name = 
REMARK  15 active torsions:
REMARK  status: ('A' for Active; 'I' for Inactive)
REMARK    1  A    between atoms: C_1  and  C_2
REMARK    2  A    between atoms: C_2  and  C_3
REMARK    3  A    between atoms: C_3  and  C_4
REMARK    4  A    between atoms: C_4  and  O_5
REMARK    5  A    between atoms: C_4  and  C_6
REMARK    6  A    between atoms: C_6  and  O_7
REMARK    7  A    between atoms: C_6  and  C_12
REMARK    8  A    between atoms: O_7  and  S_8
REMARK    9  A    between atoms: C_12  and  O_13
REMARK   10  A    between atoms: C_12  and  C_14
REMARK   11  A    between atoms: C_14  and  S_15
REMARK   12  A    between atoms: C_17  and  O_18
REMARK   13  A    between atoms: C_19  and  O_20
REMARK   14  A    between atoms: C_21  and  C_22
REMARK   15  A    between atoms: C_22  and  O_23
REMARK                            x       y       z     vdW  Elec       q    Type
REMARK                         _______ _______ _______ _____ _____    ______ ____
ROOT
ATOM      1  C   UNL     1       4.078   6.413  17.395  0.00  0.00    +0.000 C 
ENDROOT
BRANCH   1   2
ATOM      2  O   UNL     1       3.985   7.799  17.747  0.00  0.00    +0.000 OA
ATOM      3  H   UNL     1       4.569   7.921  18.523  0.00  0.00    +0.000 HD
ENDBRANCH   1   2
BRANCH   1   4
ATOM      4  C   UNL     1       5.554   6.032  17.085  0.00  0.00    +0.000 C 
BRANCH   4   5
ATOM      5  C   UNL     1       6.397   5.809  18.367  0.00  0.00    +0.000 C 
BRANCH   5   6
ATOM      6  O   UNL     1       6.762   4.419  18.462  0.00  0.00    +0.000 OA
ATOM      7  H   UNL     1       6.135   3.953  17.869  0.00  0.00    +0.000 HD
ENDBRANCH   5   6
BRANCH   5   8
ATOM      8  C   UNL     1       7.698   6.617  18.480  0.00  0.00    +0.000 C 
BRANCH   8  10
ATOM      9  C   UNL     1       8.351   9.028  18.189  0.00  0.00    +0.000 C 
ATOM     10  C   UNL     1       7.776   7.792  17.513  0.00  0.00    +0.000 C 
ENDBRANCH   8  10
ENDBRANCH   5   8
ENDBRANCH   4   5
BRANCH   4  11
ATOM     11  O   UNL     1       5.602   4.781  16.389  0.00  0.00    +0.000 OA
BRANCH  11  12
ATOM     12  S   UNL     1       6.576   4.603  15.100  0.00  0.00    +0.000 S 
ATOM     13  O   UNL     1       7.923   4.535  15.692  0.00  0.00    +0.000 OA
ATOM     14  O   UNL     1       6.104   3.405  14.424  0.00  0.00    +0.000 OA
ATOM     15  O   UNL     1       6.329   5.841  14.349  0.00  0.00    +0.000 OA
ENDBRANCH  11  12
ENDBRANCH   4  11
ENDBRANCH   1   4
BRANCH   1  16
ATOM     16  C   UNL     1       3.454   5.676  18.590  0.00  0.00    +0.000 C 
BRANCH  16  17
ATOM     17  S   UNL     1       2.391   4.303  18.003  0.00  0.00    +0.000 S 
ATOM     18  C   UNL     1       3.716   3.065  17.851  0.00  0.00    +0.000 C 
ATOM     19  C   UNL     1       2.998   1.760  18.131  0.00  0.00    +0.000 C 
ATOM     20  C   UNL     1       2.105   1.993  19.377  0.00  0.00    +0.000 C 
ATOM     21  C   UNL     1       1.825   3.512  19.551  0.00  0.00    +0.000 C 
BRANCH  19  22
ATOM     22  O   UNL     1       3.917   0.690  18.328  0.00  0.00    +0.000 OA
ATOM     23  H   UNL     1       3.535  -0.116  17.939  0.00  0.00    +0.000 HD
ENDBRANCH  19  22
BRANCH  20  24
ATOM     24  O   UNL     1       0.858   1.299  19.205  0.00  0.00    +0.000 OA
ATOM     25  H   UNL     1       0.989   0.393  19.538  0.00  0.00    +0.000 HD
ENDBRANCH  20  24
BRANCH  21  26
ATOM     26  C   UNL     1       2.427   4.052  20.852  0.00  0.00    +0.000 C 
BRANCH  26  27
ATOM     27  O   UNL     1       2.022   3.268  21.972  0.00  0.00    +0.000 OA
ATOM     28  H   UNL     1       1.500   2.519  21.637  0.00  0.00    +0.000 HD
ENDBRANCH  26  27
ENDBRANCH  21  26
ENDBRANCH  16  17
ENDBRANCH   1  16
TORSDOF 14
ENDMDL
