MODEL 1
REMARK VINA RESULT:      -6.8      0.000      0.000
REMARK  Name = 
REMARK  8 active torsions:
REMARK  status: ('A' for Active; 'I' for Inactive)
REMARK    1  A    between atoms: C_1  and  C_2
REMARK    2  A    between atoms: C_2  and  C_3
REMARK    3  A    between atoms: C_3  and  C_4
REMARK    4  A    between atoms: C_3  and  C_5
REMARK    5  A    between atoms: C_18  and  C_19
REMARK    6  A    between atoms: C_19  and  C_20
REMARK    7  A    between atoms: C_29  and  C_30
REMARK    8  A    between atoms: N_31  and  C_32
REMARK                            x       y       z     vdW  Elec       q    Type
REMARK                         _______ _______ _______ _____ _____    ______ ____
ROOT
ATOM      1  C   UNL     1      -1.398  15.473  22.284  0.00  0.00    +0.000 C 
ATOM      2  N   UNL     1      -2.119  16.708  21.804  0.00  0.00    +0.000 NA
ATOM      3  C   UNL     1      -3.546  16.810  22.170  0.00  0.00    +0.000 C 
ATOM      4  C   UNL     1      -4.468  17.080  20.952  0.00  0.00    +0.000 C 
ATOM      5  C   UNL     1      -5.987  17.036  21.258  0.00  0.00    +0.000 C 
ATOM      6  C   UNL     1      -6.860  16.968  19.970  0.00  0.00    +0.000 C 
ATOM      7  C   UNL     1      -7.343  15.542  19.665  0.00  0.00    +0.000 C 
ATOM      8  C   UNL     1      -7.916  15.314  18.255  0.00  0.00    +0.000 C 
ATOM      9  C   UNL     1      -7.888  13.816  17.849  0.00  0.00    +0.000 C 
ATOM     10  C   UNL     1      -6.628  13.446  17.033  0.00  0.00    +0.000 C 
ATOM     11  N   UNL     1      -6.285  12.004  17.056  0.00  0.00    +0.000 N 
ATOM     12  C   UNL     1      -4.965  11.587  17.133  0.00  0.00    +0.000 C 
ATOM     13  O   UNL     1      -4.457  10.996  16.174  0.00  0.00    +0.000 OA
ATOM     14  C   UNL     1      -4.146  11.750  18.477  0.00  0.00    +0.000 C 
ATOM     15  N   UNL     1      -2.777  12.200  18.088  0.00  0.00    +0.000 N 
ATOM     16  C   UNL     1      -1.687  11.920  18.901  0.00  0.00    +0.000 C 
ATOM     17  O   UNL     1      -1.446  10.789  19.292  0.00  0.00    +0.000 OA
ATOM     18  C   UNL     1      -0.817  13.196  19.260  0.00  0.00    +0.000 C 
ATOM     19  C   UNL     1       0.496  13.163  18.472  0.00  0.00    +0.000 C 
ATOM     20  N   UNL     1      -0.672  13.517  20.721  0.00  0.00    +0.000 N 
ATOM     21  C   UNL     1      -0.006  12.489  21.544  0.00  0.00    +0.000 C 
ATOM     22  C   UNL     1      -0.561  14.897  21.059  0.00  0.00    +0.000 C 
ATOM     23  O   UNL     1      -0.021  15.667  20.262  0.00  0.00    +0.000 OA
ATOM     24  H   UNL     1      -1.994  16.774  20.790  0.00  0.00    +0.000 HD
ATOM     25  H   UNL     1      -6.710  11.547  16.255  0.00  0.00    +0.000 HD
ATOM     26  H   UNL     1      -2.589  11.736  17.199  0.00  0.00    +0.000 HD
ENDROOT
BRANCH   1  27
ATOM     27  C   UNL     1      -0.694  15.742  23.666  0.00  0.00    +0.000 C 
ATOM     28  C   UNL     1      -1.476  15.224  24.878  0.00  0.00    +0.000 C 
BRANCH  27  30
ATOM     29  C   UNL     1       1.106  17.629  23.391  0.00  0.00    +0.000 C 
ATOM     30  C   UNL     1      -0.286  17.217  23.855  0.00  0.00    +0.000 C 
ENDBRANCH  27  30
ENDBRANCH   1  27
BRANCH  14  31
ATOM     31  C   UNL     1      -4.869  12.696  19.451  0.00  0.00    +0.000 C 
BRANCH  31  32
ATOM     32  C   UNL     1      -5.775  12.254  20.570  0.00  0.00    +0.000 A 
ATOM     33  C   UNL     1      -5.789  12.837  21.819  0.00  0.00    +0.000 A 
ATOM     34  C   UNL     1      -6.834  12.606  22.709  0.00  0.00    +0.000 A 
ATOM     35  C   UNL     1      -7.915  11.823  22.342  0.00  0.00    +0.000 A 
ATOM     36  C   UNL     1      -7.859  11.125  21.151  0.00  0.00    +0.000 A 
ATOM     37  C   UNL     1      -6.779  11.311  20.292  0.00  0.00    +0.000 A 
ENDBRANCH  31  32
ENDBRANCH  14  31
TORSDOF 4
ENDMDL
MODEL 2
REMARK VINA RESULT:      -6.8      1.673      2.367
REMARK  Name = 
REMARK  8 active torsions:
REMARK  status: ('A' for Active; 'I' for Inactive)
REMARK    1  A    between atoms: C_1  and  C_2
REMARK    2  A    between atoms: C_2  and  C_3
REMARK    3  A    between atoms: C_3  and  C_4
REMARK    4  A    between atoms: C_3  and  C_5
REMARK    5  A    between atoms: C_18  and  C_19
REMARK    6  A    between atoms: C_19  and  C_20
REMARK    7  A    between atoms: C_29  and  C_30
REMARK    8  A    between atoms: N_31  and  C_32
REMARK                            x       y       z     vdW  Elec       q    Type
REMARK                         _______ _______ _______ _____ _____    ______ ____
ROOT
ATOM      1  C   UNL     1      -2.519  16.711  22.679  0.00  0.00    +0.000 C 
ATOM      2  N   UNL     1      -3.672  17.435  22.031  0.00  0.00    +0.000 NA
ATOM      3  C   UNL     1      -5.014  16.870  22.277  0.00  0.00    +0.000 C 
ATOM      4  C   UNL     1      -5.815  16.615  20.972  0.00  0.00    +0.000 C 
ATOM      5  C   UNL     1      -7.163  15.874  21.164  0.00  0.00    +0.000 C 
ATOM      6  C   UNL     1      -7.755  15.342  19.827  0.00  0.00    +0.000 C 
ATOM      7  C   UNL     1      -7.483  13.843  19.621  0.00  0.00    +0.000 C 
ATOM      8  C   UNL     1      -7.723  13.306  18.200  0.00  0.00    +0.000 C 
ATOM      9  C   UNL     1      -6.958  11.981  17.939  0.00  0.00    +0.000 C 
ATOM     10  C   UNL     1      -5.587  12.210  17.260  0.00  0.00    +0.000 C 
ATOM     11  N   UNL     1      -4.619  11.103  17.445  0.00  0.00    +0.000 N 
ATOM     12  C   UNL     1      -3.274  11.363  17.661  0.00  0.00    +0.000 C 
ATOM     13  O   UNL     1      -2.447  11.037  16.803  0.00  0.00    +0.000 OA
ATOM     14  C   UNL     1      -2.780  11.956  19.042  0.00  0.00    +0.000 C 
ATOM     15  N   UNL     1      -1.743  12.980  18.717  0.00  0.00    +0.000 N 
ATOM     16  C   UNL     1      -0.746  13.286  19.634  0.00  0.00    +0.000 C 
ATOM     17  O   UNL     1      -0.052  12.422  20.146  0.00  0.00    +0.000 OA
ATOM     18  C   UNL     1      -0.614  14.836  19.936  0.00  0.00    +0.000 C 
ATOM     19  C   UNL     1       0.642  15.390  19.257  0.00  0.00    +0.000 C 
ATOM     20  N   UNL     1      -0.799  15.257  21.367  0.00  0.00    +0.000 N 
ATOM     21  C   UNL     1       0.173  14.705  22.331  0.00  0.00    +0.000 C 
ATOM     22  C   UNL     1      -1.379  16.540  21.581  0.00  0.00    +0.000 C 
ATOM     23  O   UNL     1      -1.175  17.435  20.758  0.00  0.00    +0.000 OA
ATOM     24  H   UNL     1      -3.481  17.505  21.028  0.00  0.00    +0.000 HD
ATOM     25  H   UNL     1      -4.690  10.463  16.660  0.00  0.00    +0.000 HD
ATOM     26  H   UNL     1      -1.264  12.617  17.893  0.00  0.00    +0.000 HD
ENDROOT
BRANCH   1  27
ATOM     27  C   UNL     1      -2.179  17.346  24.079  0.00  0.00    +0.000 C 
ATOM     28  C   UNL     1      -0.721  17.794  24.225  0.00  0.00    +0.000 C 
BRANCH  27  30
ATOM     29  C   UNL     1      -1.568  15.512  25.852  0.00  0.00    +0.000 C 
ATOM     30  C   UNL     1      -2.610  16.457  25.262  0.00  0.00    +0.000 C 
ENDBRANCH  27  30
ENDBRANCH   1  27
BRANCH  14  31
ATOM     31  C   UNL     1      -3.962  12.494  19.865  0.00  0.00    +0.000 C 
BRANCH  31  32
ATOM     32  C   UNL     1      -4.014  12.546  21.369  0.00  0.00    +0.000 A 
ATOM     33  C   UNL     1      -2.898  12.502  22.175  0.00  0.00    +0.000 A 
ATOM     34  C   UNL     1      -2.968  12.854  23.521  0.00  0.00    +0.000 A 
ATOM     35  C   UNL     1      -4.154  13.308  24.072  0.00  0.00    +0.000 A 
ATOM     36  C   UNL     1      -5.310  13.233  23.319  0.00  0.00    +0.000 A 
ATOM     37  C   UNL     1      -5.244  12.819  21.992  0.00  0.00    +0.000 A 
ENDBRANCH  31  32
ENDBRANCH  14  31
TORSDOF 4
ENDMDL
MODEL 3
REMARK VINA RESULT:      -6.8      0.858      1.504
REMARK  Name = 
REMARK  8 active torsions:
REMARK  status: ('A' for Active; 'I' for Inactive)
REMARK    1  A    between atoms: C_1  and  C_2
REMARK    2  A    between atoms: C_2  and  C_3
REMARK    3  A    between atoms: C_3  and  C_4
REMARK    4  A    between atoms: C_3  and  C_5
REMARK    5  A    between atoms: C_18  and  C_19
REMARK    6  A    between atoms: C_19  and  C_20
REMARK    7  A    between atoms: C_29  and  C_30
REMARK    8  A    between atoms: N_31  and  C_32
REMARK                            x       y       z     vdW  Elec       q    Type
REMARK                         _______ _______ _______ _____ _____    ______ ____
ROOT
ATOM      1  C   UNL     1      -1.481  15.870  22.146  0.00  0.00    +0.000 C 
ATOM      2  N   UNL     1      -2.285  17.018  21.587  0.00  0.00    +0.000 NA
ATOM      3  C   UNL     1      -3.720  17.034  21.935  0.00  0.00    +0.000 C 
ATOM      4  C   UNL     1      -4.644  17.163  20.695  0.00  0.00    +0.000 C 
ATOM      5  C   UNL     1      -6.160  17.024  20.990  0.00  0.00    +0.000 C 
ATOM      6  C   UNL     1      -7.008  16.816  19.701  0.00  0.00    +0.000 C 
ATOM      7  C   UNL     1      -7.381  15.342  19.477  0.00  0.00    +0.000 C 
ATOM      8  C   UNL     1      -7.917  14.990  18.079  0.00  0.00    +0.000 C 
ATOM      9  C   UNL     1      -7.773  13.477  17.762  0.00  0.00    +0.000 C 
ATOM     10  C   UNL     1      -6.478  13.154  16.980  0.00  0.00    +0.000 C 
ATOM     11  N   UNL     1      -6.030  11.746  17.092  0.00  0.00    +0.000 N 
ATOM     12  C   UNL     1      -4.684  11.434  17.205  0.00  0.00    +0.000 C 
ATOM     13  O   UNL     1      -4.121  10.828  16.287  0.00  0.00    +0.000 OA
ATOM     14  C   UNL     1      -3.897  11.737  18.544  0.00  0.00    +0.000 C 
ATOM     15  N   UNL     1      -2.560  12.264  18.140  0.00  0.00    +0.000 N 
ATOM     16  C   UNL     1      -1.462  12.114  18.978  0.00  0.00    +0.000 C 
ATOM     17  O   UNL     1      -1.144  11.029  19.436  0.00  0.00    +0.000 OA
ATOM     18  C   UNL     1      -0.694  13.470  19.268  0.00  0.00    +0.000 C 
ATOM     19  C   UNL     1       0.628  13.490  18.494  0.00  0.00    +0.000 C 
ATOM     20  N   UNL     1      -0.592  13.886  20.708  0.00  0.00    +0.000 N 
ATOM     21  C   UNL     1       0.138  12.961  21.596  0.00  0.00    +0.000 C 
ATOM     22  C   UNL     1      -0.587  15.288  20.964  0.00  0.00    +0.000 C 
ATOM     23  O   UNL     1      -0.096  16.048  20.127  0.00  0.00    +0.000 OA
ATOM     24  H   UNL     1      -2.153  17.034  20.572  0.00  0.00    +0.000 HD
ATOM     25  H   UNL     1      -6.409  11.213  16.316  0.00  0.00    +0.000 HD
ATOM     26  H   UNL     1      -2.327  11.764  17.282  0.00  0.00    +0.000 HD
ENDROOT
BRANCH   1  27
ATOM     27  C   UNL     1      -0.816  16.272  23.516  0.00  0.00    +0.000 C 
ATOM     28  C   UNL     1       0.698  16.493  23.434  0.00  0.00    +0.000 C 
BRANCH  27  30
ATOM     29  C   UNL     1      -1.157  15.865  26.084  0.00  0.00    +0.000 C 
ATOM     30  C   UNL     1      -1.179  15.310  24.664  0.00  0.00    +0.000 C 
ENDBRANCH  27  30
ENDBRANCH   1  27
BRANCH  14  31
ATOM     31  C   UNL     1      -4.700  12.681  19.453  0.00  0.00    +0.000 C 
BRANCH  31  32
ATOM     32  C   UNL     1      -4.714  12.624  20.959  0.00  0.00    +0.000 A 
ATOM     33  C   UNL     1      -3.577  12.647  21.736  0.00  0.00    +0.000 A 
ATOM     34  C   UNL     1      -3.646  12.897  23.104  0.00  0.00    +0.000 A 
ATOM     35  C   UNL     1      -4.858  13.180  23.711  0.00  0.00    +0.000 A 
ATOM     36  C   UNL     1      -6.020  13.031  22.979  0.00  0.00    +0.000 A 
ATOM     37  C   UNL     1      -5.948  12.718  21.624  0.00  0.00    +0.000 A 
ENDBRANCH  31  32
ENDBRANCH  14  31
TORSDOF 4
ENDMDL
MODEL 4
REMARK VINA RESULT:      -6.7      1.830      2.622
REMARK  Name = 
REMARK  8 active torsions:
REMARK  status: ('A' for Active; 'I' for Inactive)
REMARK    1  A    between atoms: C_1  and  C_2
REMARK    2  A    between atoms: C_2  and  C_3
REMARK    3  A    between atoms: C_3  and  C_4
REMARK    4  A    between atoms: C_3  and  C_5
REMARK    5  A    between atoms: C_18  and  C_19
REMARK    6  A    between atoms: C_19  and  C_20
REMARK    7  A    between atoms: C_29  and  C_30
REMARK    8  A    between atoms: N_31  and  C_32
REMARK                            x       y       z     vdW  Elec       q    Type
REMARK                         _______ _______ _______ _____ _____    ______ ____
ROOT
ATOM      1  C   UNL     1      -2.571  17.200  22.159  0.00  0.00    +0.000 C 
ATOM      2  N   UNL     1      -3.744  17.775  21.406  0.00  0.00    +0.000 NA
ATOM      3  C   UNL     1      -5.065  17.193  21.719  0.00  0.00    +0.000 C 
ATOM      4  C   UNL     1      -5.836  16.721  20.457  0.00  0.00    +0.000 C 
ATOM      5  C   UNL     1      -7.155  15.958  20.742  0.00  0.00    +0.000 C 
ATOM      6  C   UNL     1      -7.705  15.216  19.489  0.00  0.00    +0.000 C 
ATOM      7  C   UNL     1      -7.368  13.716  19.501  0.00  0.00    +0.000 C 
ATOM      8  C   UNL     1      -7.566  12.973  18.169  0.00  0.00    +0.000 C 
ATOM      9  C   UNL     1      -6.743  11.658  18.106  0.00  0.00    +0.000 C 
ATOM     10  C   UNL     1      -5.374  11.848  17.412  0.00  0.00    +0.000 C 
ATOM     11  N   UNL     1      -4.363  10.821  17.760  0.00  0.00    +0.000 N 
ATOM     12  C   UNL     1      -3.033  11.166  17.948  0.00  0.00    +0.000 C 
ATOM     13  O   UNL     1      -2.181  10.758  17.152  0.00  0.00    +0.000 OA
ATOM     14  C   UNL     1      -2.584  11.971  19.235  0.00  0.00    +0.000 C 
ATOM     15  N   UNL     1      -1.585  12.981  18.775  0.00  0.00    +0.000 N 
ATOM     16  C   UNL     1      -0.615  13.457  19.647  0.00  0.00    +0.000 C 
ATOM     17  O   UNL     1       0.107  12.706  20.283  0.00  0.00    +0.000 OA
ATOM     18  C   UNL     1      -0.552  15.039  19.727  0.00  0.00    +0.000 C 
ATOM     19  C   UNL     1       0.690  15.544  18.985  0.00  0.00    +0.000 C 
ATOM     20  N   UNL     1      -0.774  15.650  21.081  0.00  0.00    +0.000 N 
ATOM     21  C   UNL     1       0.206  15.283  22.122  0.00  0.00    +0.000 C 
ATOM     22  C   UNL     1      -1.410  16.925  21.106  0.00  0.00    +0.000 C 
ATOM     23  O   UNL     1      -1.231  17.702  20.165  0.00  0.00    +0.000 OA
ATOM     24  H   UNL     1      -3.542  17.709  20.404  0.00  0.00    +0.000 HD
ATOM     25  H   UNL     1      -4.397  10.073  17.075  0.00  0.00    +0.000 HD
ATOM     26  H   UNL     1      -1.080  12.526  18.016  0.00  0.00    +0.000 HD
ENDROOT
BRANCH   1  27
ATOM     27  C   UNL     1      -2.278  18.042  23.458  0.00  0.00    +0.000 C 
ATOM     28  C   UNL     1      -0.858  18.614  23.523  0.00  0.00    +0.000 C 
BRANCH  27  30
ATOM     29  C   UNL     1      -2.837  15.781  24.663  0.00  0.00    +0.000 C 
ATOM     30  C   UNL     1      -2.637  17.290  24.754  0.00  0.00    +0.000 C 
ENDBRANCH  27  30
ENDBRANCH   1  27
BRANCH  14  31
ATOM     31  C   UNL     1      -3.799  12.568  19.963  0.00  0.00    +0.000 C 
BRANCH  31  32
ATOM     32  C   UNL     1      -3.902  12.764  21.453  0.00  0.00    +0.000 A 
ATOM     33  C   UNL     1      -5.055  13.160  22.094  0.00  0.00    +0.000 A 
ATOM     34  C   UNL     1      -5.190  13.035  23.475  0.00  0.00    +0.000 A 
ATOM     35  C   UNL     1      -4.184  12.461  24.234  0.00  0.00    +0.000 A 
ATOM     36  C   UNL     1      -2.972  12.182  23.632  0.00  0.00    +0.000 A 
ATOM     37  C   UNL     1      -2.822  12.369  22.261  0.00  0.00    +0.000 A 
ENDBRANCH  31  32
ENDBRANCH  14  31
TORSDOF 4
ENDMDL
MODEL 5
REMARK VINA RESULT:      -6.7      3.593      5.697
REMARK  Name = 
REMARK  8 active torsions:
REMARK  status: ('A' for Active; 'I' for Inactive)
REMARK    1  A    between atoms: C_1  and  C_2
REMARK    2  A    between atoms: C_2  and  C_3
REMARK    3  A    between atoms: C_3  and  C_4
REMARK    4  A    between atoms: C_3  and  C_5
REMARK    5  A    between atoms: C_18  and  C_19
REMARK    6  A    between atoms: C_19  and  C_20
REMARK    7  A    between atoms: C_29  and  C_30
REMARK    8  A    between atoms: N_31  and  C_32
REMARK                            x       y       z     vdW  Elec       q    Type
REMARK                         _______ _______ _______ _____ _____    ______ ____
ROOT
ATOM      1  C   UNL     1       0.663  15.328  19.050  0.00  0.00    +0.000 C 
ATOM      2  N   UNL     1      -0.459  16.146  18.461  0.00  0.00    +0.000 NA
ATOM      3  C   UNL     1      -0.851  17.351  19.221  0.00  0.00    +0.000 C 
ATOM      4  C   UNL     1      -2.373  17.413  19.517  0.00  0.00    +0.000 C 
ATOM      5  C   UNL     1      -2.812  18.572  20.448  0.00  0.00    +0.000 C 
ATOM      6  C   UNL     1      -4.262  18.396  20.988  0.00  0.00    +0.000 C 
ATOM      7  C   UNL     1      -4.289  17.842  22.422  0.00  0.00    +0.000 C 
ATOM      8  C   UNL     1      -5.649  17.319  22.914  0.00  0.00    +0.000 C 
ATOM      9  C   UNL     1      -5.500  16.334  24.104  0.00  0.00    +0.000 C 
ATOM     10  C   UNL     1      -5.472  14.855  23.651  0.00  0.00    +0.000 C 
ATOM     11  N   UNL     1      -4.839  13.929  24.620  0.00  0.00    +0.000 N 
ATOM     12  C   UNL     1      -4.029  12.890  24.187  0.00  0.00    +0.000 C 
ATOM     13  O   UNL     1      -4.401  11.723  24.350  0.00  0.00    +0.000 OA
ATOM     14  C   UNL     1      -2.589  13.182  23.602  0.00  0.00    +0.000 C 
ATOM     15  N   UNL     1      -2.417  12.274  22.428  0.00  0.00    +0.000 N 
ATOM     16  C   UNL     1      -1.148  11.869  22.033  0.00  0.00    +0.000 C 
ATOM     17  O   UNL     1      -0.357  11.370  22.817  0.00  0.00    +0.000 OA
ATOM     18  C   UNL     1      -0.850  12.122  20.498  0.00  0.00    +0.000 C 
ATOM     19  C   UNL     1      -0.881  10.791  19.740  0.00  0.00    +0.000 C 
ATOM     20  N   UNL     1       0.325  13.004  20.181  0.00  0.00    +0.000 N 
ATOM     21  C   UNL     1       1.640  12.516  20.640  0.00  0.00    +0.000 C 
ATOM     22  C   UNL     1       0.221  13.800  19.003  0.00  0.00    +0.000 C 
ATOM     23  O   UNL     1      -0.431  13.374  18.047  0.00  0.00    +0.000 OA
ATOM     24  H   UNL     1      -1.261  15.527  18.315  0.00  0.00    +0.000 HD
ATOM     25  H   UNL     1      -5.555  13.536  25.223  0.00  0.00    +0.000 HD
ATOM     26  H   UNL     1      -2.918  11.422  22.678  0.00  0.00    +0.000 HD
ENDROOT
BRANCH   1  27
ATOM     27  C   UNL     1       2.049  15.769  18.446  0.00  0.00    +0.000 C 
ATOM     28  C   UNL     1       2.912  14.605  17.947  0.00  0.00    +0.000 C 
BRANCH  27  30
ATOM     29  C   UNL     1       2.522  16.633  20.877  0.00  0.00    +0.000 C 
ATOM     30  C   UNL     1       2.848  16.691  19.388  0.00  0.00    +0.000 C 
ENDBRANCH  27  30
ENDBRANCH   1  27
BRANCH  14  31
ATOM     31  C   UNL     1      -2.417  14.674  23.277  0.00  0.00    +0.000 C 
BRANCH  31  32
ATOM     32  C   UNL     1      -1.628  15.653  24.107  0.00  0.00    +0.000 A 
ATOM     33  C   UNL     1      -1.007  16.768  23.589  0.00  0.00    +0.000 A 
ATOM     34  C   UNL     1      -0.555  17.791  24.419  0.00  0.00    +0.000 A 
ATOM     35  C   UNL     1      -0.765  17.737  25.786  0.00  0.00    +0.000 A 
ATOM     36  C   UNL     1      -1.265  16.573  26.337  0.00  0.00    +0.000 A 
ATOM     37  C   UNL     1      -1.656  15.527  25.506  0.00  0.00    +0.000 A 
ENDBRANCH  31  32
ENDBRANCH  14  31
TORSDOF 4
ENDMDL
MODEL 6
REMARK VINA RESULT:      -6.5      1.634      2.453
REMARK  Name = 
REMARK  8 active torsions:
REMARK  status: ('A' for Active; 'I' for Inactive)
REMARK    1  A    between atoms: C_1  and  C_2
REMARK    2  A    between atoms: C_2  and  C_3
REMARK    3  A    between atoms: C_3  and  C_4
REMARK    4  A    between atoms: C_3  and  C_5
REMARK    5  A    between atoms: C_18  and  C_19
REMARK    6  A    between atoms: C_19  and  C_20
REMARK    7  A    between atoms: C_29  and  C_30
REMARK    8  A    between atoms: N_31  and  C_32
REMARK                            x       y       z     vdW  Elec       q    Type
REMARK                         _______ _______ _______ _____ _____    ______ ____
ROOT
ATOM      1  C   UNL     1      -1.374  16.267  22.150  0.00  0.00    +0.000 C 
ATOM      2  N   UNL     1      -2.565  17.075  21.699  0.00  0.00    +0.000 NA
ATOM      3  C   UNL     1      -3.889  16.555  22.097  0.00  0.00    +0.000 C 
ATOM      4  C   UNL     1      -4.868  16.405  20.902  0.00  0.00    +0.000 C 
ATOM      5  C   UNL     1      -6.214  15.714  21.240  0.00  0.00    +0.000 C 
ATOM      6  C   UNL     1      -7.004  15.279  19.971  0.00  0.00    +0.000 C 
ATOM      7  C   UNL     1      -6.837  13.783  19.661  0.00  0.00    +0.000 C 
ATOM      8  C   UNL     1      -7.290  13.333  18.261  0.00  0.00    +0.000 C 
ATOM      9  C   UNL     1      -6.634  11.991  17.838  0.00  0.00    +0.000 C 
ATOM     10  C   UNL     1      -5.356  12.197  16.991  0.00  0.00    +0.000 C 
ATOM     11  N   UNL     1      -4.429  11.041  16.992  0.00  0.00    +0.000 N 
ATOM     12  C   UNL     1      -3.055  11.230  17.036  0.00  0.00    +0.000 C 
ATOM     13  O   UNL     1      -2.367  10.915  16.060  0.00  0.00    +0.000 OA
ATOM     14  C   UNL     1      -2.354  11.728  18.364  0.00  0.00    +0.000 C 
ATOM     15  N   UNL     1      -1.319  12.721  17.950  0.00  0.00    +0.000 N 
ATOM     16  C   UNL     1      -0.195  12.935  18.737  0.00  0.00    +0.000 C 
ATOM     17  O   UNL     1       0.517  12.016  19.110  0.00  0.00    +0.000 OA
ATOM     18  C   UNL     1       0.053  14.460  19.090  0.00  0.00    +0.000 C 
ATOM     19  C   UNL     1       1.234  14.994  18.274  0.00  0.00    +0.000 C 
ATOM     20  N   UNL     1       0.082  14.812  20.551  0.00  0.00    +0.000 N 
ATOM     21  C   UNL     1       1.144  14.169  21.348  0.00  0.00    +0.000 C 
ATOM     22  C   UNL     1      -0.400  16.106  20.901  0.00  0.00    +0.000 C 
ATOM     23  O   UNL     1      -0.262  17.034  20.101  0.00  0.00    +0.000 OA
ATOM     24  H   UNL     1      -2.506  17.189  20.683  0.00  0.00    +0.000 HD
ATOM     25  H   UNL     1      -4.635  10.447  16.195  0.00  0.00    +0.000 HD
ATOM     26  H   UNL     1      -0.972  12.383  17.053  0.00  0.00    +0.000 HD
ENDROOT
BRANCH   1  27
ATOM     27  C   UNL     1      -0.820  16.812  23.520  0.00  0.00    +0.000 C 
ATOM     28  C   UNL     1       0.616  17.342  23.446  0.00  0.00    +0.000 C 
BRANCH  27  30
ATOM     29  C   UNL     1      -2.207  15.961  25.576  0.00  0.00    +0.000 C 
ATOM     30  C   UNL     1      -0.985  15.807  24.677  0.00  0.00    +0.000 C 
ENDBRANCH  27  30
ENDBRANCH   1  27
BRANCH  14  31
ATOM     31  C   UNL     1      -3.388  12.272  19.363  0.00  0.00    +0.000 C 
BRANCH  31  32
ATOM     32  C   UNL     1      -3.230  12.261  20.861  0.00  0.00    +0.000 A 
ATOM     33  C   UNL     1      -2.020  12.108  21.502  0.00  0.00    +0.000 A 
ATOM     34  C   UNL     1      -1.879  12.404  22.855  0.00  0.00    +0.000 A 
ATOM     35  C   UNL     1      -2.943  12.911  23.582  0.00  0.00    +0.000 A 
ATOM     36  C   UNL     1      -4.193  12.947  22.996  0.00  0.00    +0.000 A 
ATOM     37  C   UNL     1      -4.340  12.588  21.658  0.00  0.00    +0.000 A 
ENDBRANCH  31  32
ENDBRANCH  14  31
TORSDOF 4
ENDMDL
MODEL 7
REMARK VINA RESULT:      -6.5      1.817      2.583
REMARK  Name = 
REMARK  8 active torsions:
REMARK  status: ('A' for Active; 'I' for Inactive)
REMARK    1  A    between atoms: C_1  and  C_2
REMARK    2  A    between atoms: C_2  and  C_3
REMARK    3  A    between atoms: C_3  and  C_4
REMARK    4  A    between atoms: C_3  and  C_5
REMARK    5  A    between atoms: C_18  and  C_19
REMARK    6  A    between atoms: C_19  and  C_20
REMARK    7  A    between atoms: C_29  and  C_30
REMARK    8  A    between atoms: N_31  and  C_32
REMARK                            x       y       z     vdW  Elec       q    Type
REMARK                         _______ _______ _______ _____ _____    ______ ____
ROOT
ATOM      1  C   UNL     1      -1.125  16.711  21.593  0.00  0.00    +0.000 C 
ATOM      2  N   UNL     1      -2.202  17.457  20.844  0.00  0.00    +0.000 NA
ATOM      3  C   UNL     1      -3.594  17.098  21.181  0.00  0.00    +0.000 C 
ATOM      4  C   UNL     1      -4.448  16.739  19.936  0.00  0.00    +0.000 C 
ATOM      5  C   UNL     1      -5.868  16.201  20.249  0.00  0.00    +0.000 C 
ATOM      6  C   UNL     1      -6.548  15.540  19.014  0.00  0.00    +0.000 C 
ATOM      7  C   UNL     1      -6.455  14.006  19.046  0.00  0.00    +0.000 C 
ATOM      8  C   UNL     1      -6.788  13.286  17.728  0.00  0.00    +0.000 C 
ATOM      9  C   UNL     1      -6.187  11.856  17.676  0.00  0.00    +0.000 C 
ATOM     10  C   UNL     1      -4.816  11.814  16.963  0.00  0.00    +0.000 C 
ATOM     11  N   UNL     1      -3.978  10.643  17.316  0.00  0.00    +0.000 N 
ATOM     12  C   UNL     1      -2.607  10.773  17.483  0.00  0.00    +0.000 C 
ATOM     13  O   UNL     1      -1.843  10.222  16.684  0.00  0.00    +0.000 OA
ATOM     14  C   UNL     1      -2.017  11.512  18.751  0.00  0.00    +0.000 C 
ATOM     15  N   UNL     1      -0.876  12.343  18.264  0.00  0.00    +0.000 N 
ATOM     16  C   UNL     1       0.170  12.670  19.117  0.00  0.00    +0.000 C 
ATOM     17  O   UNL     1       0.771  11.821  19.756  0.00  0.00    +0.000 OA
ATOM     18  C   UNL     1       0.487  14.221  19.171  0.00  0.00    +0.000 C 
ATOM     19  C   UNL     1       1.783  14.511  18.408  0.00  0.00    +0.000 C 
ATOM     20  N   UNL     1       0.385  14.878  20.518  0.00  0.00    +0.000 N 
ATOM     21  C   UNL     1       1.308  14.374  21.553  0.00  0.00    +0.000 C 
ATOM     22  C   UNL     1      -0.039  16.239  20.530  0.00  0.00    +0.000 C 
ATOM     23  O   UNL     1       0.249  16.965  19.576  0.00  0.00    +0.000 OA
ATOM     24  H   UNL     1      -2.027  17.346  19.842  0.00  0.00    +0.000 HD
ATOM     25  H   UNL     1      -4.140   9.901  16.643  0.00  0.00    +0.000 HD
ATOM     26  H   UNL     1      -0.461  11.803  17.506  0.00  0.00    +0.000 HD
ENDROOT
BRANCH   1  27
ATOM     27  C   UNL     1      -0.683  17.513  22.874  0.00  0.00    +0.000 C 
ATOM     28  C   UNL     1       0.796  17.915  22.880  0.00  0.00    +0.000 C 
BRANCH  27  30
ATOM     29  C   UNL     1      -1.179  15.287  24.169  0.00  0.00    +0.000 C 
ATOM     30  C   UNL     1      -1.074  16.808  24.188  0.00  0.00    +0.000 C 
ENDBRANCH  27  30
ENDBRANCH   1  27
BRANCH  14  31
ATOM     31  C   UNL     1      -3.110  12.307  19.484  0.00  0.00    +0.000 C 
BRANCH  31  32
ATOM     32  C   UNL     1      -3.150  12.553  20.970  0.00  0.00    +0.000 A 
ATOM     33  C   UNL     1      -4.231  13.099  21.626  0.00  0.00    +0.000 A 
ATOM     34  C   UNL     1      -4.342  13.027  23.012  0.00  0.00    +0.000 A 
ATOM     35  C   UNL     1      -3.391  12.359  23.764  0.00  0.00    +0.000 A 
ATOM     36  C   UNL     1      -2.237  11.922  23.143  0.00  0.00    +0.000 A 
ATOM     37  C   UNL     1      -2.103  12.054  21.763  0.00  0.00    +0.000 A 
ENDBRANCH  31  32
ENDBRANCH  14  31
TORSDOF 4
ENDMDL
MODEL 8
REMARK VINA RESULT:      -6.4      3.551      5.806
REMARK  Name = 
REMARK  8 active torsions:
REMARK  status: ('A' for Active; 'I' for Inactive)
REMARK    1  A    between atoms: C_1  and  C_2
REMARK    2  A    between atoms: C_2  and  C_3
REMARK    3  A    between atoms: C_3  and  C_4
REMARK    4  A    between atoms: C_3  and  C_5
REMARK    5  A    between atoms: C_18  and  C_19
REMARK    6  A    between atoms: C_19  and  C_20
REMARK    7  A    between atoms: C_29  and  C_30
REMARK    8  A    between atoms: N_31  and  C_32
REMARK                            x       y       z     vdW  Elec       q    Type
REMARK                         _______ _______ _______ _____ _____    ______ ____
ROOT
ATOM      1  C   UNL     1       0.616  15.376  18.996  0.00  0.00    +0.000 C 
ATOM      2  N   UNL     1      -0.514  16.173  18.394  0.00  0.00    +0.000 NA
ATOM      3  C   UNL     1      -0.917  17.387  19.133  0.00  0.00    +0.000 C 
ATOM      4  C   UNL     1      -2.439  17.441  19.430  0.00  0.00    +0.000 C 
ATOM      5  C   UNL     1      -2.888  18.612  20.341  0.00  0.00    +0.000 C 
ATOM      6  C   UNL     1      -4.336  18.432  20.885  0.00  0.00    +0.000 C 
ATOM      7  C   UNL     1      -4.357  17.902  22.328  0.00  0.00    +0.000 C 
ATOM      8  C   UNL     1      -5.713  17.375  22.829  0.00  0.00    +0.000 C 
ATOM      9  C   UNL     1      -5.554  16.411  24.036  0.00  0.00    +0.000 C 
ATOM     10  C   UNL     1      -5.514  14.926  23.608  0.00  0.00    +0.000 C 
ATOM     11  N   UNL     1      -4.871  14.022  24.592  0.00  0.00    +0.000 N 
ATOM     12  C   UNL     1      -4.053  12.983  24.176  0.00  0.00    +0.000 C 
ATOM     13  O   UNL     1      -4.414  11.815  24.359  0.00  0.00    +0.000 OA
ATOM     14  C   UNL     1      -2.615  13.277  23.585  0.00  0.00    +0.000 C 
ATOM     15  N   UNL     1      -2.435  12.352  22.427  0.00  0.00    +0.000 N 
ATOM     16  C   UNL     1      -1.164  11.951  22.038  0.00  0.00    +0.000 C 
ATOM     17  O   UNL     1      -0.367  11.473  22.829  0.00  0.00    +0.000 OA
ATOM     18  C   UNL     1      -0.868  12.181  20.498  0.00  0.00    +0.000 C 
ATOM     19  C   UNL     1      -0.888  10.837  19.763  0.00  0.00    +0.000 C 
ATOM     20  N   UNL     1       0.298  13.068  20.166  0.00  0.00    +0.000 N 
ATOM     21  C   UNL     1       1.617  12.599  20.632  0.00  0.00    +0.000 C 
ATOM     22  C   UNL     1       0.187  13.843  18.975  0.00  0.00    +0.000 C 
ATOM     23  O   UNL     1      -0.462  13.395  18.027  0.00  0.00    +0.000 OA
ATOM     24  H   UNL     1      -1.310  15.545  18.258  0.00  0.00    +0.000 HD
ATOM     25  H   UNL     1      -5.583  13.633  25.202  0.00  0.00    +0.000 HD
ATOM     26  H   UNL     1      -2.929  11.500  22.691  0.00  0.00    +0.000 HD
ENDROOT
BRANCH   1  27
ATOM     27  C   UNL     1       1.997  15.819  18.384  0.00  0.00    +0.000 C 
ATOM     28  C   UNL     1       2.914  14.652  18.002  0.00  0.00    +0.000 C 
BRANCH  27  30
ATOM     29  C   UNL     1       4.251  16.704  19.390  0.00  0.00    +0.000 C 
ATOM     30  C   UNL     1       2.739  16.848  19.260  0.00  0.00    +0.000 C 
ENDBRANCH  27  30
ENDBRANCH   1  27
BRANCH  14  31
ATOM     31  C   UNL     1      -2.457  14.765  23.235  0.00  0.00    +0.000 C 
BRANCH  31  32
ATOM     32  C   UNL     1      -1.180  15.554  23.371  0.00  0.00    +0.000 A 
ATOM     33  C   UNL     1      -0.034  15.281  22.657  0.00  0.00    +0.000 A 
ATOM     34  C   UNL     1       1.007  16.204  22.588  0.00  0.00    +0.000 A 
ATOM     35  C   UNL     1       0.894  17.443  23.194  0.00  0.00    +0.000 A 
ATOM     36  C   UNL     1      -0.186  17.684  24.022  0.00  0.00    +0.000 A 
ATOM     37  C   UNL     1      -1.194  16.731  24.138  0.00  0.00    +0.000 A 
ENDBRANCH  31  32
ENDBRANCH  14  31
TORSDOF 4
ENDMDL
MODEL 9
REMARK VINA RESULT:      -6.4      1.754      2.405
REMARK  Name = 
REMARK  8 active torsions:
REMARK  status: ('A' for Active; 'I' for Inactive)
REMARK    1  A    between atoms: C_1  and  C_2
REMARK    2  A    between atoms: C_2  and  C_3
REMARK    3  A    between atoms: C_3  and  C_4
REMARK    4  A    between atoms: C_3  and  C_5
REMARK    5  A    between atoms: C_18  and  C_19
REMARK    6  A    between atoms: C_19  and  C_20
REMARK    7  A    between atoms: C_29  and  C_30
REMARK    8  A    between atoms: N_31  and  C_32
REMARK                            x       y       z     vdW  Elec       q    Type
REMARK                         _______ _______ _______ _____ _____    ______ ____
ROOT
ATOM      1  C   UNL     1      -1.990  16.402  22.429  0.00  0.00    +0.000 C 
ATOM      2  N   UNL     1      -3.201  17.146  21.923  0.00  0.00    +0.000 NA
ATOM      3  C   UNL     1      -4.512  16.558  22.264  0.00  0.00    +0.000 C 
ATOM      4  C   UNL     1      -5.428  16.356  21.027  0.00  0.00    +0.000 C 
ATOM      5  C   UNL     1      -6.749  15.595  21.307  0.00  0.00    +0.000 C 
ATOM      6  C   UNL     1      -7.458  15.119  20.005  0.00  0.00    +0.000 C 
ATOM      7  C   UNL     1      -7.200  13.634  19.707  0.00  0.00    +0.000 C 
ATOM      8  C   UNL     1      -7.566  13.160  18.290  0.00  0.00    +0.000 C 
ATOM      9  C   UNL     1      -6.822  11.854  17.900  0.00  0.00    +0.000 C 
ATOM     10  C   UNL     1      -5.520  12.126  17.110  0.00  0.00    +0.000 C 
ATOM     11  N   UNL     1      -4.534  11.020  17.155  0.00  0.00    +0.000 N 
ATOM     12  C   UNL     1      -3.176  11.282  17.260  0.00  0.00    +0.000 C 
ATOM     13  O   UNL     1      -2.430  11.002  16.316  0.00  0.00    +0.000 OA
ATOM     14  C   UNL     1      -2.562  11.816  18.616  0.00  0.00    +0.000 C 
ATOM     15  N   UNL     1      -1.563  12.862  18.245  0.00  0.00    +0.000 N 
ATOM     16  C   UNL     1      -0.487  13.135  19.081  0.00  0.00    +0.000 C 
ATOM     17  O   UNL     1       0.254  12.255  19.487  0.00  0.00    +0.000 OA
ATOM     18  C   UNL     1      -0.336  14.671  19.441  0.00  0.00    +0.000 C 
ATOM     19  C   UNL     1       0.851  15.266  18.676  0.00  0.00    +0.000 C 
ATOM     20  N   UNL     1      -0.391  15.024  20.900  0.00  0.00    +0.000 N 
ATOM     21  C   UNL     1       0.667  14.438  21.745  0.00  0.00    +0.000 C 
ATOM     22  C   UNL     1      -0.955  16.292  21.225  0.00  0.00    +0.000 C 
ATOM     23  O   UNL     1      -0.830  17.225  20.429  0.00  0.00    +0.000 OA
ATOM     24  H   UNL     1      -3.103  17.262  20.911  0.00  0.00    +0.000 HD
ATOM     25  H   UNL     1      -4.674  10.416  16.352  0.00  0.00    +0.000 HD
ATOM     26  H   UNL     1      -1.159  12.542  17.366  0.00  0.00    +0.000 HD
ENDROOT
BRANCH   1  27
ATOM     27  C   UNL     1      -1.527  16.976  23.821  0.00  0.00    +0.000 C 
ATOM     28  C   UNL     1      -1.827  16.055  25.007  0.00  0.00    +0.000 C 
BRANCH  27  30
ATOM     29  C   UNL     1      -2.910  18.631  25.312  0.00  0.00    +0.000 C 
ATOM     30  C   UNL     1      -2.040  18.406  24.081  0.00  0.00    +0.000 C 
ENDBRANCH  27  30
ENDBRANCH   1  27
BRANCH  14  31
ATOM     31  C   UNL     1      -3.666  12.306  19.567  0.00  0.00    +0.000 C 
BRANCH  31  32
ATOM     32  C   UNL     1      -3.493  12.533  21.046  0.00  0.00    +0.000 A 
ATOM     33  C   UNL     1      -4.493  13.004  21.869  0.00  0.00    +0.000 A 
ATOM     34  C   UNL     1      -4.387  12.911  23.254  0.00  0.00    +0.000 A 
ATOM     35  C   UNL     1      -3.295  12.295  23.840  0.00  0.00    +0.000 A 
ATOM     36  C   UNL     1      -2.224  11.938  23.043  0.00  0.00    +0.000 A 
ATOM     37  C   UNL     1      -2.310  12.092  21.662  0.00  0.00    +0.000 A 
ENDBRANCH  31  32
ENDBRANCH  14  31
TORSDOF 4
ENDMDL
