MODEL 1
REMARK VINA RESULT:      -8.1      0.000      0.000
REMARK  Name = 
REMARK  11 active torsions:
REMARK  status: ('A' for Active; 'I' for Inactive)
REMARK    1  A    between atoms: C_1  and  C_2
REMARK    2  A    between atoms: C_2  and  N_3
REMARK    3  A    between atoms: N_3  and  C_4
REMARK    4  A    between atoms: N_3  and  C_6
REMARK    5  A    between atoms: C_4  and  C_5
REMARK    6  A    between atoms: C_6  and  C_7
REMARK    7  A    between atoms: C_7  and  C_8
REMARK    8  A    between atoms: C_8  and  C_9
REMARK    9  A    between atoms: C_9  and  C_10
REMARK   10  A    between atoms: C_9  and  N_11
REMARK   11  A    between atoms: C_12  and  C_14
REMARK                            x       y       z     vdW  Elec       q    Type
REMARK                         _______ _______ _______ _____ _____    ______ ____
ROOT
ATOM      1  C   UNL     1       2.353   7.582  19.011  0.00  0.00    +0.000 A 
ATOM      2  C   UNL     1       2.026   8.309  17.856  0.00  0.00    +0.000 A 
ATOM      3  C   UNL     1       1.152   9.398  17.932  0.00  0.00    +0.000 A 
ATOM      4  C   UNL     1       0.611   9.776  19.164  0.00  0.00    +0.000 A 
ATOM      5  C   UNL     1       0.963   9.077  20.320  0.00  0.00    +0.000 A 
ATOM      6  C   UNL     1       1.830   7.975  20.246  0.00  0.00    +0.000 A 
ATOM      7  C   UNL     1       0.436   9.499  21.632  0.00  0.00    +0.000 C 
ATOM      8  O   UNL     1       0.772   8.902  22.649  0.00  0.00    +0.000 OA
ATOM      9  C   UNL     1      -0.507  10.633  21.701  0.00  0.00    +0.000 A 
ATOM     10  C   UNL     1      -1.029  11.025  22.940  0.00  0.00    +0.000 A 
ATOM     11  C   UNL     1      -1.955  12.067  23.010  0.00  0.00    +0.000 A 
ATOM     12  C   UNL     1      -2.361  12.720  21.845  0.00  0.00    +0.000 A 
ATOM     13  C   UNL     1      -1.828  12.344  20.612  0.00  0.00    +0.000 A 
ATOM     14  C   UNL     1      -0.896  11.299  20.540  0.00  0.00    +0.000 A 
ATOM     15  C   UNL     1      -0.329  10.913  19.234  0.00  0.00    +0.000 C 
ATOM     16  O   UNL     1      -0.639  11.523  18.215  0.00  0.00    +0.000 OA
ENDROOT
BRANCH   1  18
ATOM     17  N   UNL     1       3.694   6.101  17.597  0.00  0.00    +0.000 N 
ATOM     18  C   UNL     1       3.297   6.438  18.878  0.00  0.00    +0.000 C 
ATOM     19  O   UNL     1       3.699   5.869  19.887  0.00  0.00    +0.000 OA
ATOM     20  H   UNL     1       3.510   6.743  16.838  0.00  0.00    +0.000 HD
BRANCH  17  21
ATOM     21  C   UNL     1       4.689   5.055  17.369  0.00  0.00    +0.000 C 
ATOM     22  C   UNL     1       5.915   5.641  16.665  0.00  0.00    +0.000 C 
BRANCH  21  23
ATOM     23  C   UNL     1       4.061   3.890  16.582  0.00  0.00    +0.000 C 
BRANCH  23  24
ATOM     24  C   UNL     1       2.714   3.447  17.165  0.00  0.00    +0.000 C 
BRANCH  24  25
ATOM     25  C   UNL     1       2.766   2.108  17.920  0.00  0.00    +0.000 C 
BRANCH  25  26
ATOM     26  N   UNL     1       2.227   2.136  19.293  0.00  0.00    +0.000 NA
BRANCH  26  28
ATOM     27  C   UNL     1       4.623   2.085  20.084  0.00  0.00    +0.000 C 
ATOM     28  C   UNL     1       3.210   2.630  20.270  0.00  0.00    +0.000 C 
ENDBRANCH  26  28
BRANCH  26  29
ATOM     29  C   UNL     1       0.931   2.840  19.342  0.00  0.00    +0.000 C 
ATOM     30  C   UNL     1       0.821   4.002  20.328  0.00  0.00    +0.000 C 
ENDBRANCH  26  29
ENDBRANCH  25  26
ENDBRANCH  24  25
ENDBRANCH  23  24
ENDBRANCH  21  23
ENDBRANCH  17  21
ENDBRANCH   1  18
TORSDOF 8
ENDMDL
MODEL 2
REMARK VINA RESULT:      -7.5      0.790      1.555
REMARK  Name = 
REMARK  11 active torsions:
REMARK  status: ('A' for Active; 'I' for Inactive)
REMARK    1  A    between atoms: C_1  and  C_2
REMARK    2  A    between atoms: C_2  and  N_3
REMARK    3  A    between atoms: N_3  and  C_4
REMARK    4  A    between atoms: N_3  and  C_6
REMARK    5  A    between atoms: C_4  and  C_5
REMARK    6  A    between atoms: C_6  and  C_7
REMARK    7  A    between atoms: C_7  and  C_8
REMARK    8  A    between atoms: C_8  and  C_9
REMARK    9  A    between atoms: C_9  and  C_10
REMARK   10  A    between atoms: C_9  and  N_11
REMARK   11  A    between atoms: C_12  and  C_14
REMARK                            x       y       z     vdW  Elec       q    Type
REMARK                         _______ _______ _______ _____ _____    ______ ____
ROOT
ATOM      1  C   UNL     1       2.187   8.043  18.937  0.00  0.00    +0.000 A 
ATOM      2  C   UNL     1       1.751   8.750  17.806  0.00  0.00    +0.000 A 
ATOM      3  C   UNL     1       0.794   9.761  17.931  0.00  0.00    +0.000 A 
ATOM      4  C   UNL     1       0.278  10.083  19.190  0.00  0.00    +0.000 A 
ATOM      5  C   UNL     1       0.736   9.406  20.322  0.00  0.00    +0.000 A 
ATOM      6  C   UNL     1       1.687   8.380  20.198  0.00  0.00    +0.000 A 
ATOM      7  C   UNL     1       0.233   9.772  21.660  0.00  0.00    +0.000 C 
ATOM      8  O   UNL     1       0.660   9.197  22.654  0.00  0.00    +0.000 OA
ATOM      9  C   UNL     1      -0.797  10.823  21.782  0.00  0.00    +0.000 A 
ATOM     10  C   UNL     1      -1.295  11.160  23.047  0.00  0.00    +0.000 A 
ATOM     11  C   UNL     1      -2.300  12.120  23.168  0.00  0.00    +0.000 A 
ATOM     12  C   UNL     1      -2.809  12.747  22.030  0.00  0.00    +0.000 A 
ATOM     13  C   UNL     1      -2.301  12.426  20.770  0.00  0.00    +0.000 A 
ATOM     14  C   UNL     1      -1.289  11.464  20.647  0.00  0.00    +0.000 A 
ATOM     15  C   UNL     1      -0.750  11.137  19.313  0.00  0.00    +0.000 C 
ATOM     16  O   UNL     1      -1.153  11.728  18.316  0.00  0.00    +0.000 OA
ENDROOT
BRANCH   1  18
ATOM     17  N   UNL     1       4.059   7.115  17.663  0.00  0.00    +0.000 N 
ATOM     18  C   UNL     1       3.216   6.983  18.751  0.00  0.00    +0.000 C 
ATOM     19  O   UNL     1       3.293   6.069  19.565  0.00  0.00    +0.000 OA
ATOM     20  H   UNL     1       4.093   7.996  17.168  0.00  0.00    +0.000 HD
BRANCH  17  21
ATOM     21  C   UNL     1       5.160   6.177  17.448  0.00  0.00    +0.000 C 
ATOM     22  C   UNL     1       6.476   6.942  17.280  0.00  0.00    +0.000 C 
BRANCH  21  23
ATOM     23  C   UNL     1       4.853   5.268  16.243  0.00  0.00    +0.000 C 
BRANCH  23  24
ATOM     24  C   UNL     1       4.682   3.799  16.646  0.00  0.00    +0.000 C 
BRANCH  24  25
ATOM     25  C   UNL     1       3.257   3.430  17.087  0.00  0.00    +0.000 C 
BRANCH  25  26
ATOM     26  N   UNL     1       3.097   3.127  18.523  0.00  0.00    +0.000 NA
BRANCH  26  28
ATOM     27  C   UNL     1       0.711   2.491  19.044  0.00  0.00    +0.000 C 
ATOM     28  C   UNL     1       2.140   2.035  18.762  0.00  0.00    +0.000 C 
ENDBRANCH  26  28
BRANCH  26  29
ATOM     29  C   UNL     1       4.407   2.925  19.172  0.00  0.00    +0.000 C 
ATOM     30  C   UNL     1       4.427   2.021  20.404  0.00  0.00    +0.000 C 
ENDBRANCH  26  29
ENDBRANCH  25  26
ENDBRANCH  24  25
ENDBRANCH  23  24
ENDBRANCH  21  23
ENDBRANCH  17  21
ENDBRANCH   1  18
TORSDOF 8
ENDMDL
MODEL 3
REMARK VINA RESULT:      -7.4      1.441      3.229
REMARK  Name = 
REMARK  11 active torsions:
REMARK  status: ('A' for Active; 'I' for Inactive)
REMARK    1  A    between atoms: C_1  and  C_2
REMARK    2  A    between atoms: C_2  and  N_3
REMARK    3  A    between atoms: N_3  and  C_4
REMARK    4  A    between atoms: N_3  and  C_6
REMARK    5  A    between atoms: C_4  and  C_5
REMARK    6  A    between atoms: C_6  and  C_7
REMARK    7  A    between atoms: C_7  and  C_8
REMARK    8  A    between atoms: C_8  and  C_9
REMARK    9  A    between atoms: C_9  and  C_10
REMARK   10  A    between atoms: C_9  and  N_11
REMARK   11  A    between atoms: C_12  and  C_14
REMARK                            x       y       z     vdW  Elec       q    Type
REMARK                         _______ _______ _______ _____ _____    ______ ____
ROOT
ATOM      1  C   UNL     1       1.971   8.133  18.685  0.00  0.00    +0.000 A 
ATOM      2  C   UNL     1       1.695   9.058  17.667  0.00  0.00    +0.000 A 
ATOM      3  C   UNL     1       0.877  10.163  17.921  0.00  0.00    +0.000 A 
ATOM      4  C   UNL     1       0.341  10.358  19.197  0.00  0.00    +0.000 A 
ATOM      5  C   UNL     1       0.642   9.458  20.220  0.00  0.00    +0.000 A 
ATOM      6  C   UNL     1       1.452   8.340  19.967  0.00  0.00    +0.000 A 
ATOM      7  C   UNL     1       0.120   9.682  21.583  0.00  0.00    +0.000 C 
ATOM      8  O   UNL     1       0.412   8.908  22.487  0.00  0.00    +0.000 OA
ATOM      9  C   UNL     1      -0.764  10.837  21.837  0.00  0.00    +0.000 A 
ATOM     10  C   UNL     1      -1.281  11.043  23.122  0.00  0.00    +0.000 A 
ATOM     11  C   UNL     1      -2.153  12.106  23.362  0.00  0.00    +0.000 A 
ATOM     12  C   UNL     1      -2.511  12.964  22.322  0.00  0.00    +0.000 A 
ATOM     13  C   UNL     1      -1.982  12.772  21.044  0.00  0.00    +0.000 A 
ATOM     14  C   UNL     1      -1.103  11.707  20.803  0.00  0.00    +0.000 A 
ATOM     15  C   UNL     1      -0.541  11.515  19.452  0.00  0.00    +0.000 C 
ATOM     16  O   UNL     1      -0.807  12.303  18.549  0.00  0.00    +0.000 OA
ENDROOT
BRANCH   1  18
ATOM     17  N   UNL     1       2.349   5.716  18.611  0.00  0.00    +0.000 N 
ATOM     18  C   UNL     1       2.856   6.979  18.366  0.00  0.00    +0.000 C 
ATOM     19  O   UNL     1       3.965   7.186  17.884  0.00  0.00    +0.000 OA
ATOM     20  H   UNL     1       1.360   5.608  18.790  0.00  0.00    +0.000 HD
BRANCH  17  21
ATOM     21  C   UNL     1       3.104   4.519  18.244  0.00  0.00    +0.000 C 
ATOM     22  C   UNL     1       2.145   3.405  17.815  0.00  0.00    +0.000 C 
BRANCH  21  23
ATOM     23  C   UNL     1       4.016   4.091  19.410  0.00  0.00    +0.000 C 
BRANCH  23  24
ATOM     24  C   UNL     1       5.503   4.290  19.094  0.00  0.00    +0.000 C 
BRANCH  24  25
ATOM     25  C   UNL     1       5.853   4.146  17.604  0.00  0.00    +0.000 C 
BRANCH  25  26
ATOM     26  N   UNL     1       7.033   4.911  17.155  0.00  0.00    +0.000 NA
BRANCH  26  28
ATOM     27  C   UNL     1       5.578   5.029  15.096  0.00  0.00    +0.000 C 
ATOM     28  C   UNL     1       6.863   5.456  15.798  0.00  0.00    +0.000 C 
ENDBRANCH  26  28
BRANCH  26  29
ATOM     29  C   UNL     1       7.428   5.918  18.158  0.00  0.00    +0.000 C 
ATOM     30  C   UNL     1       7.626   7.346  17.652  0.00  0.00    +0.000 C 
ENDBRANCH  26  29
ENDBRANCH  25  26
ENDBRANCH  24  25
ENDBRANCH  23  24
ENDBRANCH  21  23
ENDBRANCH  17  21
ENDBRANCH   1  18
TORSDOF 8
ENDMDL
MODEL 4
REMARK VINA RESULT:      -7.3      0.763      1.269
REMARK  Name = 
REMARK  11 active torsions:
REMARK  status: ('A' for Active; 'I' for Inactive)
REMARK    1  A    between atoms: C_1  and  C_2
REMARK    2  A    between atoms: C_2  and  N_3
REMARK    3  A    between atoms: N_3  and  C_4
REMARK    4  A    between atoms: N_3  and  C_6
REMARK    5  A    between atoms: C_4  and  C_5
REMARK    6  A    between atoms: C_6  and  C_7
REMARK    7  A    between atoms: C_7  and  C_8
REMARK    8  A    between atoms: C_8  and  C_9
REMARK    9  A    between atoms: C_9  and  C_10
REMARK   10  A    between atoms: C_9  and  N_11
REMARK   11  A    between atoms: C_12  and  C_14
REMARK                            x       y       z     vdW  Elec       q    Type
REMARK                         _______ _______ _______ _____ _____    ______ ____
ROOT
ATOM      1  C   UNL     1       2.473   7.646  18.866  0.00  0.00    +0.000 A 
ATOM      2  C   UNL     1       2.148   8.451  17.764  0.00  0.00    +0.000 A 
ATOM      3  C   UNL     1       1.255   9.517  17.906  0.00  0.00    +0.000 A 
ATOM      4  C   UNL     1       0.692   9.794  19.155  0.00  0.00    +0.000 A 
ATOM      5  C   UNL     1       1.039   9.017  20.261  0.00  0.00    +0.000 A 
ATOM      6  C   UNL     1       1.926   7.938  20.119  0.00  0.00    +0.000 A 
ATOM      7  C   UNL     1       0.488   9.333  21.593  0.00  0.00    +0.000 C 
ATOM      8  O   UNL     1       0.820   8.669  22.568  0.00  0.00    +0.000 OA
ATOM      9  C   UNL     1      -0.475  10.444  21.732  0.00  0.00    +0.000 A 
ATOM     10  C   UNL     1      -1.020  10.735  22.989  0.00  0.00    +0.000 A 
ATOM     11  C   UNL     1      -1.965  11.754  23.121  0.00  0.00    +0.000 A 
ATOM     12  C   UNL     1      -2.366  12.484  22.002  0.00  0.00    +0.000 A 
ATOM     13  C   UNL     1      -1.811  12.208  20.752  0.00  0.00    +0.000 A 
ATOM     14  C   UNL     1      -0.860  11.188  20.617  0.00  0.00    +0.000 A 
ATOM     15  C   UNL     1      -0.270  10.907  19.295  0.00  0.00    +0.000 C 
ATOM     16  O   UNL     1      -0.576  11.586  18.319  0.00  0.00    +0.000 OA
ENDROOT
BRANCH   1  18
ATOM     17  N   UNL     1       3.479   5.962  17.403  0.00  0.00    +0.000 N 
ATOM     18  C   UNL     1       3.437   6.530  18.663  0.00  0.00    +0.000 C 
ATOM     19  O   UNL     1       4.161   6.184  19.590  0.00  0.00    +0.000 OA
ATOM     20  H   UNL     1       3.029   6.436  16.632  0.00  0.00    +0.000 HD
BRANCH  17  21
ATOM     21  C   UNL     1       4.457   4.925  17.079  0.00  0.00    +0.000 C 
ATOM     22  C   UNL     1       5.289   5.350  15.865  0.00  0.00    +0.000 C 
BRANCH  21  23
ATOM     23  C   UNL     1       3.746   3.577  16.860  0.00  0.00    +0.000 C 
BRANCH  23  24
ATOM     24  C   UNL     1       4.283   2.474  17.780  0.00  0.00    +0.000 C 
BRANCH  24  25
ATOM     25  C   UNL     1       4.010   2.715  19.274  0.00  0.00    +0.000 C 
BRANCH  25  26
ATOM     26  N   UNL     1       2.619   3.072  19.613  0.00  0.00    +0.000 NA
BRANCH  26  28
ATOM     27  C   UNL     1       0.334   2.484  18.717  0.00  0.00    +0.000 C 
ATOM     28  C   UNL     1       1.668   2.000  19.277  0.00  0.00    +0.000 C 
ENDBRANCH  26  28
BRANCH  26  29
ATOM     29  C   UNL     1       2.517   3.546  21.007  0.00  0.00    +0.000 C 
ATOM     30  C   UNL     1       1.728   2.663  21.973  0.00  0.00    +0.000 C 
ENDBRANCH  26  29
ENDBRANCH  25  26
ENDBRANCH  24  25
ENDBRANCH  23  24
ENDBRANCH  21  23
ENDBRANCH  17  21
ENDBRANCH   1  18
TORSDOF 8
ENDMDL
MODEL 5
REMARK VINA RESULT:      -7.3      1.472      3.441
REMARK  Name = 
REMARK  11 active torsions:
REMARK  status: ('A' for Active; 'I' for Inactive)
REMARK    1  A    between atoms: C_1  and  C_2
REMARK    2  A    between atoms: C_2  and  N_3
REMARK    3  A    between atoms: N_3  and  C_4
REMARK    4  A    between atoms: N_3  and  C_6
REMARK    5  A    between atoms: C_4  and  C_5
REMARK    6  A    between atoms: C_6  and  C_7
REMARK    7  A    between atoms: C_7  and  C_8
REMARK    8  A    between atoms: C_8  and  C_9
REMARK    9  A    between atoms: C_9  and  C_10
REMARK   10  A    between atoms: C_9  and  N_11
REMARK   11  A    between atoms: C_12  and  C_14
REMARK                            x       y       z     vdW  Elec       q    Type
REMARK                         _______ _______ _______ _____ _____    ______ ____
ROOT
ATOM      1  C   UNL     1       2.097   7.305  19.498  0.00  0.00    +0.000 A 
ATOM      2  C   UNL     1       2.264   8.154  18.393  0.00  0.00    +0.000 A 
ATOM      3  C   UNL     1       1.720   9.442  18.404  0.00  0.00    +0.000 A 
ATOM      4  C   UNL     1       1.018   9.894  19.524  0.00  0.00    +0.000 A 
ATOM      5  C   UNL     1       0.881   9.065  20.639  0.00  0.00    +0.000 A 
ATOM      6  C   UNL     1       1.414   7.767  20.627  0.00  0.00    +0.000 A 
ATOM      7  C   UNL     1       0.184   9.552  21.845  0.00  0.00    +0.000 C 
ATOM      8  O   UNL     1       0.092   8.833  22.833  0.00  0.00    +0.000 OA
ATOM      9  C   UNL     1      -0.411  10.904  21.840  0.00  0.00    +0.000 A 
ATOM     10  C   UNL     1      -1.093  11.365  22.973  0.00  0.00    +0.000 A 
ATOM     11  C   UNL     1      -1.697  12.623  22.961  0.00  0.00    +0.000 A 
ATOM     12  C   UNL     1      -1.621  13.423  21.821  0.00  0.00    +0.000 A 
ATOM     13  C   UNL     1      -0.925  12.975  20.697  0.00  0.00    +0.000 A 
ATOM     14  C   UNL     1      -0.315  11.712  20.708  0.00  0.00    +0.000 A 
ATOM     15  C   UNL     1       0.426  11.248  19.521  0.00  0.00    +0.000 C 
ATOM     16  O   UNL     1       0.546  11.973  18.538  0.00  0.00    +0.000 OA
ENDROOT
BRANCH   1  18
ATOM     17  N   UNL     1       3.337   5.595  18.262  0.00  0.00    +0.000 N 
ATOM     18  C   UNL     1       2.706   5.947  19.440  0.00  0.00    +0.000 C 
ATOM     19  O   UNL     1       2.650   5.220  20.426  0.00  0.00    +0.000 OA
ATOM     20  H   UNL     1       3.546   6.312  17.580  0.00  0.00    +0.000 HD
BRANCH  17  21
ATOM     21  C   UNL     1       4.045   4.322  18.140  0.00  0.00    +0.000 C 
ATOM     22  C   UNL     1       3.047   3.161  18.186  0.00  0.00    +0.000 C 
BRANCH  21  23
ATOM     23  C   UNL     1       5.125   4.210  19.232  0.00  0.00    +0.000 C 
BRANCH  23  24
ATOM     24  C   UNL     1       6.184   5.313  19.124  0.00  0.00    +0.000 C 
BRANCH  24  25
ATOM     25  C   UNL     1       7.351   4.973  18.183  0.00  0.00    +0.000 C 
BRANCH  25  26
ATOM     26  N   UNL     1       7.423   5.778  16.948  0.00  0.00    +0.000 NA
BRANCH  26  28
ATOM     27  C   UNL     1       5.520   5.745  15.290  0.00  0.00    +0.000 C 
ATOM     28  C   UNL     1       6.804   5.097  15.799  0.00  0.00    +0.000 C 
ENDBRANCH  26  28
BRANCH  26  29
ATOM     29  C   UNL     1       6.917   7.146  17.175  0.00  0.00    +0.000 C 
ATOM     30  C   UNL     1       7.931   8.177  17.668  0.00  0.00    +0.000 C 
ENDBRANCH  26  29
ENDBRANCH  25  26
ENDBRANCH  24  25
ENDBRANCH  23  24
ENDBRANCH  21  23
ENDBRANCH  17  21
ENDBRANCH   1  18
TORSDOF 8
ENDMDL
MODEL 6
REMARK VINA RESULT:      -7.3      3.056      5.100
REMARK  Name = 
REMARK  11 active torsions:
REMARK  status: ('A' for Active; 'I' for Inactive)
REMARK    1  A    between atoms: C_1  and  C_2
REMARK    2  A    between atoms: C_2  and  N_3
REMARK    3  A    between atoms: N_3  and  C_4
REMARK    4  A    between atoms: N_3  and  C_6
REMARK    5  A    between atoms: C_4  and  C_5
REMARK    6  A    between atoms: C_6  and  C_7
REMARK    7  A    between atoms: C_7  and  C_8
REMARK    8  A    between atoms: C_8  and  C_9
REMARK    9  A    between atoms: C_9  and  C_10
REMARK   10  A    between atoms: C_9  and  N_11
REMARK   11  A    between atoms: C_12  and  C_14
REMARK                            x       y       z     vdW  Elec       q    Type
REMARK                         _______ _______ _______ _____ _____    ______ ____
ROOT
ATOM      1  C   UNL     1       3.150   5.752  18.813  0.00  0.00    +0.000 A 
ATOM      2  C   UNL     1       2.600   5.408  20.057  0.00  0.00    +0.000 A 
ATOM      3  C   UNL     1       1.826   6.331  20.766  0.00  0.00    +0.000 A 
ATOM      4  C   UNL     1       1.584   7.599  20.228  0.00  0.00    +0.000 A 
ATOM      5  C   UNL     1       2.100   7.932  18.975  0.00  0.00    +0.000 A 
ATOM      6  C   UNL     1       2.889   7.012  18.266  0.00  0.00    +0.000 A 
ATOM      7  C   UNL     1       1.809   9.249  18.377  0.00  0.00    +0.000 C 
ATOM      8  O   UNL     1       2.237   9.526  17.263  0.00  0.00    +0.000 OA
ATOM      9  C   UNL     1       1.012  10.229  19.142  0.00  0.00    +0.000 A 
ATOM     10  C   UNL     1       0.751  11.490  18.592  0.00  0.00    +0.000 A 
ATOM     11  C   UNL     1       0.037  12.438  19.326  0.00  0.00    +0.000 A 
ATOM     12  C   UNL     1      -0.418  12.131  20.609  0.00  0.00    +0.000 A 
ATOM     13  C   UNL     1      -0.176  10.869  21.152  0.00  0.00    +0.000 A 
ATOM     14  C   UNL     1       0.539   9.914  20.415  0.00  0.00    +0.000 A 
ATOM     15  C   UNL     1       0.784   8.579  20.992  0.00  0.00    +0.000 C 
ATOM     16  O   UNL     1       0.334   8.284  22.096  0.00  0.00    +0.000 OA
ENDROOT
BRANCH   1  18
ATOM     17  N   UNL     1       4.741   5.175  17.045  0.00  0.00    +0.000 N 
ATOM     18  C   UNL     1       3.958   4.728  18.094  0.00  0.00    +0.000 C 
ATOM     19  O   UNL     1       3.923   3.561  18.468  0.00  0.00    +0.000 OA
ATOM     20  H   UNL     1       4.900   6.167  16.935  0.00  0.00    +0.000 HD
BRANCH  17  21
ATOM     21  C   UNL     1       5.641   4.265  16.338  0.00  0.00    +0.000 C 
ATOM     22  C   UNL     1       7.093   4.554  16.730  0.00  0.00    +0.000 C 
BRANCH  21  23
ATOM     23  C   UNL     1       5.411   4.368  14.819  0.00  0.00    +0.000 C 
BRANCH  23  24
ATOM     24  C   UNL     1       6.629   3.906  14.009  0.00  0.00    +0.000 C 
BRANCH  24  25
ATOM     25  C   UNL     1       6.410   3.911  12.488  0.00  0.00    +0.000 C 
BRANCH  25  26
ATOM     26  N   UNL     1       5.270   3.103  12.010  0.00  0.00    +0.000 NA
BRANCH  26  28
ATOM     27  C   UNL     1       3.166   3.088  10.618  0.00  0.00    +0.000 C 
ATOM     28  C   UNL     1       4.384   3.861  11.113  0.00  0.00    +0.000 C 
ENDBRANCH  26  28
BRANCH  26  29
ATOM     29  C   UNL     1       5.728   1.816  11.451  0.00  0.00    +0.000 C 
ATOM     30  C   UNL     1       7.180   1.755  10.978  0.00  0.00    +0.000 C 
ENDBRANCH  26  29
ENDBRANCH  25  26
ENDBRANCH  24  25
ENDBRANCH  23  24
ENDBRANCH  21  23
ENDBRANCH  17  21
ENDBRANCH   1  18
TORSDOF 8
ENDMDL
MODEL 7
REMARK VINA RESULT:      -7.1      1.721      3.954
REMARK  Name = 
REMARK  11 active torsions:
REMARK  status: ('A' for Active; 'I' for Inactive)
REMARK    1  A    between atoms: C_1  and  C_2
REMARK    2  A    between atoms: C_2  and  N_3
REMARK    3  A    between atoms: N_3  and  C_4
REMARK    4  A    between atoms: N_3  and  C_6
REMARK    5  A    between atoms: C_4  and  C_5
REMARK    6  A    between atoms: C_6  and  C_7
REMARK    7  A    between atoms: C_7  and  C_8
REMARK    8  A    between atoms: C_8  and  C_9
REMARK    9  A    between atoms: C_9  and  C_10
REMARK   10  A    between atoms: C_9  and  N_11
REMARK   11  A    between atoms: C_12  and  C_14
REMARK                            x       y       z     vdW  Elec       q    Type
REMARK                         _______ _______ _______ _____ _____    ______ ____
ROOT
ATOM      1  C   UNL     1       1.633   8.286  19.811  0.00  0.00    +0.000 A 
ATOM      2  C   UNL     1       1.395   7.948  21.151  0.00  0.00    +0.000 A 
ATOM      3  C   UNL     1       0.719   8.836  21.994  0.00  0.00    +0.000 A 
ATOM      4  C   UNL     1       0.265  10.061  21.498  0.00  0.00    +0.000 A 
ATOM      5  C   UNL     1       0.469  10.385  20.155  0.00  0.00    +0.000 A 
ATOM      6  C   UNL     1       1.159   9.502  19.310  0.00  0.00    +0.000 A 
ATOM      7  C   UNL     1      -0.050  11.655  19.611  0.00  0.00    +0.000 C 
ATOM      8  O   UNL     1       0.103  11.922  18.424  0.00  0.00    +0.000 OA
ATOM      9  C   UNL     1      -0.740  12.599  20.512  0.00  0.00    +0.000 A 
ATOM     10  C   UNL     1      -1.215  13.816  20.007  0.00  0.00    +0.000 A 
ATOM     11  C   UNL     1      -1.828  14.734  20.861  0.00  0.00    +0.000 A 
ATOM     12  C   UNL     1      -1.969  14.441  22.218  0.00  0.00    +0.000 A 
ATOM     13  C   UNL     1      -1.513  13.221  22.719  0.00  0.00    +0.000 A 
ATOM     14  C   UNL     1      -0.900  12.297  21.863  0.00  0.00    +0.000 A 
ATOM     15  C   UNL     1      -0.428  11.005  22.398  0.00  0.00    +0.000 C 
ATOM     16  O   UNL     1      -0.603  10.719  23.579  0.00  0.00    +0.000 OA
ENDROOT
BRANCH   1  18
ATOM     17  N   UNL     1       2.174   5.964  19.260  0.00  0.00    +0.000 N 
ATOM     18  C   UNL     1       2.347   7.301  18.953  0.00  0.00    +0.000 C 
ATOM     19  O   UNL     1       3.023   7.701  18.011  0.00  0.00    +0.000 OA
ATOM     20  H   UNL     1       1.434   5.694  19.895  0.00  0.00    +0.000 HD
BRANCH  17  21
ATOM     21  C   UNL     1       2.757   4.918  18.421  0.00  0.00    +0.000 C 
ATOM     22  C   UNL     1       1.648   4.133  17.715  0.00  0.00    +0.000 C 
BRANCH  21  23
ATOM     23  C   UNL     1       3.672   4.011  19.265  0.00  0.00    +0.000 C 
BRANCH  23  24
ATOM     24  C   UNL     1       5.134   4.063  18.805  0.00  0.00    +0.000 C 
BRANCH  24  25
ATOM     25  C   UNL     1       5.311   4.350  17.305  0.00  0.00    +0.000 C 
BRANCH  25  26
ATOM     26  N   UNL     1       6.708   4.442  16.839  0.00  0.00    +0.000 NA
BRANCH  26  28
ATOM     27  C   UNL     1       6.394   4.031  14.369  0.00  0.00    +0.000 C 
ATOM     28  C   UNL     1       6.809   4.993  15.478  0.00  0.00    +0.000 C 
ENDBRANCH  26  28
BRANCH  26  29
ATOM     29  C   UNL     1       7.554   5.138  17.829  0.00  0.00    +0.000 C 
ATOM     30  C   UNL     1       7.546   6.665  17.781  0.00  0.00    +0.000 C 
ENDBRANCH  26  29
ENDBRANCH  25  26
ENDBRANCH  24  25
ENDBRANCH  23  24
ENDBRANCH  21  23
ENDBRANCH  17  21
ENDBRANCH   1  18
TORSDOF 8
ENDMDL
MODEL 8
REMARK VINA RESULT:      -7.1      1.666      3.203
REMARK  Name = 
REMARK  11 active torsions:
REMARK  status: ('A' for Active; 'I' for Inactive)
REMARK    1  A    between atoms: C_1  and  C_2
REMARK    2  A    between atoms: C_2  and  N_3
REMARK    3  A    between atoms: N_3  and  C_4
REMARK    4  A    between atoms: N_3  and  C_6
REMARK    5  A    between atoms: C_4  and  C_5
REMARK    6  A    between atoms: C_6  and  C_7
REMARK    7  A    between atoms: C_7  and  C_8
REMARK    8  A    between atoms: C_8  and  C_9
REMARK    9  A    between atoms: C_9  and  C_10
REMARK   10  A    between atoms: C_9  and  N_11
REMARK   11  A    between atoms: C_12  and  C_14
REMARK                            x       y       z     vdW  Elec       q    Type
REMARK                         _______ _______ _______ _____ _____    ______ ____
ROOT
ATOM      1  C   UNL     1       1.944   8.542  18.676  0.00  0.00    +0.000 A 
ATOM      2  C   UNL     1       2.067   9.684  17.870  0.00  0.00    +0.000 A 
ATOM      3  C   UNL     1       1.447  10.881  18.242  0.00  0.00    +0.000 A 
ATOM      4  C   UNL     1       0.712  10.947  19.429  0.00  0.00    +0.000 A 
ATOM      5  C   UNL     1       0.617   9.823  20.250  0.00  0.00    +0.000 A 
ATOM      6  C   UNL     1       1.227   8.616  19.874  0.00  0.00    +0.000 A 
ATOM      7  C   UNL     1      -0.116   9.898  21.529  0.00  0.00    +0.000 C 
ATOM      8  O   UNL     1      -0.171   8.918  22.263  0.00  0.00    +0.000 OA
ATOM      9  C   UNL     1      -0.790  11.157  21.903  0.00  0.00    +0.000 A 
ATOM     10  C   UNL     1      -1.507  11.229  23.105  0.00  0.00    +0.000 A 
ATOM     11  C   UNL     1      -2.184  12.400  23.445  0.00  0.00    +0.000 A 
ATOM     12  C   UNL     1      -2.149  13.502  22.589  0.00  0.00    +0.000 A 
ATOM     13  C   UNL     1      -1.420  13.439  21.400  0.00  0.00    +0.000 A 
ATOM     14  C   UNL     1      -0.736  12.264  21.058  0.00  0.00    +0.000 A 
ATOM     15  C   UNL     1       0.039  12.208  19.805  0.00  0.00    +0.000 C 
ATOM     16  O   UNL     1       0.122  13.194  19.078  0.00  0.00    +0.000 OA
ENDROOT
BRANCH   1  18
ATOM     17  N   UNL     1       2.216   6.115  18.827  0.00  0.00    +0.000 N 
ATOM     18  C   UNL     1       2.633   7.296  18.241  0.00  0.00    +0.000 C 
ATOM     19  O   UNL     1       3.502   7.358  17.379  0.00  0.00    +0.000 OA
ATOM     20  H   UNL     1       1.352   6.102  19.353  0.00  0.00    +0.000 HD
BRANCH  17  21
ATOM     21  C   UNL     1       2.765   4.829  18.399  0.00  0.00    +0.000 C 
ATOM     22  C   UNL     1       1.633   3.900  17.950  0.00  0.00    +0.000 C 
BRANCH  21  23
ATOM     23  C   UNL     1       3.616   4.216  19.527  0.00  0.00    +0.000 C 
BRANCH  23  24
ATOM     24  C   UNL     1       5.074   3.995  19.106  0.00  0.00    +0.000 C 
BRANCH  24  25
ATOM     25  C   UNL     1       5.864   5.294  18.878  0.00  0.00    +0.000 C 
BRANCH  25  26
ATOM     26  N   UNL     1       6.135   5.629  17.466  0.00  0.00    +0.000 NA
BRANCH  26  28
ATOM     27  C   UNL     1       8.059   6.796  18.608  0.00  0.00    +0.000 C 
ATOM     28  C   UNL     1       7.303   6.511  17.314  0.00  0.00    +0.000 C 
ENDBRANCH  26  28
BRANCH  26  29
ATOM     29  C   UNL     1       6.193   4.413  16.632  0.00  0.00    +0.000 C 
ATOM     30  C   UNL     1       5.646   4.533  15.210  0.00  0.00    +0.000 C 
ENDBRANCH  26  29
ENDBRANCH  25  26
ENDBRANCH  24  25
ENDBRANCH  23  24
ENDBRANCH  21  23
ENDBRANCH  17  21
ENDBRANCH   1  18
TORSDOF 8
ENDMDL
MODEL 9
REMARK VINA RESULT:      -7.0      2.590      4.178
REMARK  Name = 
REMARK  11 active torsions:
REMARK  status: ('A' for Active; 'I' for Inactive)
REMARK    1  A    between atoms: C_1  and  C_2
REMARK    2  A    between atoms: C_2  and  N_3
REMARK    3  A    between atoms: N_3  and  C_4
REMARK    4  A    between atoms: N_3  and  C_6
REMARK    5  A    between atoms: C_4  and  C_5
REMARK    6  A    between atoms: C_6  and  C_7
REMARK    7  A    between atoms: C_7  and  C_8
REMARK    8  A    between atoms: C_8  and  C_9
REMARK    9  A    between atoms: C_9  and  C_10
REMARK   10  A    between atoms: C_9  and  N_11
REMARK   11  A    between atoms: C_12  and  C_14
REMARK                            x       y       z     vdW  Elec       q    Type
REMARK                         _______ _______ _______ _____ _____    ______ ____
ROOT
ATOM      1  C   UNL     1       2.667   7.237  18.629  0.00  0.00    +0.000 A 
ATOM      2  C   UNL     1       2.444   8.140  17.578  0.00  0.00    +0.000 A 
ATOM      3  C   UNL     1       1.639   9.266  17.774  0.00  0.00    +0.000 A 
ATOM      4  C   UNL     1       1.064   9.504  19.025  0.00  0.00    +0.000 A 
ATOM      5  C   UNL     1       1.311   8.627  20.082  0.00  0.00    +0.000 A 
ATOM      6  C   UNL     1       2.109   7.488  19.886  0.00  0.00    +0.000 A 
ATOM      7  C   UNL     1       0.748   8.897  21.419  0.00  0.00    +0.000 C 
ATOM      8  O   UNL     1       0.994   8.142  22.352  0.00  0.00    +0.000 OA
ATOM      9  C   UNL     1      -0.122  10.074  21.612  0.00  0.00    +0.000 A 
ATOM     10  C   UNL     1      -0.679  10.324  22.873  0.00  0.00    +0.000 A 
ATOM     11  C   UNL     1      -1.538  11.409  23.054  0.00  0.00    +0.000 A 
ATOM     12  C   UNL     1      -1.843  12.245  21.980  0.00  0.00    +0.000 A 
ATOM     13  C   UNL     1      -1.275  12.009  20.727  0.00  0.00    +0.000 A 
ATOM     14  C   UNL     1      -0.409  10.922  20.544  0.00  0.00    +0.000 A 
ATOM     15  C   UNL     1       0.195  10.684  19.220  0.00  0.00    +0.000 C 
ATOM     16  O   UNL     1      -0.024  11.452  18.287  0.00  0.00    +0.000 OA
ENDROOT
BRANCH   1  18
ATOM     17  N   UNL     1       4.719   6.293  17.687  0.00  0.00    +0.000 N 
ATOM     18  C   UNL     1       3.540   6.059  18.371  0.00  0.00    +0.000 C 
ATOM     19  O   UNL     1       3.204   4.957  18.791  0.00  0.00    +0.000 OA
ATOM     20  H   UNL     1       5.043   7.244  17.572  0.00  0.00    +0.000 HD
BRANCH  17  21
ATOM     21  C   UNL     1       5.687   5.219  17.468  0.00  0.00    +0.000 C 
ATOM     22  C   UNL     1       6.748   5.236  18.572  0.00  0.00    +0.000 C 
BRANCH  21  23
ATOM     23  C   UNL     1       6.302   5.340  16.061  0.00  0.00    +0.000 C 
BRANCH  23  24
ATOM     24  C   UNL     1       5.857   4.208  15.128  0.00  0.00    +0.000 C 
BRANCH  24  25
ATOM     25  C   UNL     1       6.571   4.200  13.766  0.00  0.00    +0.000 C 
BRANCH  25  26
ATOM     26  N   UNL     1       6.002   3.282  12.759  0.00  0.00    +0.000 NA
BRANCH  26  28
ATOM     27  C   UNL     1       4.136   3.094  11.070  0.00  0.00    +0.000 C 
ATOM     28  C   UNL     1       4.607   3.613  12.425  0.00  0.00    +0.000 C 
ENDBRANCH  26  28
BRANCH  26  29
ATOM     29  C   UNL     1       6.887   3.168  11.584  0.00  0.00    +0.000 C 
ATOM     30  C   UNL     1       7.249   1.752  11.137  0.00  0.00    +0.000 C 
ENDBRANCH  26  29
ENDBRANCH  25  26
ENDBRANCH  24  25
ENDBRANCH  23  24
ENDBRANCH  21  23
ENDBRANCH  17  21
ENDBRANCH   1  18
TORSDOF 8
ENDMDL
