MODEL 1
REMARK VINA RESULT:      -6.9      0.000      0.000
REMARK  Name = 
REMARK  3 active torsions:
REMARK  status: ('A' for Active; 'I' for Inactive)
REMARK    1  A    between atoms: C_5  and  C_6
REMARK    2  A    between atoms: N_17  and  C_18
REMARK    3  A    between atoms: C_18  and  C_19
REMARK                            x       y       z     vdW  Elec       q    Type
REMARK                         _______ _______ _______ _____ _____    ______ ____
ROOT
ATOM      1  O   UNL     1       0.515  10.013  21.629  0.00  0.00    +0.000 OA
ATOM      2  C   UNL     1       0.891   9.909  20.478  0.00  0.00    +0.000 C 
ATOM      3  C   UNL     1       1.433   8.687  19.947  0.00  0.00    +0.000 A 
ATOM      4  C   UNL     1       1.492   7.448  20.552  0.00  0.00    +0.000 A 
ATOM      5  C   UNL     1       2.007   6.392  19.800  0.00  0.00    +0.000 A 
ATOM      6  C   UNL     1       2.508   6.652  18.499  0.00  0.00    +0.000 A 
ATOM      7  C   UNL     1       2.451   7.942  17.932  0.00  0.00    +0.000 A 
ATOM      8  C   UNL     1       1.871   8.963  18.661  0.00  0.00    +0.000 A 
ATOM      9  N   UNL     1       1.631  10.287  18.211  0.00  0.00    +0.000 N 
ATOM     10  C   UNL     1       0.880  10.946  19.345  0.00  0.00    +0.000 C 
ATOM     11  C   UNL     1       1.546  12.250  19.777  0.00  0.00    +0.000 C 
ATOM     12  C   UNL     1       0.679  13.011  20.792  0.00  0.00    +0.000 C 
ATOM     13  N   UNL     1      -0.712  13.239  20.355  0.00  0.00    +0.000 NA
ATOM     14  C   UNL     1      -1.343  11.973  19.958  0.00  0.00    +0.000 C 
ATOM     15  C   UNL     1      -0.564  11.197  18.895  0.00  0.00    +0.000 C 
ATOM     16  H   UNL     1       2.509  10.744  17.965  0.00  0.00    +0.000 HD
ENDROOT
BRANCH   5  17
ATOM     17  C   UNL     1       1.962   4.988  20.351  0.00  0.00    +0.000 C 
ATOM     18  F   UNL     1       2.453   4.889  21.619  0.00  0.00    +0.000 F 
ATOM     19  F   UNL     1       0.691   4.499  20.410  0.00  0.00    +0.000 F 
ATOM     20  F   UNL     1       2.673   4.102  19.603  0.00  0.00    +0.000 F 
ENDBRANCH   5  17
BRANCH  13  21
ATOM     21  C   UNL     1      -0.810  14.325  19.367  0.00  0.00    +0.000 C 
BRANCH  21  22
ATOM     22  C   UNL     1      -0.164  15.669  19.798  0.00  0.00    +0.000 C 
ATOM     23  C   UNL     1       0.417  16.479  18.628  0.00  0.00    +0.000 C 
ATOM     24  C   UNL     1      -0.646  17.269  17.871  0.00  0.00    +0.000 C 
ATOM     25  O   UNL     1      -1.399  18.087  18.765  0.00  0.00    +0.000 OA
ATOM     26  C   UNL     1      -2.116  17.308  19.717  0.00  0.00    +0.000 C 
ATOM     27  C   UNL     1      -1.154  16.525  20.602  0.00  0.00    +0.000 C 
ENDBRANCH  21  22
ENDBRANCH  13  21
TORSDOF 3
ENDMDL
MODEL 2
REMARK VINA RESULT:      -6.8      5.147      9.091
REMARK  Name = 
REMARK  3 active torsions:
REMARK  status: ('A' for Active; 'I' for Inactive)
REMARK    1  A    between atoms: C_5  and  C_6
REMARK    2  A    between atoms: N_17  and  C_18
REMARK    3  A    between atoms: C_18  and  C_19
REMARK                            x       y       z     vdW  Elec       q    Type
REMARK                         _______ _______ _______ _____ _____    ______ ____
ROOT
ATOM      1  O   UNL     1       2.123   5.155  20.749  0.00  0.00    +0.000 OA
ATOM      2  C   UNL     1       2.213   6.083  19.969  0.00  0.00    +0.000 C 
ATOM      3  C   UNL     1       1.629   7.372  20.229  0.00  0.00    +0.000 A 
ATOM      4  C   UNL     1       1.026   7.816  21.388  0.00  0.00    +0.000 A 
ATOM      5  C   UNL     1       0.594   9.142  21.418  0.00  0.00    +0.000 A 
ATOM      6  C   UNL     1       0.724   9.936  20.249  0.00  0.00    +0.000 A 
ATOM      7  C   UNL     1       1.323   9.430  19.078  0.00  0.00    +0.000 A 
ATOM      8  C   UNL     1       1.812   8.137  19.088  0.00  0.00    +0.000 A 
ATOM      9  N   UNL     1       2.537   7.504  18.045  0.00  0.00    +0.000 N 
ATOM     10  C   UNL     1       2.927   6.159  18.613  0.00  0.00    +0.000 C 
ATOM     11  C   UNL     1       2.502   5.016  17.694  0.00  0.00    +0.000 C 
ATOM     12  C   UNL     1       3.068   3.671  18.176  0.00  0.00    +0.000 C 
ATOM     13  N   UNL     1       4.527   3.667  18.394  0.00  0.00    +0.000 NA
ATOM     14  C   UNL     1       4.918   4.763  19.292  0.00  0.00    +0.000 C 
ATOM     15  C   UNL     1       4.445   6.143  18.832  0.00  0.00    +0.000 C 
ATOM     16  H   UNL     1       1.972   7.456  17.197  0.00  0.00    +0.000 HD
ENDROOT
BRANCH   5  17
ATOM     17  C   UNL     1       0.062   9.728  22.702  0.00  0.00    +0.000 C 
ATOM     18  F   UNL     1      -0.111  11.079  22.650  0.00  0.00    +0.000 F 
ATOM     19  F   UNL     1      -1.156   9.215  23.037  0.00  0.00    +0.000 F 
ATOM     20  F   UNL     1       0.875   9.495  23.768  0.00  0.00    +0.000 F 
ENDBRANCH   5  17
BRANCH  13  21
ATOM     21  C   UNL     1       5.275   3.597  17.129  0.00  0.00    +0.000 C 
BRANCH  21  22
ATOM     22  C   UNL     1       5.266   4.899  16.285  0.00  0.00    +0.000 C 
ATOM     23  C   UNL     1       6.591   5.676  16.333  0.00  0.00    +0.000 C 
ATOM     24  C   UNL     1       7.644   5.108  15.387  0.00  0.00    +0.000 C 
ATOM     25  O   UNL     1       7.130   5.009  14.060  0.00  0.00    +0.000 OA
ATOM     26  C   UNL     1       6.031   4.109  13.984  0.00  0.00    +0.000 C 
ATOM     27  C   UNL     1       4.868   4.611  14.830  0.00  0.00    +0.000 C 
ENDBRANCH  21  22
ENDBRANCH  13  21
TORSDOF 3
ENDMDL
MODEL 3
REMARK VINA RESULT:      -6.8      3.284      4.175
REMARK  Name = 
REMARK  3 active torsions:
REMARK  status: ('A' for Active; 'I' for Inactive)
REMARK    1  A    between atoms: C_5  and  C_6
REMARK    2  A    between atoms: N_17  and  C_18
REMARK    3  A    between atoms: C_18  and  C_19
REMARK                            x       y       z     vdW  Elec       q    Type
REMARK                         _______ _______ _______ _____ _____    ______ ____
ROOT
ATOM      1  O   UNL     1       1.270  10.211  17.931  0.00  0.00    +0.000 OA
ATOM      2  C   UNL     1       1.376   9.417  18.845  0.00  0.00    +0.000 C 
ATOM      3  C   UNL     1       2.156   8.213  18.738  0.00  0.00    +0.000 A 
ATOM      4  C   UNL     1       2.989   7.827  17.709  0.00  0.00    +0.000 A 
ATOM      5  C   UNL     1       3.697   6.635  17.870  0.00  0.00    +0.000 A 
ATOM      6  C   UNL     1       3.471   5.852  19.031  0.00  0.00    +0.000 A 
ATOM      7  C   UNL     1       2.589   6.275  20.045  0.00  0.00    +0.000 A 
ATOM      8  C   UNL     1       1.950   7.493  19.905  0.00  0.00    +0.000 A 
ATOM      9  N   UNL     1       1.119   8.123  20.867  0.00  0.00    +0.000 N 
ATOM     10  C   UNL     1       0.784   9.467  20.261  0.00  0.00    +0.000 C 
ATOM     11  C   UNL     1      -0.723   9.708  20.227  0.00  0.00    +0.000 C 
ATOM     12  C   UNL     1      -1.049  11.146  19.793  0.00  0.00    +0.000 C 
ATOM     13  N   UNL     1      -0.357  12.190  20.572  0.00  0.00    +0.000 NA
ATOM     14  C   UNL     1       1.093  11.951  20.582  0.00  0.00    +0.000 C 
ATOM     15  C   UNL     1       1.492  10.558  21.073  0.00  0.00    +0.000 C 
ATOM     16  H   UNL     1       0.308   7.540  21.073  0.00  0.00    +0.000 HD
ENDROOT
BRANCH   5  17
ATOM     17  C   UNL     1       4.732   6.235  16.849  0.00  0.00    +0.000 C 
ATOM     18  F   UNL     1       4.744   7.037  15.747  0.00  0.00    +0.000 F 
ATOM     19  F   UNL     1       5.998   6.283  17.352  0.00  0.00    +0.000 F 
ATOM     20  F   UNL     1       4.558   4.967  16.387  0.00  0.00    +0.000 F 
ENDBRANCH   5  17
BRANCH  13  21
ATOM     21  C   UNL     1      -0.968  12.387  21.896  0.00  0.00    +0.000 C 
BRANCH  21  22
ATOM     22  C   UNL     1      -2.233  13.286  21.911  0.00  0.00    +0.000 C 
ATOM     23  C   UNL     1      -3.496  12.569  22.414  0.00  0.00    +0.000 C 
ATOM     24  C   UNL     1      -3.569  12.497  23.935  0.00  0.00    +0.000 C 
ATOM     25  O   UNL     1      -3.427  13.796  24.510  0.00  0.00    +0.000 OA
ATOM     26  C   UNL     1      -2.156  14.366  24.220  0.00  0.00    +0.000 C 
ATOM     27  C   UNL     1      -1.989  14.570  22.719  0.00  0.00    +0.000 C 
ENDBRANCH  21  22
ENDBRANCH  13  21
TORSDOF 3
ENDMDL
MODEL 4
REMARK VINA RESULT:      -6.7      3.079      3.969
REMARK  Name = 
REMARK  3 active torsions:
REMARK  status: ('A' for Active; 'I' for Inactive)
REMARK    1  A    between atoms: C_5  and  C_6
REMARK    2  A    between atoms: N_17  and  C_18
REMARK    3  A    between atoms: C_18  and  C_19
REMARK                            x       y       z     vdW  Elec       q    Type
REMARK                         _______ _______ _______ _____ _____    ______ ____
ROOT
ATOM      1  O   UNL     1       1.306  10.161  17.944  0.00  0.00    +0.000 OA
ATOM      2  C   UNL     1       1.385   9.362  18.858  0.00  0.00    +0.000 C 
ATOM      3  C   UNL     1       2.156   8.151  18.763  0.00  0.00    +0.000 A 
ATOM      4  C   UNL     1       3.006   7.759  17.749  0.00  0.00    +0.000 A 
ATOM      5  C   UNL     1       3.698   6.560  17.920  0.00  0.00    +0.000 A 
ATOM      6  C   UNL     1       3.441   5.775  19.074  0.00  0.00    +0.000 A 
ATOM      7  C   UNL     1       2.542   6.204  20.071  0.00  0.00    +0.000 A 
ATOM      8  C   UNL     1       1.919   7.429  19.922  0.00  0.00    +0.000 A 
ATOM      9  N   UNL     1       1.075   8.065  20.870  0.00  0.00    +0.000 N 
ATOM     10  C   UNL     1       0.766   9.413  20.262  0.00  0.00    +0.000 C 
ATOM     11  C   UNL     1      -0.737   9.670  20.199  0.00  0.00    +0.000 C 
ATOM     12  C   UNL     1      -1.040  11.112  19.763  0.00  0.00    +0.000 C 
ATOM     13  N   UNL     1      -0.353  12.147  20.560  0.00  0.00    +0.000 NA
ATOM     14  C   UNL     1       1.094  11.893  20.598  0.00  0.00    +0.000 C 
ATOM     15  C   UNL     1       1.468  10.495  21.092  0.00  0.00    +0.000 C 
ATOM     16  H   UNL     1       0.254   7.489  21.058  0.00  0.00    +0.000 HD
ENDROOT
BRANCH   5  17
ATOM     17  C   UNL     1       4.749   6.152  16.918  0.00  0.00    +0.000 C 
ATOM     18  F   UNL     1       6.008   6.119  17.439  0.00  0.00    +0.000 F 
ATOM     19  F   UNL     1       4.525   4.905  16.417  0.00  0.00    +0.000 F 
ATOM     20  F   UNL     1       4.810   6.985  15.844  0.00  0.00    +0.000 F 
ENDBRANCH   5  17
BRANCH  13  21
ATOM     21  C   UNL     1      -0.988  12.347  21.872  0.00  0.00    +0.000 C 
BRANCH  21  22
ATOM     22  C   UNL     1      -2.528  12.540  21.836  0.00  0.00    +0.000 C 
ATOM     23  C   UNL     1      -3.202  12.383  23.208  0.00  0.00    +0.000 C 
ATOM     24  C   UNL     1      -3.097  13.639  24.067  0.00  0.00    +0.000 C 
ATOM     25  O   UNL     1      -3.585  14.777  23.358  0.00  0.00    +0.000 OA
ATOM     26  C   UNL     1      -2.810  15.049  22.195  0.00  0.00    +0.000 C 
ATOM     27  C   UNL     1      -2.900  13.891  21.209  0.00  0.00    +0.000 C 
ENDBRANCH  21  22
ENDBRANCH  13  21
TORSDOF 3
ENDMDL
MODEL 5
REMARK VINA RESULT:      -6.7      0.824      1.293
REMARK  Name = 
REMARK  3 active torsions:
REMARK  status: ('A' for Active; 'I' for Inactive)
REMARK    1  A    between atoms: C_5  and  C_6
REMARK    2  A    between atoms: N_17  and  C_18
REMARK    3  A    between atoms: C_18  and  C_19
REMARK                            x       y       z     vdW  Elec       q    Type
REMARK                         _______ _______ _______ _____ _____    ______ ____
ROOT
ATOM      1  O   UNL     1       0.731  10.057  21.424  0.00  0.00    +0.000 OA
ATOM      2  C   UNL     1       1.089   9.875  20.277  0.00  0.00    +0.000 C 
ATOM      3  C   UNL     1       1.559   8.600  19.805  0.00  0.00    +0.000 A 
ATOM      4  C   UNL     1       1.558   7.392  20.472  0.00  0.00    +0.000 A 
ATOM      5  C   UNL     1       2.007   6.273  19.772  0.00  0.00    +0.000 A 
ATOM      6  C   UNL     1       2.509   6.439  18.455  0.00  0.00    +0.000 A 
ATOM      7  C   UNL     1       2.515   7.699  17.823  0.00  0.00    +0.000 A 
ATOM      8  C   UNL     1       1.999   8.786  18.504  0.00  0.00    +0.000 A 
ATOM      9  N   UNL     1       1.825  10.097  17.988  0.00  0.00    +0.000 N 
ATOM     10  C   UNL     1       1.123  10.852  19.093  0.00  0.00    +0.000 C 
ATOM     11  C   UNL     1       1.862  12.139  19.452  0.00  0.00    +0.000 C 
ATOM     12  C   UNL     1       1.047  12.996  20.433  0.00  0.00    +0.000 C 
ATOM     13  N   UNL     1      -0.334  13.277  19.996  0.00  0.00    +0.000 NA
ATOM     14  C   UNL     1      -1.036  12.027  19.668  0.00  0.00    +0.000 C 
ATOM     15  C   UNL     1      -0.311  11.157  18.640  0.00  0.00    +0.000 C 
ATOM     16  H   UNL     1       2.724  10.493  17.713  0.00  0.00    +0.000 HD
ENDROOT
BRANCH   5  17
ATOM     17  C   UNL     1       1.893   4.903  20.394  0.00  0.00    +0.000 C 
ATOM     18  F   UNL     1       2.398   4.840  21.658  0.00  0.00    +0.000 F 
ATOM     19  F   UNL     1       0.598   4.490  20.494  0.00  0.00    +0.000 F 
ATOM     20  F   UNL     1       2.542   3.942  19.683  0.00  0.00    +0.000 F 
ENDBRANCH   5  17
BRANCH  13  21
ATOM     21  C   UNL     1      -0.384  14.314  18.954  0.00  0.00    +0.000 C 
BRANCH  21  22
ATOM     22  C   UNL     1      -0.816  15.722  19.445  0.00  0.00    +0.000 C 
ATOM     23  C   UNL     1      -0.161  16.142  20.771  0.00  0.00    +0.000 C 
ATOM     24  C   UNL     1       1.255  16.676  20.589  0.00  0.00    +0.000 C 
ATOM     25  O   UNL     1       1.278  17.727  19.625  0.00  0.00    +0.000 OA
ATOM     26  C   UNL     1       0.877  17.273  18.337  0.00  0.00    +0.000 C 
ATOM     27  C   UNL     1      -0.565  16.785  18.365  0.00  0.00    +0.000 C 
ENDBRANCH  21  22
ENDBRANCH  13  21
TORSDOF 3
ENDMDL
MODEL 6
REMARK VINA RESULT:      -6.6      3.161      4.076
REMARK  Name = 
REMARK  3 active torsions:
REMARK  status: ('A' for Active; 'I' for Inactive)
REMARK    1  A    between atoms: C_5  and  C_6
REMARK    2  A    between atoms: N_17  and  C_18
REMARK    3  A    between atoms: C_18  and  C_19
REMARK                            x       y       z     vdW  Elec       q    Type
REMARK                         _______ _______ _______ _____ _____    ______ ____
ROOT
ATOM      1  O   UNL     1       1.335  10.020  18.200  0.00  0.00    +0.000 OA
ATOM      2  C   UNL     1       1.527   9.120  18.994  0.00  0.00    +0.000 C 
ATOM      3  C   UNL     1       2.382   8.000  18.704  0.00  0.00    +0.000 A 
ATOM      4  C   UNL     1       3.203   7.816  17.610  0.00  0.00    +0.000 A 
ATOM      5  C   UNL     1       3.994   6.668  17.588  0.00  0.00    +0.000 A 
ATOM      6  C   UNL     1       3.864   5.721  18.636  0.00  0.00    +0.000 A 
ATOM      7  C   UNL     1       2.991   5.939  19.722  0.00  0.00    +0.000 A 
ATOM      8  C   UNL     1       2.268   7.117  19.765  0.00  0.00    +0.000 A 
ATOM      9  N   UNL     1       1.430   7.551  20.826  0.00  0.00    +0.000 N 
ATOM     10  C   UNL     1       0.984   8.936  20.418  0.00  0.00    +0.000 C 
ATOM     11  C   UNL     1      -0.536   9.071  20.458  0.00  0.00    +0.000 C 
ATOM     12  C   UNL     1      -0.973  10.527  20.232  0.00  0.00    +0.000 C 
ATOM     13  N   UNL     1      -0.326  11.504  21.129  0.00  0.00    +0.000 NA
ATOM     14  C   UNL     1       1.137  11.370  21.068  0.00  0.00    +0.000 C 
ATOM     15  C   UNL     1       1.645   9.956  21.354  0.00  0.00    +0.000 C 
ATOM     16  H   UNL     1       0.668   6.888  20.972  0.00  0.00    +0.000 HD
ENDROOT
BRANCH   5  17
ATOM     17  C   UNL     1       5.017   6.483  16.495  0.00  0.00    +0.000 C 
ATOM     18  F   UNL     1       6.256   6.943  16.829  0.00  0.00    +0.000 F 
ATOM     19  F   UNL     1       5.188   5.172  16.166  0.00  0.00    +0.000 F 
ATOM     20  F   UNL     1       4.680   7.120  15.341  0.00  0.00    +0.000 F 
ENDBRANCH   5  17
BRANCH  13  21
ATOM     21  C   UNL     1      -0.901  11.477  22.483  0.00  0.00    +0.000 C 
BRANCH  21  22
ATOM     22  C   UNL     1      -1.460  12.834  22.988  0.00  0.00    +0.000 C 
ATOM     23  C   UNL     1      -1.385  13.961  21.946  0.00  0.00    +0.000 C 
ATOM     24  C   UNL     1      -2.524  13.906  20.933  0.00  0.00    +0.000 C 
ATOM     25  O   UNL     1      -3.787  13.873  21.594  0.00  0.00    +0.000 OA
ATOM     26  C   UNL     1      -3.936  12.704  22.392  0.00  0.00    +0.000 C 
ATOM     27  C   UNL     1      -2.898  12.680  23.507  0.00  0.00    +0.000 C 
ENDBRANCH  21  22
ENDBRANCH  13  21
TORSDOF 3
ENDMDL
MODEL 7
REMARK VINA RESULT:      -6.5      0.944      1.055
REMARK  Name = 
REMARK  3 active torsions:
REMARK  status: ('A' for Active; 'I' for Inactive)
REMARK    1  A    between atoms: C_5  and  C_6
REMARK    2  A    between atoms: N_17  and  C_18
REMARK    3  A    between atoms: C_18  and  C_19
REMARK                            x       y       z     vdW  Elec       q    Type
REMARK                         _______ _______ _______ _____ _____    ______ ____
ROOT
ATOM      1  O   UNL     1       0.702  10.279  21.964  0.00  0.00    +0.000 OA
ATOM      2  C   UNL     1       0.843  10.300  20.757  0.00  0.00    +0.000 C 
ATOM      3  C   UNL     1       1.390   9.190  20.021  0.00  0.00    +0.000 A 
ATOM      4  C   UNL     1       1.701   7.930  20.488  0.00  0.00    +0.000 A 
ATOM      5  C   UNL     1       2.159   6.997  19.558  0.00  0.00    +0.000 A 
ATOM      6  C   UNL     1       2.354   7.404  18.213  0.00  0.00    +0.000 A 
ATOM      7  C   UNL     1       2.047   8.712  17.787  0.00  0.00    +0.000 A 
ATOM      8  C   UNL     1       1.525   9.604  18.705  0.00  0.00    +0.000 A 
ATOM      9  N   UNL     1       1.061  10.917  18.433  0.00  0.00    +0.000 N 
ATOM     10  C   UNL     1       0.493  11.402  19.747  0.00  0.00    +0.000 C 
ATOM     11  C   UNL     1       1.092  12.745  20.156  0.00  0.00    +0.000 C 
ATOM     12  C   UNL     1       0.376  13.325  21.386  0.00  0.00    +0.000 C 
ATOM     13  N   UNL     1      -1.091  13.412  21.252  0.00  0.00    +0.000 NA
ATOM     14  C   UNL     1      -1.653  12.109  20.872  0.00  0.00    +0.000 C 
ATOM     15  C   UNL     1      -1.031  11.506  19.611  0.00  0.00    +0.000 C 
ATOM     16  H   UNL     1       1.817  11.492  18.062  0.00  0.00    +0.000 HD
ENDROOT
BRANCH   5  17
ATOM     17  C   UNL     1       2.375   5.564  19.977  0.00  0.00    +0.000 C 
ATOM     18  F   UNL     1       3.691   5.221  20.075  0.00  0.00    +0.000 F 
ATOM     19  F   UNL     1       1.834   5.298  21.200  0.00  0.00    +0.000 F 
ATOM     20  F   UNL     1       1.818   4.670  19.116  0.00  0.00    +0.000 F 
ENDBRANCH   5  17
BRANCH  13  21
ATOM     21  C   UNL     1      -1.502  14.543  20.405  0.00  0.00    +0.000 C 
BRANCH  21  22
ATOM     22  C   UNL     1      -0.667  15.838  20.583  0.00  0.00    +0.000 C 
ATOM     23  C   UNL     1      -0.485  16.641  19.285  0.00  0.00    +0.000 C 
ATOM     24  C   UNL     1      -1.695  17.506  18.950  0.00  0.00    +0.000 C 
ATOM     25  O   UNL     1      -2.038  18.344  20.053  0.00  0.00    +0.000 OA
ATOM     26  C   UNL     1      -2.421  17.585  21.194  0.00  0.00    +0.000 C 
ATOM     27  C   UNL     1      -1.259  16.730  21.684  0.00  0.00    +0.000 C 
ENDBRANCH  21  22
ENDBRANCH  13  21
TORSDOF 3
ENDMDL
MODEL 8
REMARK VINA RESULT:      -6.5      1.742      2.136
REMARK  Name = 
REMARK  3 active torsions:
REMARK  status: ('A' for Active; 'I' for Inactive)
REMARK    1  A    between atoms: C_5  and  C_6
REMARK    2  A    between atoms: N_17  and  C_18
REMARK    3  A    between atoms: C_18  and  C_19
REMARK                            x       y       z     vdW  Elec       q    Type
REMARK                         _______ _______ _______ _____ _____    ______ ____
ROOT
ATOM      1  O   UNL     1       0.702  10.294  21.982  0.00  0.00    +0.000 OA
ATOM      2  C   UNL     1       0.817  10.334  20.773  0.00  0.00    +0.000 C 
ATOM      3  C   UNL     1       1.373   9.247  20.011  0.00  0.00    +0.000 A 
ATOM      4  C   UNL     1       1.724   7.989  20.455  0.00  0.00    +0.000 A 
ATOM      5  C   UNL     1       2.184   7.079  19.503  0.00  0.00    +0.000 A 
ATOM      6  C   UNL     1       2.340   7.507  18.160  0.00  0.00    +0.000 A 
ATOM      7  C   UNL     1       1.994   8.813  17.758  0.00  0.00    +0.000 A 
ATOM      8  C   UNL     1       1.471   9.680  18.698  0.00  0.00    +0.000 A 
ATOM      9  N   UNL     1       0.970  10.985  18.453  0.00  0.00    +0.000 N 
ATOM     10  C   UNL     1       0.419  11.440  19.785  0.00  0.00    +0.000 C 
ATOM     11  C   UNL     1       0.995  12.791  20.200  0.00  0.00    +0.000 C 
ATOM     12  C   UNL     1       0.291  13.338  21.452  0.00  0.00    +0.000 C 
ATOM     13  N   UNL     1      -1.179  13.393  21.349  0.00  0.00    +0.000 NA
ATOM     14  C   UNL     1      -1.719  12.081  20.964  0.00  0.00    +0.000 C 
ATOM     15  C   UNL     1      -1.110  11.509  19.683  0.00  0.00    +0.000 C 
ATOM     16  H   UNL     1       1.704  11.583  18.074  0.00  0.00    +0.000 HD
ENDROOT
BRANCH   5  17
ATOM     17  C   UNL     1       2.443   5.646  19.899  0.00  0.00    +0.000 C 
ATOM     18  F   UNL     1       2.035   5.353  21.166  0.00  0.00    +0.000 F 
ATOM     19  F   UNL     1       1.793   4.763  19.090  0.00  0.00    +0.000 F 
ATOM     20  F   UNL     1       3.760   5.310  19.843  0.00  0.00    +0.000 F 
ENDBRANCH   5  17
BRANCH  13  21
ATOM     21  C   UNL     1      -1.635  14.523  20.526  0.00  0.00    +0.000 C 
BRANCH  21  22
ATOM     22  C   UNL     1      -2.086  15.778  21.320  0.00  0.00    +0.000 C 
ATOM     23  C   UNL     1      -3.070  16.675  20.553  0.00  0.00    +0.000 C 
ATOM     24  C   UNL     1      -4.505  16.163  20.609  0.00  0.00    +0.000 C 
ATOM     25  O   UNL     1      -4.914  15.955  21.960  0.00  0.00    +0.000 OA
ATOM     26  C   UNL     1      -4.132  14.955  22.602  0.00  0.00    +0.000 C 
ATOM     27  C   UNL     1      -2.673  15.386  22.685  0.00  0.00    +0.000 C 
ENDBRANCH  21  22
ENDBRANCH  13  21
TORSDOF 3
ENDMDL
MODEL 9
REMARK VINA RESULT:      -6.5      1.757      2.392
REMARK  Name = 
REMARK  3 active torsions:
REMARK  status: ('A' for Active; 'I' for Inactive)
REMARK    1  A    between atoms: C_5  and  C_6
REMARK    2  A    between atoms: N_17  and  C_18
REMARK    3  A    between atoms: C_18  and  C_19
REMARK                            x       y       z     vdW  Elec       q    Type
REMARK                         _______ _______ _______ _____ _____    ______ ____
ROOT
ATOM      1  O   UNL     1       0.625  10.415  22.026  0.00  0.00    +0.000 OA
ATOM      2  C   UNL     1       0.718  10.476  20.815  0.00  0.00    +0.000 C 
ATOM      3  C   UNL     1       1.287   9.414  20.028  0.00  0.00    +0.000 A 
ATOM      4  C   UNL     1       1.674   8.158  20.446  0.00  0.00    +0.000 A 
ATOM      5  C   UNL     1       2.139   7.273  19.472  0.00  0.00    +0.000 A 
ATOM      6  C   UNL     1       2.262   7.725  18.133  0.00  0.00    +0.000 A 
ATOM      7  C   UNL     1       1.878   9.029  17.758  0.00  0.00    +0.000 A 
ATOM      8  C   UNL     1       1.351   9.869  18.720  0.00  0.00    +0.000 A 
ATOM      9  N   UNL     1       0.816  11.166  18.504  0.00  0.00    +0.000 N 
ATOM     10  C   UNL     1       0.277  11.587  19.852  0.00  0.00    +0.000 C 
ATOM     11  C   UNL     1       0.829  12.945  20.277  0.00  0.00    +0.000 C 
ATOM     12  C   UNL     1       0.134  13.456  21.550  0.00  0.00    +0.000 C 
ATOM     13  N   UNL     1      -1.339  13.477  21.473  0.00  0.00    +0.000 NA
ATOM     14  C   UNL     1      -1.854  12.159  21.076  0.00  0.00    +0.000 C 
ATOM     15  C   UNL     1      -1.254  11.621  19.776  0.00  0.00    +0.000 C 
ATOM     16  H   UNL     1       1.530  11.786  18.122  0.00  0.00    +0.000 HD
ENDROOT
BRANCH   5  17
ATOM     17  C   UNL     1       2.438   5.842  19.841  0.00  0.00    +0.000 C 
ATOM     18  F   UNL     1       1.966   4.939  18.935  0.00  0.00    +0.000 F 
ATOM     19  F   UNL     1       3.776   5.603  19.935  0.00  0.00    +0.000 F 
ATOM     20  F   UNL     1       1.906   5.481  21.040  0.00  0.00    +0.000 F 
ENDBRANCH   5  17
BRANCH  13  21
ATOM     21  C   UNL     1      -1.835  14.609  20.675  0.00  0.00    +0.000 C 
BRANCH  21  22
ATOM     22  C   UNL     1      -3.179  15.217  21.157  0.00  0.00    +0.000 C 
ATOM     23  C   UNL     1      -3.347  15.214  22.685  0.00  0.00    +0.000 C 
ATOM     24  C   UNL     1      -2.619  16.371  23.361  0.00  0.00    +0.000 C 
ATOM     25  O   UNL     1      -3.004  17.617  22.783  0.00  0.00    +0.000 OA
ATOM     26  C   UNL     1      -2.643  17.697  21.409  0.00  0.00    +0.000 C 
ATOM     27  C   UNL     1      -3.376  16.635  20.600  0.00  0.00    +0.000 C 
ENDBRANCH  21  22
ENDBRANCH  13  21
TORSDOF 3
ENDMDL
