MODEL 1
REMARK VINA RESULT:      -7.3      0.000      0.000
REMARK  Name = 
REMARK  6 active torsions:
REMARK  status: ('A' for Active; 'I' for Inactive)
REMARK    1  A    between atoms: C_1  and  N_2
REMARK    2  A    between atoms: N_2  and  C_3
REMARK    3  A    between atoms: N_2  and  C_13
REMARK    4  A    between atoms: C_3  and  C_4
REMARK    5  A    between atoms: C_4  and  C_5
REMARK    6  A    between atoms: C_18  and  N_19
REMARK                            x       y       z     vdW  Elec       q    Type
REMARK                         _______ _______ _______ _____ _____    ______ ____
ROOT
ATOM      1  C   UNL     1       1.885   7.634  20.225  0.00  0.00    +0.000 C 
ATOM      2  N   UNL     1       2.503   7.411  18.916  0.00  0.00    +0.000 NA
ENDROOT
BRANCH   2   3
ATOM      3  C   UNL     1       2.731   5.974  18.602  0.00  0.00    +0.000 C 
ATOM      4  C   UNL     1       1.503   5.266  17.959  0.00  0.00    +0.000 C 
ATOM      5  C   UNL     1       1.657   3.749  17.986  0.00  0.00    +0.000 C 
ATOM      6  C   UNL     1       2.885   3.310  17.221  0.00  0.00    +0.000 C 
ATOM      7  C   UNL     1       4.140   3.989  17.746  0.00  0.00    +0.000 C 
ATOM      8  C   UNL     1       4.042   5.539  17.800  0.00  0.00    +0.000 C 
BRANCH   8   9
ATOM      9  N   UNL     1       5.321   6.169  18.231  0.00  0.00    +0.000 NA
ATOM     10  C   UNL     1       6.066   6.815  17.136  0.00  0.00    +0.000 C 
ATOM     11  C   UNL     1       7.201   5.867  16.789  0.00  0.00    +0.000 C 
ATOM     12  C   UNL     1       7.570   5.294  18.138  0.00  0.00    +0.000 C 
ATOM     13  C   UNL     1       6.258   5.273  18.924  0.00  0.00    +0.000 C 
ENDBRANCH   8   9
ENDBRANCH   2   3
BRANCH   2  14
ATOM     14  C   UNL     1       1.938   8.291  17.881  0.00  0.00    +0.000 C 
BRANCH  14  15
ATOM     15  C   UNL     1       1.589   9.654  18.531  0.00  0.00    +0.000 C 
BRANCH  15  16
ATOM     16  C   UNL     1       0.137  10.078  18.531  0.00  0.00    +0.000 A 
ATOM     17  C   UNL     1      -0.337  10.946  19.527  0.00  0.00    +0.000 A 
ATOM     18  C   UNL     1      -1.636  11.458  19.469  0.00  0.00    +0.000 A 
ATOM     19  C   UNL     1      -2.479  11.107  18.409  0.00  0.00    +0.000 A 
ATOM     20 CL   UNL     1      -4.061  11.801  18.383  0.00  0.00    +0.000 Cl
ATOM     21  C   UNL     1      -2.018  10.239  17.414  0.00  0.00    +0.000 A 
ATOM     22 CL   UNL     1      -2.996   9.786  16.063  0.00  0.00    +0.000 Cl
ATOM     23  C   UNL     1      -0.715   9.729  17.474  0.00  0.00    +0.000 A 
ENDBRANCH  15  16
ENDBRANCH  14  15
ENDBRANCH   2  14
TORSDOF 5
ENDMDL
MODEL 2
REMARK VINA RESULT:      -7.1      1.081      1.180
REMARK  Name = 
REMARK  6 active torsions:
REMARK  status: ('A' for Active; 'I' for Inactive)
REMARK    1  A    between atoms: C_1  and  N_2
REMARK    2  A    between atoms: N_2  and  C_3
REMARK    3  A    between atoms: N_2  and  C_13
REMARK    4  A    between atoms: C_3  and  C_4
REMARK    5  A    between atoms: C_4  and  C_5
REMARK    6  A    between atoms: C_18  and  N_19
REMARK                            x       y       z     vdW  Elec       q    Type
REMARK                         _______ _______ _______ _____ _____    ______ ____
ROOT
ATOM      1  C   UNL     1       2.137   7.036  20.187  0.00  0.00    +0.000 C 
ATOM      2  N   UNL     1       2.684   6.714  18.867  0.00  0.00    +0.000 NA
ENDROOT
BRANCH   2   3
ATOM      3  C   UNL     1       2.845   5.254  18.629  0.00  0.00    +0.000 C 
ATOM      4  C   UNL     1       1.502   4.468  18.598  0.00  0.00    +0.000 C 
ATOM      5  C   UNL     1       1.733   2.965  18.708  0.00  0.00    +0.000 C 
ATOM      6  C   UNL     1       2.582   2.457  17.565  0.00  0.00    +0.000 C 
ATOM      7  C   UNL     1       3.905   3.201  17.481  0.00  0.00    +0.000 C 
ATOM      8  C   UNL     1       3.756   4.746  17.419  0.00  0.00    +0.000 C 
BRANCH   8   9
ATOM      9  N   UNL     1       5.066   5.432  17.245  0.00  0.00    +0.000 NA
ATOM     10  C   UNL     1       5.217   6.109  15.945  0.00  0.00    +0.000 C 
ATOM     11  C   UNL     1       6.112   5.212  15.108  0.00  0.00    +0.000 C 
ATOM     12  C   UNL     1       7.069   4.656  16.138  0.00  0.00    +0.000 C 
ATOM     13  C   UNL     1       6.250   4.577  17.427  0.00  0.00    +0.000 C 
ENDBRANCH   8   9
ENDBRANCH   2   3
BRANCH   2  14
ATOM     14  C   UNL     1       2.105   7.555  17.808  0.00  0.00    +0.000 C 
BRANCH  14  15
ATOM     15  C   UNL     1       2.129   9.031  18.282  0.00  0.00    +0.000 C 
BRANCH  15  16
ATOM     16  C   UNL     1       0.803   9.691  18.585  0.00  0.00    +0.000 A 
ATOM     17  C   UNL     1       0.673  10.509  19.719  0.00  0.00    +0.000 A 
ATOM     18  C   UNL     1      -0.499  11.236  19.944  0.00  0.00    +0.000 A 
ATOM     19  C   UNL     1      -1.558  11.153  19.035  0.00  0.00    +0.000 A 
ATOM     20 CL   UNL     1      -2.966  12.102  19.360  0.00  0.00    +0.000 Cl
ATOM     21  C   UNL     1      -1.442  10.336  17.906  0.00  0.00    +0.000 A 
ATOM     22 CL   UNL     1      -2.700  10.207  16.729  0.00  0.00    +0.000 Cl
ATOM     23  C   UNL     1      -0.264   9.610  17.682  0.00  0.00    +0.000 A 
ENDBRANCH  15  16
ENDBRANCH  14  15
ENDBRANCH   2  14
TORSDOF 5
ENDMDL
MODEL 3
REMARK VINA RESULT:      -7.1      2.497      4.118
REMARK  Name = 
REMARK  6 active torsions:
REMARK  status: ('A' for Active; 'I' for Inactive)
REMARK    1  A    between atoms: C_1  and  N_2
REMARK    2  A    between atoms: N_2  and  C_3
REMARK    3  A    between atoms: N_2  and  C_13
REMARK    4  A    between atoms: C_3  and  C_4
REMARK    5  A    between atoms: C_4  and  C_5
REMARK    6  A    between atoms: C_18  and  N_19
REMARK                            x       y       z     vdW  Elec       q    Type
REMARK                         _______ _______ _______ _____ _____    ______ ____
ROOT
ATOM      1  C   UNL     1       2.035   8.800  17.797  0.00  0.00    +0.000 C 
ATOM      2  N   UNL     1       2.012   7.617  18.661  0.00  0.00    +0.000 NA
ENDROOT
BRANCH   2   3
ATOM      3  C   UNL     1       2.807   6.476  18.130  0.00  0.00    +0.000 C 
ATOM      4  C   UNL     1       4.160   6.896  17.484  0.00  0.00    +0.000 C 
ATOM      5  C   UNL     1       4.757   5.764  16.656  0.00  0.00    +0.000 C 
ATOM      6  C   UNL     1       5.020   4.543  17.507  0.00  0.00    +0.000 C 
ATOM      7  C   UNL     1       3.761   4.081  18.222  0.00  0.00    +0.000 C 
ATOM      8  C   UNL     1       3.062   5.195  19.050  0.00  0.00    +0.000 C 
BRANCH   8   9
ATOM      9  N   UNL     1       1.888   4.681  19.808  0.00  0.00    +0.000 NA
ATOM     10  C   UNL     1       2.148   4.474  21.243  0.00  0.00    +0.000 C 
ATOM     11  C   UNL     1       2.322   2.976  21.424  0.00  0.00    +0.000 C 
ATOM     12  C   UNL     1       1.335   2.412  20.427  0.00  0.00    +0.000 C 
ATOM     13  C   UNL     1       1.305   3.434  19.289  0.00  0.00    +0.000 C 
ENDBRANCH   8   9
ENDBRANCH   2   3
BRANCH   2  14
ATOM     14  C   UNL     1       2.124   7.970  20.084  0.00  0.00    +0.000 C 
BRANCH  14  15
ATOM     15  C   UNL     1       0.729   7.816  20.742  0.00  0.00    +0.000 C 
BRANCH  15  16
ATOM     16  C   UNL     1       0.072   9.063  21.291  0.00  0.00    +0.000 A 
ATOM     17  C   UNL     1      -0.313   9.113  22.640  0.00  0.00    +0.000 A 
ATOM     18  C   UNL     1      -0.794  10.298  23.203  0.00  0.00    +0.000 A 
ATOM     19  C   UNL     1      -0.896  11.452  22.418  0.00  0.00    +0.000 A 
ATOM     20 CL   UNL     1      -1.470  12.891  23.185  0.00  0.00    +0.000 Cl
ATOM     21  C   UNL     1      -0.520  11.412  21.072  0.00  0.00    +0.000 A 
ATOM     22 CL   UNL     1      -0.594  12.806  20.054  0.00  0.00    +0.000 Cl
ATOM     23  C   UNL     1      -0.036  10.222  20.512  0.00  0.00    +0.000 A 
ENDBRANCH  15  16
ENDBRANCH  14  15
ENDBRANCH   2  14
TORSDOF 5
ENDMDL
MODEL 4
REMARK VINA RESULT:      -7.1      5.357      7.829
REMARK  Name = 
REMARK  6 active torsions:
REMARK  status: ('A' for Active; 'I' for Inactive)
REMARK    1  A    between atoms: C_1  and  N_2
REMARK    2  A    between atoms: N_2  and  C_3
REMARK    3  A    between atoms: N_2  and  C_13
REMARK    4  A    between atoms: C_3  and  C_4
REMARK    5  A    between atoms: C_4  and  C_5
REMARK    6  A    between atoms: C_18  and  N_19
REMARK                            x       y       z     vdW  Elec       q    Type
REMARK                         _______ _______ _______ _____ _____    ______ ____
ROOT
ATOM      1  C   UNL     1       7.748   6.053  18.897  0.00  0.00    +0.000 C 
ATOM      2  N   UNL     1       7.718   6.631  17.551  0.00  0.00    +0.000 NA
ENDROOT
BRANCH   2   3
ATOM      3  C   UNL     1       6.776   5.940  16.627  0.00  0.00    +0.000 C 
ATOM      4  C   UNL     1       7.468   4.950  15.646  0.00  0.00    +0.000 C 
ATOM      5  C   UNL     1       6.534   4.547  14.510  0.00  0.00    +0.000 C 
ATOM      6  C   UNL     1       5.291   3.868  15.039  0.00  0.00    +0.000 C 
ATOM      7  C   UNL     1       4.566   4.742  16.049  0.00  0.00    +0.000 C 
ATOM      8  C   UNL     1       5.466   5.239  17.214  0.00  0.00    +0.000 C 
BRANCH   8   9
ATOM      9  N   UNL     1       4.699   6.013  18.228  0.00  0.00    +0.000 NA
ATOM     10  C   UNL     1       3.938   5.173  19.169  0.00  0.00    +0.000 C 
ATOM     11  C   UNL     1       2.491   5.242  18.715  0.00  0.00    +0.000 C 
ATOM     12  C   UNL     1       2.374   6.667  18.222  0.00  0.00    +0.000 C 
ATOM     13  C   UNL     1       3.763   7.007  17.681  0.00  0.00    +0.000 C 
ENDBRANCH   8   9
ENDBRANCH   2   3
BRANCH   2  14
ATOM     14  C   UNL     1       7.748   8.101  17.579  0.00  0.00    +0.000 C 
BRANCH  14  15
ATOM     15  C   UNL     1       8.687   8.553  18.726  0.00  0.00    +0.000 C 
BRANCH  15  16
ATOM     16  C   UNL     1       8.980  10.032  18.850  0.00  0.00    +0.000 A 
ATOM     17  C   UNL     1       8.805  10.873  17.740  0.00  0.00    +0.000 A 
ATOM     18  C   UNL     1       8.937  12.259  17.866  0.00  0.00    +0.000 A 
ATOM     19  C   UNL     1       9.246  12.820  19.109  0.00  0.00    +0.000 A 
ATOM     20 CL   UNL     1       9.365  14.542  19.201  0.00  0.00    +0.000 Cl
ATOM     21  C   UNL     1       9.428  11.991  20.221  0.00  0.00    +0.000 A 
ATOM     22 CL   UNL     1       9.785  12.619  21.790  0.00  0.00    +0.000 Cl
ATOM     23  C   UNL     1       9.293  10.602  20.090  0.00  0.00    +0.000 A 
ENDBRANCH  15  16
ENDBRANCH  14  15
ENDBRANCH   2  14
TORSDOF 5
ENDMDL
MODEL 5
REMARK VINA RESULT:      -7.0      1.394      1.946
REMARK  Name = 
REMARK  6 active torsions:
REMARK  status: ('A' for Active; 'I' for Inactive)
REMARK    1  A    between atoms: C_1  and  N_2
REMARK    2  A    between atoms: N_2  and  C_3
REMARK    3  A    between atoms: N_2  and  C_13
REMARK    4  A    between atoms: C_3  and  C_4
REMARK    5  A    between atoms: C_4  and  C_5
REMARK    6  A    between atoms: C_18  and  N_19
REMARK                            x       y       z     vdW  Elec       q    Type
REMARK                         _______ _______ _______ _____ _____    ______ ____
ROOT
ATOM      1  C   UNL     1       2.178   7.193  20.104  0.00  0.00    +0.000 C 
ATOM      2  N   UNL     1       2.660   6.856  18.762  0.00  0.00    +0.000 NA
ENDROOT
BRANCH   2   3
ATOM      3  C   UNL     1       2.834   5.395  18.541  0.00  0.00    +0.000 C 
ATOM      4  C   UNL     1       1.505   4.641  18.239  0.00  0.00    +0.000 C 
ATOM      5  C   UNL     1       1.679   3.132  18.372  0.00  0.00    +0.000 C 
ATOM      6  C   UNL     1       2.723   2.614  17.408  0.00  0.00    +0.000 C 
ATOM      7  C   UNL     1       4.052   3.328  17.592  0.00  0.00    +0.000 C 
ATOM      8  C   UNL     1       3.951   4.877  17.523  0.00  0.00    +0.000 C 
BRANCH   8   9
ATOM      9  N   UNL     1       5.284   5.534  17.615  0.00  0.00    +0.000 NA
ATOM     10  C   UNL     1       5.836   5.949  16.313  0.00  0.00    +0.000 C 
ATOM     11  C   UNL     1       6.895   4.919  15.961  0.00  0.00    +0.000 C 
ATOM     12  C   UNL     1       7.485   4.586  17.312  0.00  0.00    +0.000 C 
ATOM     13  C   UNL     1       6.324   4.746  18.295  0.00  0.00    +0.000 C 
ENDBRANCH   8   9
ENDBRANCH   2   3
BRANCH   2  14
ATOM     14  C   UNL     1       2.011   7.669  17.722  0.00  0.00    +0.000 C 
BRANCH  14  15
ATOM     15  C   UNL     1       2.252   9.166  18.044  0.00  0.00    +0.000 C 
BRANCH  15  16
ATOM     16  C   UNL     1       1.043  10.019  18.356  0.00  0.00    +0.000 A 
ATOM     17  C   UNL     1      -0.218   9.649  17.863  0.00  0.00    +0.000 A 
ATOM     18  C   UNL     1      -1.369  10.342  18.251  0.00  0.00    +0.000 A 
ATOM     19  C   UNL     1      -1.269  11.417  19.139  0.00  0.00    +0.000 A 
ATOM     20 CL   UNL     1      -2.734  12.211  19.600  0.00  0.00    +0.000 Cl
ATOM     21  C   UNL     1      -0.017  11.798  19.632  0.00  0.00    +0.000 A 
ATOM     22 CL   UNL     1       0.174  13.099  20.753  0.00  0.00    +0.000 Cl
ATOM     23  C   UNL     1       1.134  11.099  19.243  0.00  0.00    +0.000 A 
ENDBRANCH  15  16
ENDBRANCH  14  15
ENDBRANCH   2  14
TORSDOF 5
ENDMDL
MODEL 6
REMARK VINA RESULT:      -6.9      1.587      2.108
REMARK  Name = 
REMARK  6 active torsions:
REMARK  status: ('A' for Active; 'I' for Inactive)
REMARK    1  A    between atoms: C_1  and  N_2
REMARK    2  A    between atoms: N_2  and  C_3
REMARK    3  A    between atoms: N_2  and  C_13
REMARK    4  A    between atoms: C_3  and  C_4
REMARK    5  A    between atoms: C_4  and  C_5
REMARK    6  A    between atoms: C_18  and  N_19
REMARK                            x       y       z     vdW  Elec       q    Type
REMARK                         _______ _______ _______ _____ _____    ______ ____
ROOT
ATOM      1  C   UNL     1       1.966   7.273  20.058  0.00  0.00    +0.000 C 
ATOM      2  N   UNL     1       2.913   6.997  18.974  0.00  0.00    +0.000 NA
ENDROOT
BRANCH   2   3
ATOM      3  C   UNL     1       2.981   5.559  18.595  0.00  0.00    +0.000 C 
ATOM      4  C   UNL     1       1.602   4.939  18.223  0.00  0.00    +0.000 C 
ATOM      5  C   UNL     1       1.668   3.416  18.191  0.00  0.00    +0.000 C 
ATOM      6  C   UNL     1       2.672   2.933  17.170  0.00  0.00    +0.000 C 
ATOM      7  C   UNL     1       4.049   3.526  17.420  0.00  0.00    +0.000 C 
ATOM      8  C   UNL     1       4.059   5.077  17.519  0.00  0.00    +0.000 C 
BRANCH   8   9
ATOM      9  N   UNL     1       5.436   5.623  17.672  0.00  0.00    +0.000 NA
ATOM     10  C   UNL     1       6.025   6.115  16.414  0.00  0.00    +0.000 C 
ATOM     11  C   UNL     1       7.009   5.048  15.968  0.00  0.00    +0.000 C 
ATOM     12  C   UNL     1       7.564   4.549  17.282  0.00  0.00    +0.000 C 
ATOM     13  C   UNL     1       6.411   4.703  18.275  0.00  0.00    +0.000 C 
ENDBRANCH   8   9
ENDBRANCH   2   3
BRANCH   2  14
ATOM     14  C   UNL     1       2.855   8.017  17.917  0.00  0.00    +0.000 C 
BRANCH  14  15
ATOM     15  C   UNL     1       1.406   8.563  17.836  0.00  0.00    +0.000 C 
BRANCH  15  16
ATOM     16  C   UNL     1       1.176  10.003  18.237  0.00  0.00    +0.000 A 
ATOM     17  C   UNL     1       2.224  10.931  18.136  0.00  0.00    +0.000 A 
ATOM     18  C   UNL     1       1.999  12.291  18.369  0.00  0.00    +0.000 A 
ATOM     19  C   UNL     1       0.718  12.738  18.707  0.00  0.00    +0.000 A 
ATOM     20 CL   UNL     1       0.504  14.436  18.952  0.00  0.00    +0.000 Cl
ATOM     21  C   UNL     1      -0.332  11.821  18.815  0.00  0.00    +0.000 A 
ATOM     22 CL   UNL     1      -1.944  12.309  19.202  0.00  0.00    +0.000 Cl
ATOM     23  C   UNL     1      -0.103  10.459  18.579  0.00  0.00    +0.000 A 
ENDBRANCH  15  16
ENDBRANCH  14  15
ENDBRANCH   2  14
TORSDOF 5
ENDMDL
MODEL 7
REMARK VINA RESULT:      -6.9      2.116      2.719
REMARK  Name = 
REMARK  6 active torsions:
REMARK  status: ('A' for Active; 'I' for Inactive)
REMARK    1  A    between atoms: C_1  and  N_2
REMARK    2  A    between atoms: N_2  and  C_3
REMARK    3  A    between atoms: N_2  and  C_13
REMARK    4  A    between atoms: C_3  and  C_4
REMARK    5  A    between atoms: C_4  and  C_5
REMARK    6  A    between atoms: C_18  and  N_19
REMARK                            x       y       z     vdW  Elec       q    Type
REMARK                         _______ _______ _______ _____ _____    ______ ____
ROOT
ATOM      1  C   UNL     1       2.651   7.957  17.780  0.00  0.00    +0.000 C 
ATOM      2  N   UNL     1       2.206   7.011  18.805  0.00  0.00    +0.000 NA
ENDROOT
BRANCH   2   3
ATOM      3  C   UNL     1       2.638   5.609  18.550  0.00  0.00    +0.000 C 
ATOM      4  C   UNL     1       1.564   4.740  17.832  0.00  0.00    +0.000 C 
ATOM      5  C   UNL     1       1.905   3.256  17.913  0.00  0.00    +0.000 C 
ATOM      6  C   UNL     1       3.236   2.963  17.260  0.00  0.00    +0.000 C 
ATOM      7  C   UNL     1       4.349   3.805  17.863  0.00  0.00    +0.000 C 
ATOM      8  C   UNL     1       4.054   5.331  17.866  0.00  0.00    +0.000 C 
BRANCH   8   9
ATOM      9  N   UNL     1       5.203   6.126  18.379  0.00  0.00    +0.000 NA
ATOM     10  C   UNL     1       5.971   6.812  17.325  0.00  0.00    +0.000 C 
ATOM     11  C   UNL     1       7.236   5.994  17.130  0.00  0.00    +0.000 C 
ATOM     12  C   UNL     1       7.538   5.523  18.535  0.00  0.00    +0.000 C 
ATOM     13  C   UNL     1       6.168   5.376  19.198  0.00  0.00    +0.000 C 
ENDBRANCH   8   9
ENDBRANCH   2   3
BRANCH   2  14
ATOM     14  C   UNL     1       2.331   7.565  20.161  0.00  0.00    +0.000 C 
BRANCH  14  15
ATOM     15  C   UNL     1       0.948   7.484  20.857  0.00  0.00    +0.000 C 
BRANCH  15  16
ATOM     16  C   UNL     1       0.316   8.780  21.313  0.00  0.00    +0.000 A 
ATOM     17  C   UNL     1      -0.143   8.907  22.633  0.00  0.00    +0.000 A 
ATOM     18  C   UNL     1      -0.604  10.136  23.115  0.00  0.00    +0.000 A 
ATOM     19  C   UNL     1      -0.611  11.255  22.277  0.00  0.00    +0.000 A 
ATOM     20 CL   UNL     1      -1.165  12.750  22.945  0.00  0.00    +0.000 Cl
ATOM     21  C   UNL     1      -0.162  11.139  20.957  0.00  0.00    +0.000 A 
ATOM     22 CL   UNL     1      -0.119  12.486  19.877  0.00  0.00    +0.000 Cl
ATOM     23  C   UNL     1       0.301   9.906  20.479  0.00  0.00    +0.000 A 
ENDBRANCH  15  16
ENDBRANCH  14  15
ENDBRANCH   2  14
TORSDOF 5
ENDMDL
MODEL 8
REMARK VINA RESULT:      -6.9      3.962      8.195
REMARK  Name = 
REMARK  6 active torsions:
REMARK  status: ('A' for Active; 'I' for Inactive)
REMARK    1  A    between atoms: C_1  and  N_2
REMARK    2  A    between atoms: N_2  and  C_3
REMARK    3  A    between atoms: N_2  and  C_13
REMARK    4  A    between atoms: C_3  and  C_4
REMARK    5  A    between atoms: C_4  and  C_5
REMARK    6  A    between atoms: C_18  and  N_19
REMARK                            x       y       z     vdW  Elec       q    Type
REMARK                         _______ _______ _______ _____ _____    ______ ____
ROOT
ATOM      1  C   UNL     1       1.939   9.575  17.940  0.00  0.00    +0.000 C 
ATOM      2  N   UNL     1       1.117   9.818  19.128  0.00  0.00    +0.000 NA
ENDROOT
BRANCH   2   3
ATOM      3  C   UNL     1      -0.116  10.604  18.849  0.00  0.00    +0.000 C 
ATOM      4  C   UNL     1      -1.013   9.995  17.731  0.00  0.00    +0.000 C 
ATOM      5  C   UNL     1      -2.052  10.998  17.243  0.00  0.00    +0.000 C 
ATOM      6  C   UNL     1      -2.963  11.434  18.369  0.00  0.00    +0.000 C 
ATOM      7  C   UNL     1      -2.173  12.002  19.536  0.00  0.00    +0.000 C 
ATOM      8  C   UNL     1      -1.054  11.058  20.059  0.00  0.00    +0.000 C 
BRANCH   8   9
ATOM      9  N   UNL     1      -0.366  11.611  21.258  0.00  0.00    +0.000 NA
ATOM     10  C   UNL     1      -0.672  10.890  22.506  0.00  0.00    +0.000 C 
ATOM     11  C   UNL     1      -1.662  11.761  23.260  0.00  0.00    +0.000 C 
ATOM     12  C   UNL     1      -1.188  13.157  22.922  0.00  0.00    +0.000 C 
ATOM     13  C   UNL     1      -0.604  13.040  21.514  0.00  0.00    +0.000 C 
ENDBRANCH   8   9
ENDBRANCH   2   3
BRANCH   2  14
ATOM     14  C   UNL     1       1.032   8.632  19.994  0.00  0.00    +0.000 C 
BRANCH  14  15
ATOM     15  C   UNL     1       2.288   7.756  19.754  0.00  0.00    +0.000 C 
BRANCH  15  16
ATOM     16  C   UNL     1       2.074   6.283  19.486  0.00  0.00    +0.000 A 
ATOM     17  C   UNL     1       2.223   5.782  18.183  0.00  0.00    +0.000 A 
ATOM     18  C   UNL     1       2.165   4.408  17.936  0.00  0.00    +0.000 A 
ATOM     19  C   UNL     1       1.955   3.516  18.993  0.00  0.00    +0.000 A 
ATOM     20 CL   UNL     1       1.925   1.829  18.620  0.00  0.00    +0.000 Cl
ATOM     21  C   UNL     1       1.800   4.005  20.294  0.00  0.00    +0.000 A 
ATOM     22 CL   UNL     1       1.566   2.959  21.649  0.00  0.00    +0.000 Cl
ATOM     23  C   UNL     1       1.861   5.383  20.538  0.00  0.00    +0.000 A 
ENDBRANCH  15  16
ENDBRANCH  14  15
ENDBRANCH   2  14
TORSDOF 5
ENDMDL
MODEL 9
REMARK VINA RESULT:      -6.9      3.779      8.093
REMARK  Name = 
REMARK  6 active torsions:
REMARK  status: ('A' for Active; 'I' for Inactive)
REMARK    1  A    between atoms: C_1  and  N_2
REMARK    2  A    between atoms: N_2  and  C_3
REMARK    3  A    between atoms: N_2  and  C_13
REMARK    4  A    between atoms: C_3  and  C_4
REMARK    5  A    between atoms: C_4  and  C_5
REMARK    6  A    between atoms: C_18  and  N_19
REMARK                            x       y       z     vdW  Elec       q    Type
REMARK                         _______ _______ _______ _____ _____    ______ ____
ROOT
ATOM      1  C   UNL     1       1.088   9.202  17.940  0.00  0.00    +0.000 C 
ATOM      2  N   UNL     1       1.533   9.084  19.330  0.00  0.00    +0.000 NA
ENDROOT
BRANCH   2   3
ATOM      3  C   UNL     1       0.578   9.666  20.313  0.00  0.00    +0.000 C 
ATOM      4  C   UNL     1       0.627   8.991  21.715  0.00  0.00    +0.000 C 
ATOM      5  C   UNL     1      -0.586   9.369  22.558  0.00  0.00    +0.000 C 
ATOM      6  C   UNL     1      -0.657  10.864  22.776  0.00  0.00    +0.000 C 
ATOM      7  C   UNL     1      -0.660  11.619  21.457  0.00  0.00    +0.000 C 
ATOM      8  C   UNL     1       0.520  11.249  20.516  0.00  0.00    +0.000 C 
BRANCH   8   9
ATOM      9  N   UNL     1       0.533  12.075  19.277  0.00  0.00    +0.000 NA
ATOM     10  C   UNL     1       1.733  12.918  19.134  0.00  0.00    +0.000 C 
ATOM     11  C   UNL     1       1.300  14.327  19.501  0.00  0.00    +0.000 C 
ATOM     12  C   UNL     1      -0.112  14.382  18.965  0.00  0.00    +0.000 C 
ATOM     13  C   UNL     1      -0.635  12.951  19.096  0.00  0.00    +0.000 C 
ENDBRANCH   8   9
ENDBRANCH   2   3
BRANCH   2  14
ATOM     14  C   UNL     1       2.138   7.773  19.607  0.00  0.00    +0.000 C 
BRANCH  14  15
ATOM     15  C   UNL     1       2.570   7.134  18.262  0.00  0.00    +0.000 C 
BRANCH  15  16
ATOM     16  C   UNL     1       2.745   5.633  18.224  0.00  0.00    +0.000 A 
ATOM     17  C   UNL     1       3.702   5.063  17.370  0.00  0.00    +0.000 A 
ATOM     18  C   UNL     1       3.977   3.693  17.417  0.00  0.00    +0.000 A 
ATOM     19  C   UNL     1       3.293   2.875  18.322  0.00  0.00    +0.000 A 
ATOM     20 CL   UNL     1       3.702   1.196  18.348  0.00  0.00    +0.000 Cl
ATOM     21  C   UNL     1       2.333   3.432  19.173  0.00  0.00    +0.000 A 
ATOM     22 CL   UNL     1       1.471   2.484  20.333  0.00  0.00    +0.000 Cl
ATOM     23  C   UNL     1       2.062   4.805  19.125  0.00  0.00    +0.000 A 
ENDBRANCH  15  16
ENDBRANCH  14  15
ENDBRANCH   2  14
TORSDOF 5
ENDMDL
