MODEL 1
REMARK VINA RESULT:      -7.0      0.000      0.000
REMARK  Name = 
REMARK  8 active torsions:
REMARK  status: ('A' for Active; 'I' for Inactive)
REMARK    1  A    between atoms: C_1  and  C_2
REMARK    2  A    between atoms: C_4  and  N_5
REMARK    3  A    between atoms: N_5  and  S_6
REMARK    4  A    between atoms: S_6  and  C_9
REMARK    5  A    between atoms: C_10  and  C_11
REMARK    6  A    between atoms: C_19  and  C_20
REMARK    7  A    between atoms: N_21  and  C_22
REMARK    8  A    between atoms: C_23  and  C_24
REMARK                            x       y       z     vdW  Elec       q    Type
REMARK                         _______ _______ _______ _____ _____    ______ ____
ROOT
ATOM      1  C   UNL     1      -0.086  10.639  18.711  0.00  0.00    +0.000 A 
ATOM      2  C   UNL     1      -0.128  11.660  19.720  0.00  0.00    +0.000 A 
ATOM      3  C   UNL     1      -1.465  12.077  19.801  0.00  0.00    +0.000 A 
ATOM      4  C   UNL     1      -2.152  13.008  20.752  0.00  0.00    +0.000 C 
ATOM      5  N   UNL     1      -2.164  11.499  18.773  0.00  0.00    +0.000 N 
ATOM      6  C   UNL     1      -3.542  11.761  18.418  0.00  0.00    +0.000 C 
ATOM      7  C   UNL     1      -1.351  10.606  18.111  0.00  0.00    +0.000 A 
ATOM      8  C   UNL     1      -1.826   9.761  16.970  0.00  0.00    +0.000 C 
ENDROOT
BRANCH   2   9
ATOM      9  C   UNL     1       0.934  12.160  20.593  0.00  0.00    +0.000 C 
ATOM     10  O   UNL     1       1.269  11.524  21.591  0.00  0.00    +0.000 OA
ATOM     11  N   UNL     1       1.509  13.387  20.240  0.00  0.00    +0.000 N 
ATOM     12  C   UNL     1       2.385  14.112  21.164  0.00  0.00    +0.000 C 
ATOM     13  C   UNL     1       2.204  15.638  21.015  0.00  0.00    +0.000 C 
ATOM     14  O   UNL     1       2.336  16.067  19.649  0.00  0.00    +0.000 OA
ATOM     15  C   UNL     1       1.386  15.399  18.811  0.00  0.00    +0.000 C 
ATOM     16  C   UNL     1       1.607  13.883  18.858  0.00  0.00    +0.000 C 
ENDBRANCH   2   9
BRANCH   1  17
ATOM     17  S   UNL     1       1.194   9.546  18.224  0.00  0.00    +0.000 S 
ATOM     18  O   UNL     1       2.177  10.432  17.635  0.00  0.00    +0.000 OA
ATOM     19  O   UNL     1       0.466   8.596  17.406  0.00  0.00    +0.000 OA
BRANCH  17  20
ATOM     20  N   UNL     1       1.903   8.655  19.456  0.00  0.00    +0.000 N 
ATOM     21  H   UNL     1       2.509   9.231  20.048  0.00  0.00    +0.000 HD
BRANCH  20  25
ATOM     22  C   UNL     1       1.938   3.968  20.898  0.00  0.00    +0.000 C 
ATOM     23  C   UNL     1       2.338   4.981  19.866  0.00  0.00    +0.000 A 
ATOM     24  C   UNL     1       1.963   6.316  20.074  0.00  0.00    +0.000 A 
ATOM     25  C   UNL     1       2.350   7.326  19.199  0.00  0.00    +0.000 A 
ATOM     26  C   UNL     1       3.136   7.009  18.089  0.00  0.00    +0.000 A 
ATOM     27  C   UNL     1       3.493   5.674  17.844  0.00  0.00    +0.000 A 
ATOM     28  C   UNL     1       3.094   4.666  18.728  0.00  0.00    +0.000 A 
ATOM     29 BR   UNL     1       3.593   2.878  18.329  0.00  0.00    +0.000 Br
ENDBRANCH  20  25
ENDBRANCH  17  20
ENDBRANCH   1  17
TORSDOF 4
ENDMDL
MODEL 2
REMARK VINA RESULT:      -6.9      4.204      8.626
REMARK  Name = 
REMARK  8 active torsions:
REMARK  status: ('A' for Active; 'I' for Inactive)
REMARK    1  A    between atoms: C_1  and  C_2
REMARK    2  A    between atoms: C_4  and  N_5
REMARK    3  A    between atoms: N_5  and  S_6
REMARK    4  A    between atoms: S_6  and  C_9
REMARK    5  A    between atoms: C_10  and  C_11
REMARK    6  A    between atoms: C_19  and  C_20
REMARK    7  A    between atoms: N_21  and  C_22
REMARK    8  A    between atoms: C_23  and  C_24
REMARK                            x       y       z     vdW  Elec       q    Type
REMARK                         _______ _______ _______ _____ _____    ______ ____
ROOT
ATOM      1  C   UNL     1       3.235   5.013  19.480  0.00  0.00    +0.000 A 
ATOM      2  C   UNL     1       4.441   4.234  19.530  0.00  0.00    +0.000 A 
ATOM      3  C   UNL     1       4.089   3.001  20.098  0.00  0.00    +0.000 A 
ATOM      4  C   UNL     1       4.875   1.740  20.282  0.00  0.00    +0.000 C 
ATOM      5  N   UNL     1       2.799   3.085  20.554  0.00  0.00    +0.000 N 
ATOM      6  C   UNL     1       2.091   2.078  21.316  0.00  0.00    +0.000 C 
ATOM      7  C   UNL     1       2.254   4.291  20.171  0.00  0.00    +0.000 A 
ATOM      8  C   UNL     1       0.837   4.674  20.461  0.00  0.00    +0.000 C 
ENDROOT
BRANCH   2   9
ATOM      9  C   UNL     1       5.780   4.548  19.032  0.00  0.00    +0.000 C 
ATOM     10  O   UNL     1       6.666   4.900  19.809  0.00  0.00    +0.000 OA
ATOM     11  N   UNL     1       5.973   4.445  17.648  0.00  0.00    +0.000 N 
ATOM     12  C   UNL     1       7.176   4.979  17.005  0.00  0.00    +0.000 C 
ATOM     13  C   UNL     1       6.853   5.536  15.602  0.00  0.00    +0.000 C 
ATOM     14  O   UNL     1       6.148   4.581  14.790  0.00  0.00    +0.000 OA
ATOM     15  C   UNL     1       4.930   4.174  15.425  0.00  0.00    +0.000 C 
ATOM     16  C   UNL     1       5.227   3.521  16.780  0.00  0.00    +0.000 C 
ENDBRANCH   2   9
BRANCH   1  17
ATOM     17  S   UNL     1       2.883   6.554  18.724  0.00  0.00    +0.000 S 
ATOM     18  O   UNL     1       1.715   6.267  17.917  0.00  0.00    +0.000 OA
ATOM     19  O   UNL     1       4.156   6.867  18.104  0.00  0.00    +0.000 OA
BRANCH  17  20
ATOM     20  N   UNL     1       2.549   7.823  19.770  0.00  0.00    +0.000 N 
ATOM     21  H   UNL     1       2.601   7.536  20.753  0.00  0.00    +0.000 HD
BRANCH  20  25
ATOM     22  C   UNL     1      -0.900  10.905  21.399  0.00  0.00    +0.000 C 
ATOM     23  C   UNL     1      -0.157  10.338  20.226  0.00  0.00    +0.000 A 
ATOM     24  C   UNL     1       0.838   9.381  20.475  0.00  0.00    +0.000 A 
ATOM     25  C   UNL     1       1.527   8.761  19.440  0.00  0.00    +0.000 A 
ATOM     26  C   UNL     1       1.222   9.089  18.117  0.00  0.00    +0.000 A 
ATOM     27  C   UNL     1       0.254  10.069  17.847  0.00  0.00    +0.000 A 
ATOM     28  C   UNL     1      -0.429  10.691  18.897  0.00  0.00    +0.000 A 
ATOM     29 BR   UNL     1      -1.712  12.022  18.464  0.00  0.00    +0.000 Br
ENDBRANCH  20  25
ENDBRANCH  17  20
ENDBRANCH   1  17
TORSDOF 4
ENDMDL
MODEL 3
REMARK VINA RESULT:      -6.9      3.825      6.729
REMARK  Name = 
REMARK  8 active torsions:
REMARK  status: ('A' for Active; 'I' for Inactive)
REMARK    1  A    between atoms: C_1  and  C_2
REMARK    2  A    between atoms: C_4  and  N_5
REMARK    3  A    between atoms: N_5  and  S_6
REMARK    4  A    between atoms: S_6  and  C_9
REMARK    5  A    between atoms: C_10  and  C_11
REMARK    6  A    between atoms: C_19  and  C_20
REMARK    7  A    between atoms: N_21  and  C_22
REMARK    8  A    between atoms: C_23  and  C_24
REMARK                            x       y       z     vdW  Elec       q    Type
REMARK                         _______ _______ _______ _____ _____    ______ ____
ROOT
ATOM      1  C   UNL     1      -0.276  11.575  21.503  0.00  0.00    +0.000 A 
ATOM      2  C   UNL     1       0.348  11.842  20.238  0.00  0.00    +0.000 A 
ATOM      3  C   UNL     1       0.887  10.623  19.801  0.00  0.00    +0.000 A 
ATOM      4  C   UNL     1       1.531  10.237  18.506  0.00  0.00    +0.000 C 
ATOM      5  N   UNL     1       0.780   9.711  20.819  0.00  0.00    +0.000 N 
ATOM      6  C   UNL     1       1.325   8.370  20.831  0.00  0.00    +0.000 C 
ATOM      7  C   UNL     1       0.059  10.262  21.855  0.00  0.00    +0.000 A 
ATOM      8  C   UNL     1      -0.289   9.506  23.099  0.00  0.00    +0.000 C 
ENDROOT
BRANCH   2   9
ATOM      9  C   UNL     1       0.384  13.075  19.452  0.00  0.00    +0.000 C 
ATOM     10  O   UNL     1      -0.482  13.301  18.609  0.00  0.00    +0.000 OA
ATOM     11  N   UNL     1       1.455  13.944  19.699  0.00  0.00    +0.000 N 
ATOM     12  C   UNL     1       1.747  15.068  18.806  0.00  0.00    +0.000 C 
ATOM     13  C   UNL     1       3.266  15.319  18.710  0.00  0.00    +0.000 C 
ATOM     14  O   UNL     1       3.877  15.447  20.007  0.00  0.00    +0.000 OA
ATOM     15  C   UNL     1       3.644  14.275  20.797  0.00  0.00    +0.000 C 
ATOM     16  C   UNL     1       2.140  14.057  20.997  0.00  0.00    +0.000 C 
ENDBRANCH   2   9
BRANCH   1  17
ATOM     17  S   UNL     1      -1.304  12.567  22.518  0.00  0.00    +0.000 S 
ATOM     18  O   UNL     1      -0.356  13.358  23.276  0.00  0.00    +0.000 OA
ATOM     19  O   UNL     1      -2.122  11.562  23.169  0.00  0.00    +0.000 OA
BRANCH  17  20
ATOM     20  N   UNL     1      -2.368  13.583  21.710  0.00  0.00    +0.000 N 
ATOM     21  H   UNL     1      -2.550  14.444  22.234  0.00  0.00    +0.000 HD
BRANCH  20  25
ATOM     22  C   UNL     1      -3.979  11.439  17.605  0.00  0.00    +0.000 C 
ATOM     23  C   UNL     1      -4.289  11.914  18.994  0.00  0.00    +0.000 A 
ATOM     24  C   UNL     1      -3.255  12.504  19.734  0.00  0.00    +0.000 A 
ATOM     25  C   UNL     1      -3.475  13.029  21.003  0.00  0.00    +0.000 A 
ATOM     26  C   UNL     1      -4.757  12.974  21.556  0.00  0.00    +0.000 A 
ATOM     27  C   UNL     1      -5.798  12.357  20.846  0.00  0.00    +0.000 A 
ATOM     28  C   UNL     1      -5.563  11.828  19.572  0.00  0.00    +0.000 A 
ATOM     29 BR   UNL     1      -7.009  10.989  18.673  0.00  0.00    +0.000 Br
ENDBRANCH  20  25
ENDBRANCH  17  20
ENDBRANCH   1  17
TORSDOF 4
ENDMDL
MODEL 4
REMARK VINA RESULT:      -6.8      1.532      2.164
REMARK  Name = 
REMARK  8 active torsions:
REMARK  status: ('A' for Active; 'I' for Inactive)
REMARK    1  A    between atoms: C_1  and  C_2
REMARK    2  A    between atoms: C_4  and  N_5
REMARK    3  A    between atoms: N_5  and  S_6
REMARK    4  A    between atoms: S_6  and  C_9
REMARK    5  A    between atoms: C_10  and  C_11
REMARK    6  A    between atoms: C_19  and  C_20
REMARK    7  A    between atoms: N_21  and  C_22
REMARK    8  A    between atoms: C_23  and  C_24
REMARK                            x       y       z     vdW  Elec       q    Type
REMARK                         _______ _______ _______ _____ _____    ______ ____
ROOT
ATOM      1  C   UNL     1      -0.465  11.075  19.179  0.00  0.00    +0.000 A 
ATOM      2  C   UNL     1      -0.941  12.089  20.078  0.00  0.00    +0.000 A 
ATOM      3  C   UNL     1      -2.312  12.232  19.818  0.00  0.00    +0.000 A 
ATOM      4  C   UNL     1      -3.371  13.027  20.517  0.00  0.00    +0.000 C 
ATOM      5  N   UNL     1      -2.620  11.504  18.698  0.00  0.00    +0.000 N 
ATOM      6  C   UNL     1      -3.897  11.479  18.016  0.00  0.00    +0.000 C 
ATOM      7  C   UNL     1      -1.519  10.777  18.306  0.00  0.00    +0.000 A 
ATOM      8  C   UNL     1      -1.537   9.830  17.147  0.00  0.00    +0.000 C 
ENDROOT
BRANCH   2   9
ATOM      9  C   UNL     1      -0.235  12.808  21.138  0.00  0.00    +0.000 C 
ATOM     10  O   UNL     1      -0.054  12.282  22.234  0.00  0.00    +0.000 OA
ATOM     11  N   UNL     1       0.188  14.109  20.836  0.00  0.00    +0.000 N 
ATOM     12  C   UNL     1       0.665  15.018  21.882  0.00  0.00    +0.000 C 
ATOM     13  C   UNL     1       0.266  16.476  21.573  0.00  0.00    +0.000 C 
ATOM     14  O   UNL     1       0.658  16.876  20.248  0.00  0.00    +0.000 OA
ATOM     15  C   UNL     1       0.079  16.012  19.263  0.00  0.00    +0.000 C 
ATOM     16  C   UNL     1       0.541  14.567  19.483  0.00  0.00    +0.000 C 
ENDBRANCH   2   9
BRANCH   1  17
ATOM     17  S   UNL     1       1.077  10.249  19.079  0.00  0.00    +0.000 S 
ATOM     18  O   UNL     1       1.302   9.806  20.439  0.00  0.00    +0.000 OA
ATOM     19  O   UNL     1       1.914  11.273  18.483  0.00  0.00    +0.000 OA
BRANCH  17  20
ATOM     20  N   UNL     1       1.136   8.934  18.039  0.00  0.00    +0.000 N 
ATOM     21  H   UNL     1       0.201   8.624  17.755  0.00  0.00    +0.000 HD
BRANCH  20  25
ATOM     22  C   UNL     1       5.182   6.683  16.423  0.00  0.00    +0.000 C 
ATOM     23  C   UNL     1       4.143   6.807  17.497  0.00  0.00    +0.000 A 
ATOM     24  C   UNL     1       3.139   7.773  17.334  0.00  0.00    +0.000 A 
ATOM     25  C   UNL     1       2.103   7.907  18.252  0.00  0.00    +0.000 A 
ATOM     26  C   UNL     1       2.053   7.060  19.361  0.00  0.00    +0.000 A 
ATOM     27  C   UNL     1       3.066   6.111  19.561  0.00  0.00    +0.000 A 
ATOM     28  C   UNL     1       4.107   5.987  18.634  0.00  0.00    +0.000 A 
ATOM     29 BR   UNL     1       5.457   4.697  18.973  0.00  0.00    +0.000 Br
ENDBRANCH  20  25
ENDBRANCH  17  20
ENDBRANCH   1  17
TORSDOF 4
ENDMDL
MODEL 5
REMARK VINA RESULT:      -6.8      1.346      1.506
REMARK  Name = 
REMARK  8 active torsions:
REMARK  status: ('A' for Active; 'I' for Inactive)
REMARK    1  A    between atoms: C_1  and  C_2
REMARK    2  A    between atoms: C_4  and  N_5
REMARK    3  A    between atoms: N_5  and  S_6
REMARK    4  A    between atoms: S_6  and  C_9
REMARK    5  A    between atoms: C_10  and  C_11
REMARK    6  A    between atoms: C_19  and  C_20
REMARK    7  A    between atoms: N_21  and  C_22
REMARK    8  A    between atoms: C_23  and  C_24
REMARK                            x       y       z     vdW  Elec       q    Type
REMARK                         _______ _______ _______ _____ _____    ______ ____
ROOT
ATOM      1  C   UNL     1      -0.451  11.019  19.103  0.00  0.00    +0.000 A 
ATOM      2  C   UNL     1      -0.913  12.070  19.967  0.00  0.00    +0.000 A 
ATOM      3  C   UNL     1      -2.283  12.218  19.706  0.00  0.00    +0.000 A 
ATOM      4  C   UNL     1      -3.331  13.049  20.379  0.00  0.00    +0.000 C 
ATOM      5  N   UNL     1      -2.603  11.453  18.615  0.00  0.00    +0.000 N 
ATOM      6  C   UNL     1      -3.882  11.416  17.938  0.00  0.00    +0.000 C 
ATOM      7  C   UNL     1      -1.511  10.700  18.245  0.00  0.00    +0.000 A 
ATOM      8  C   UNL     1      -1.543   9.712  17.122  0.00  0.00    +0.000 C 
ENDROOT
BRANCH   2   9
ATOM      9  C   UNL     1      -0.195  12.820  20.997  0.00  0.00    +0.000 C 
ATOM     10  O   UNL     1      -0.041  12.343  22.120  0.00  0.00    +0.000 OA
ATOM     11  N   UNL     1       0.270  14.091  20.635  0.00  0.00    +0.000 N 
ATOM     12  C   UNL     1       0.764  15.036  21.640  0.00  0.00    +0.000 C 
ATOM     13  C   UNL     1       0.411  16.488  21.255  0.00  0.00    +0.000 C 
ATOM     14  O   UNL     1       0.828  16.809  19.916  0.00  0.00    +0.000 OA
ATOM     15  C   UNL     1       0.232  15.915  18.969  0.00  0.00    +0.000 C 
ATOM     16  C   UNL     1       0.649  14.470  19.265  0.00  0.00    +0.000 C 
ENDBRANCH   2   9
BRANCH   1  17
ATOM     17  S   UNL     1       1.082  10.174  19.029  0.00  0.00    +0.000 S 
ATOM     18  O   UNL     1       1.299   9.762  20.400  0.00  0.00    +0.000 OA
ATOM     19  O   UNL     1       1.932  11.173  18.410  0.00  0.00    +0.000 OA
BRANCH  17  20
ATOM     20  N   UNL     1       1.130   8.832  18.022  0.00  0.00    +0.000 N 
ATOM     21  H   UNL     1       0.192   8.478  17.807  0.00  0.00    +0.000 HD
BRANCH  20  25
ATOM     22  C   UNL     1       2.606   4.805  20.400  0.00  0.00    +0.000 C 
ATOM     23  C   UNL     1       2.882   5.820  19.329  0.00  0.00    +0.000 A 
ATOM     24  C   UNL     1       1.938   6.836  19.126  0.00  0.00    +0.000 A 
ATOM     25  C   UNL     1       2.149   7.851  18.199  0.00  0.00    +0.000 A 
ATOM     26  C   UNL     1       3.331   7.867  17.454  0.00  0.00    +0.000 A 
ATOM     27  C   UNL     1       4.272   6.840  17.618  0.00  0.00    +0.000 A 
ATOM     28  C   UNL     1       4.047   5.821  18.550  0.00  0.00    +0.000 A 
ATOM     29 BR   UNL     1       5.351   4.451  18.709  0.00  0.00    +0.000 Br
ENDBRANCH  20  25
ENDBRANCH  17  20
ENDBRANCH   1  17
TORSDOF 4
ENDMDL
MODEL 6
REMARK VINA RESULT:      -6.8      3.046      4.711
REMARK  Name = 
REMARK  8 active torsions:
REMARK  status: ('A' for Active; 'I' for Inactive)
REMARK    1  A    between atoms: C_1  and  C_2
REMARK    2  A    between atoms: C_4  and  N_5
REMARK    3  A    between atoms: N_5  and  S_6
REMARK    4  A    between atoms: S_6  and  C_9
REMARK    5  A    between atoms: C_10  and  C_11
REMARK    6  A    between atoms: C_19  and  C_20
REMARK    7  A    between atoms: N_21  and  C_22
REMARK    8  A    between atoms: C_23  and  C_24
REMARK                            x       y       z     vdW  Elec       q    Type
REMARK                         _______ _______ _______ _____ _____    ______ ____
ROOT
ATOM      1  C   UNL     1      -2.671  12.421  22.087  0.00  0.00    +0.000 A 
ATOM      2  C   UNL     1      -3.078  12.706  20.739  0.00  0.00    +0.000 A 
ATOM      3  C   UNL     1      -4.403  13.161  20.818  0.00  0.00    +0.000 A 
ATOM      4  C   UNL     1      -5.312  13.733  19.775  0.00  0.00    +0.000 C 
ATOM      5  N   UNL     1      -4.850  12.979  22.101  0.00  0.00    +0.000 N 
ATOM      6  C   UNL     1      -6.198  13.199  22.579  0.00  0.00    +0.000 C 
ATOM      7  C   UNL     1      -3.809  12.550  22.893  0.00  0.00    +0.000 A 
ATOM      8  C   UNL     1      -3.947  12.313  24.364  0.00  0.00    +0.000 C 
ENDROOT
BRANCH   2   9
ATOM      9  C   UNL     1      -2.310  12.648  19.496  0.00  0.00    +0.000 C 
ATOM     10  O   UNL     1      -2.567  11.798  18.645  0.00  0.00    +0.000 OA
ATOM     11  N   UNL     1      -1.277  13.583  19.355  0.00  0.00    +0.000 N 
ATOM     12  C   UNL     1      -0.280  13.462  18.289  0.00  0.00    +0.000 C 
ATOM     13  C   UNL     1       1.103  13.954  18.766  0.00  0.00    +0.000 C 
ATOM     14  O   UNL     1       1.040  15.271  19.341  0.00  0.00    +0.000 OA
ATOM     15  C   UNL     1       0.126  15.302  20.443  0.00  0.00    +0.000 C 
ATOM     16  C   UNL     1      -1.283  14.916  19.977  0.00  0.00    +0.000 C 
ENDBRANCH   2   9
BRANCH   1  17
ATOM     17  S   UNL     1      -1.106  12.013  22.760  0.00  0.00    +0.000 S 
ATOM     18  O   UNL     1      -1.334  10.716  23.364  0.00  0.00    +0.000 OA
ATOM     19  O   UNL     1      -0.833  13.177  23.582  0.00  0.00    +0.000 OA
BRANCH  17  20
ATOM     20  N   UNL     1       0.159  11.910  21.663  0.00  0.00    +0.000 N 
ATOM     21  H   UNL     1       0.111  12.644  20.949  0.00  0.00    +0.000 HD
BRANCH  20  25
ATOM     22  C   UNL     1       1.434   9.069  17.874  0.00  0.00    +0.000 C 
ATOM     23  C   UNL     1       1.300   9.217  19.361  0.00  0.00    +0.000 A 
ATOM     24  C   UNL     1       0.825  10.437  19.862  0.00  0.00    +0.000 A 
ATOM     25  C   UNL     1       0.611  10.632  21.223  0.00  0.00    +0.000 A 
ATOM     26  C   UNL     1       0.868   9.588  22.115  0.00  0.00    +0.000 A 
ATOM     27  C   UNL     1       1.377   8.371  21.638  0.00  0.00    +0.000 A 
ATOM     28  C   UNL     1       1.593   8.188  20.268  0.00  0.00    +0.000 A 
ATOM     29 BR   UNL     1       2.301   6.524  19.689  0.00  0.00    +0.000 Br
ENDBRANCH  20  25
ENDBRANCH  17  20
ENDBRANCH   1  17
TORSDOF 4
ENDMDL
MODEL 7
REMARK VINA RESULT:      -6.8      3.118      4.050
REMARK  Name = 
REMARK  8 active torsions:
REMARK  status: ('A' for Active; 'I' for Inactive)
REMARK    1  A    between atoms: C_1  and  C_2
REMARK    2  A    between atoms: C_4  and  N_5
REMARK    3  A    between atoms: N_5  and  S_6
REMARK    4  A    between atoms: S_6  and  C_9
REMARK    5  A    between atoms: C_10  and  C_11
REMARK    6  A    between atoms: C_19  and  C_20
REMARK    7  A    between atoms: N_21  and  C_22
REMARK    8  A    between atoms: C_23  and  C_24
REMARK                            x       y       z     vdW  Elec       q    Type
REMARK                         _______ _______ _______ _____ _____    ______ ____
ROOT
ATOM      1  C   UNL     1      -3.051  12.040  19.628  0.00  0.00    +0.000 A 
ATOM      2  C   UNL     1      -3.277  12.533  20.958  0.00  0.00    +0.000 A 
ATOM      3  C   UNL     1      -4.664  12.704  21.083  0.00  0.00    +0.000 A 
ATOM      4  C   UNL     1      -5.511  13.058  22.266  0.00  0.00    +0.000 C 
ATOM      5  N   UNL     1      -5.237  12.522  19.851  0.00  0.00    +0.000 N 
ATOM      6  C   UNL     1      -6.629  12.729  19.513  0.00  0.00    +0.000 C 
ATOM      7  C   UNL     1      -4.279  12.097  18.957  0.00  0.00    +0.000 A 
ATOM      8  C   UNL     1      -4.588  11.750  17.534  0.00  0.00    +0.000 C 
ENDROOT
BRANCH   2   9
ATOM      9  C   UNL     1      -2.329  12.755  22.049  0.00  0.00    +0.000 C 
ATOM     10  O   UNL     1      -1.764  11.803  22.585  0.00  0.00    +0.000 OA
ATOM     11  N   UNL     1      -2.132  14.084  22.447  0.00  0.00    +0.000 N 
ATOM     12  C   UNL     1      -1.419  14.411  23.684  0.00  0.00    +0.000 C 
ATOM     13  C   UNL     1      -2.014  15.671  24.348  0.00  0.00    +0.000 C 
ATOM     14  O   UNL     1      -2.101  16.776  23.431  0.00  0.00    +0.000 OA
ATOM     15  C   UNL     1      -2.894  16.429  22.289  0.00  0.00    +0.000 C 
ATOM     16  C   UNL     1      -2.270  15.240  21.548  0.00  0.00    +0.000 C 
ENDBRANCH   2   9
BRANCH   1  17
ATOM     17  S   UNL     1      -1.606  11.422  18.854  0.00  0.00    +0.000 S 
ATOM     18  O   UNL     1      -1.315  12.425  17.850  0.00  0.00    +0.000 OA
ATOM     19  O   UNL     1      -2.032  10.089  18.471  0.00  0.00    +0.000 OA
BRANCH  17  20
ATOM     20  N   UNL     1      -0.272  11.217  19.850  0.00  0.00    +0.000 N 
ATOM     21  H   UNL     1       0.313  12.058  19.889  0.00  0.00    +0.000 HD
BRANCH  20  25
ATOM     22  C   UNL     1       2.737   8.147  17.489  0.00  0.00    +0.000 C 
ATOM     23  C   UNL     1       1.952   8.450  18.732  0.00  0.00    +0.000 A 
ATOM     24  C   UNL     1       1.220   9.646  18.774  0.00  0.00    +0.000 A 
ATOM     25  C   UNL     1       0.417   9.969  19.862  0.00  0.00    +0.000 A 
ATOM     26  C   UNL     1       0.329   9.083  20.939  0.00  0.00    +0.000 A 
ATOM     27  C   UNL     1       1.080   7.898  20.931  0.00  0.00    +0.000 A 
ATOM     28  C   UNL     1       1.889   7.586  19.834  0.00  0.00    +0.000 A 
ATOM     29 BR   UNL     1       2.896   5.977  19.895  0.00  0.00    +0.000 Br
ENDBRANCH  20  25
ENDBRANCH  17  20
ENDBRANCH   1  17
TORSDOF 4
ENDMDL
MODEL 8
REMARK VINA RESULT:      -6.8      0.375      1.371
REMARK  Name = 
REMARK  8 active torsions:
REMARK  status: ('A' for Active; 'I' for Inactive)
REMARK    1  A    between atoms: C_1  and  C_2
REMARK    2  A    between atoms: C_4  and  N_5
REMARK    3  A    between atoms: N_5  and  S_6
REMARK    4  A    between atoms: S_6  and  C_9
REMARK    5  A    between atoms: C_10  and  C_11
REMARK    6  A    between atoms: C_19  and  C_20
REMARK    7  A    between atoms: N_21  and  C_22
REMARK    8  A    between atoms: C_23  and  C_24
REMARK                            x       y       z     vdW  Elec       q    Type
REMARK                         _______ _______ _______ _____ _____    ______ ____
ROOT
ATOM      1  C   UNL     1      -0.162  10.678  18.716  0.00  0.00    +0.000 A 
ATOM      2  C   UNL     1      -0.244  11.694  19.727  0.00  0.00    +0.000 A 
ATOM      3  C   UNL     1      -1.592  12.078  19.790  0.00  0.00    +0.000 A 
ATOM      4  C   UNL     1      -2.316  12.988  20.733  0.00  0.00    +0.000 C 
ATOM      5  N   UNL     1      -2.261  11.486  18.750  0.00  0.00    +0.000 N 
ATOM      6  C   UNL     1      -3.641  11.715  18.376  0.00  0.00    +0.000 C 
ATOM      7  C   UNL     1      -1.417  10.615  18.098  0.00  0.00    +0.000 A 
ATOM      8  C   UNL     1      -1.855   9.762  16.948  0.00  0.00    +0.000 C 
ENDROOT
BRANCH   2   9
ATOM      9  C   UNL     1       0.792  12.217  20.618  0.00  0.00    +0.000 C 
ATOM     10  O   UNL     1       1.139  11.579  21.610  0.00  0.00    +0.000 OA
ATOM     11  N   UNL     1       1.329  13.467  20.286  0.00  0.00    +0.000 N 
ATOM     12  C   UNL     1       2.171  14.209  21.228  0.00  0.00    +0.000 C 
ATOM     13  C   UNL     1       1.942  15.729  21.097  0.00  0.00    +0.000 C 
ATOM     14  O   UNL     1       2.072  16.181  19.738  0.00  0.00    +0.000 OA
ATOM     15  C   UNL     1       1.153  15.493  18.882  0.00  0.00    +0.000 C 
ATOM     16  C   UNL     1       1.424  13.984  18.912  0.00  0.00    +0.000 C 
ENDBRANCH   2   9
BRANCH   1  17
ATOM     17  S   UNL     1       1.151   9.618  18.245  0.00  0.00    +0.000 S 
ATOM     18  O   UNL     1       2.121  10.530  17.673  0.00  0.00    +0.000 OA
ATOM     19  O   UNL     1       0.459   8.653  17.413  0.00  0.00    +0.000 OA
BRANCH  17  20
ATOM     20  N   UNL     1       1.864   8.741  19.485  0.00  0.00    +0.000 N 
ATOM     21  H   UNL     1       2.461   9.326  20.077  0.00  0.00    +0.000 HD
BRANCH  20  25
ATOM     22  C   UNL     1       4.634   5.792  16.712  0.00  0.00    +0.000 C 
ATOM     23  C   UNL     1       3.737   5.938  17.906  0.00  0.00    +0.000 A 
ATOM     24  C   UNL     1       3.216   7.209  18.188  0.00  0.00    +0.000 A 
ATOM     25  C   UNL     1       2.326   7.415  19.237  0.00  0.00    +0.000 A 
ATOM     26  C   UNL     1       1.935   6.333  20.029  0.00  0.00    +0.000 A 
ATOM     27  C   UNL     1       2.472   5.060  19.785  0.00  0.00    +0.000 A 
ATOM     28  C   UNL     1       3.370   4.865  18.731  0.00  0.00    +0.000 A 
ATOM     29 BR   UNL     1       4.075   3.122  18.467  0.00  0.00    +0.000 Br
ENDBRANCH  20  25
ENDBRANCH  17  20
ENDBRANCH   1  17
TORSDOF 4
ENDMDL
MODEL 9
REMARK VINA RESULT:      -6.7      3.211      5.271
REMARK  Name = 
REMARK  8 active torsions:
REMARK  status: ('A' for Active; 'I' for Inactive)
REMARK    1  A    between atoms: C_1  and  C_2
REMARK    2  A    between atoms: C_4  and  N_5
REMARK    3  A    between atoms: N_5  and  S_6
REMARK    4  A    between atoms: S_6  and  C_9
REMARK    5  A    between atoms: C_10  and  C_11
REMARK    6  A    between atoms: C_19  and  C_20
REMARK    7  A    between atoms: N_21  and  C_22
REMARK    8  A    between atoms: C_23  and  C_24
REMARK                            x       y       z     vdW  Elec       q    Type
REMARK                         _______ _______ _______ _____ _____    ______ ____
ROOT
ATOM      1  C   UNL     1      -0.402  13.948  21.054  0.00  0.00    +0.000 A 
ATOM      2  C   UNL     1      -1.179  14.940  21.742  0.00  0.00    +0.000 A 
ATOM      3  C   UNL     1      -1.390  15.980  20.824  0.00  0.00    +0.000 A 
ATOM      4  C   UNL     1      -2.233  17.214  20.908  0.00  0.00    +0.000 C 
ATOM      5  N   UNL     1      -0.626  15.739  19.712  0.00  0.00    +0.000 N 
ATOM      6  C   UNL     1      -0.452  16.625  18.581  0.00  0.00    +0.000 C 
ATOM      7  C   UNL     1      -0.034  14.500  19.821  0.00  0.00    +0.000 A 
ATOM      8  C   UNL     1       0.822  13.907  18.746  0.00  0.00    +0.000 C 
ENDROOT
BRANCH   2   9
ATOM      9  C   UNL     1      -1.752  14.916  23.088  0.00  0.00    +0.000 C 
ATOM     10  O   UNL     1      -1.170  15.466  24.022  0.00  0.00    +0.000 OA
ATOM     11  N   UNL     1      -2.960  14.224  23.242  0.00  0.00    +0.000 N 
ATOM     12  C   UNL     1      -3.493  13.905  24.569  0.00  0.00    +0.000 C 
ATOM     13  C   UNL     1      -4.222  12.545  24.561  0.00  0.00    +0.000 C 
ATOM     14  O   UNL     1      -5.208  12.465  23.517  0.00  0.00    +0.000 OA
ATOM     15  C   UNL     1      -4.609  12.684  22.234  0.00  0.00    +0.000 C 
ATOM     16  C   UNL     1      -3.964  14.073  22.176  0.00  0.00    +0.000 C 
ENDBRANCH   2   9
BRANCH   1  17
ATOM     17  S   UNL     1       0.055  12.318  21.508  0.00  0.00    +0.000 S 
ATOM     18  O   UNL     1      -0.499  12.178  22.839  0.00  0.00    +0.000 OA
ATOM     19  O   UNL     1       1.490  12.354  21.301  0.00  0.00    +0.000 OA
BRANCH  17  20
ATOM     20  N   UNL     1      -0.528  11.093  20.521  0.00  0.00    +0.000 N 
ATOM     21  H   UNL     1      -1.541  10.971  20.616  0.00  0.00    +0.000 HD
BRANCH  20  25
ATOM     22  C   UNL     1       2.409   8.474  17.594  0.00  0.00    +0.000 C 
ATOM     23  C   UNL     1       1.740   8.607  18.931  0.00  0.00    +0.000 A 
ATOM     24  C   UNL     1       0.941   9.737  19.159  0.00  0.00    +0.000 A 
ATOM     25  C   UNL     1       0.236   9.902  20.346  0.00  0.00    +0.000 A 
ATOM     26  C   UNL     1       0.317   8.920  21.335  0.00  0.00    +0.000 A 
ATOM     27  C   UNL     1       1.138   7.799  21.141  0.00  0.00    +0.000 A 
ATOM     28  C   UNL     1       1.846   7.645  19.945  0.00  0.00    +0.000 A 
ATOM     29 BR   UNL     1       2.954   6.115  19.753  0.00  0.00    +0.000 Br
ENDBRANCH  20  25
ENDBRANCH  17  20
ENDBRANCH   1  17
TORSDOF 4
ENDMDL
