MODEL 1
REMARK VINA RESULT:      -7.1      0.000      0.000
REMARK  Name = 
REMARK  4 active torsions:
REMARK  status: ('A' for Active; 'I' for Inactive)
REMARK    1  A    between atoms: C_4  and  O_5
REMARK    2  A    between atoms: O_5  and  C_6
REMARK    3  A    between atoms: C_6  and  C_7
REMARK    4  A    between atoms: C_7  and  N_8
REMARK                            x       y       z     vdW  Elec       q    Type
REMARK                         _______ _______ _______ _____ _____    ______ ____
ROOT
ATOM      1  N   UNL     1       4.386   2.584  18.021  0.00  0.00    +0.000 N 
ATOM      2  C   UNL     1       5.197   3.642  17.668  0.00  0.00    +0.000 A 
ATOM      3  C   UNL     1       5.250   4.037  16.214  0.00  0.00    +0.000 A 
ATOM      4  C   UNL     1       5.995   5.089  15.851  0.00  0.00    +0.000 A 
ATOM      5  C   UNL     1       6.720   5.769  16.845  0.00  0.00    +0.000 A 
ATOM      6  N   UNL     1       7.527   6.806  16.840  0.00  0.00    +0.000 NA
ATOM      7  N   UNL     1       7.922   6.972  18.149  0.00  0.00    +0.000 NA
ATOM      8  N   UNL     1       7.369   6.059  18.941  0.00  0.00    +0.000 NA
ATOM      9  N   UNL     1       6.612   5.298  18.135  0.00  0.00    +0.000 N 
ATOM     10  N   UNL     1       5.872   4.265  18.595  0.00  0.00    +0.000 NA
ATOM     11  H   UNL     1       3.754   2.236  17.308  0.00  0.00    +0.000 HD
ENDROOT
BRANCH   1  12
ATOM     12  C   UNL     1       3.859   2.439  19.376  0.00  0.00    +0.000 C 
BRANCH  12  13
ATOM     13  C   UNL     1       2.332   2.341  19.420  0.00  0.00    +0.000 C 
BRANCH  13  14
ATOM     14  O   UNL     1       1.813   3.385  18.585  0.00  0.00    +0.000 OA
BRANCH  14  18
ATOM     15  C   UNL     1       2.133   7.340  19.841  0.00  0.00    +0.000 A 
ATOM     16  C   UNL     1       2.458   6.960  18.541  0.00  0.00    +0.000 A 
ATOM     17  C   UNL     1       2.343   5.622  18.158  0.00  0.00    +0.000 A 
ATOM     18  C   UNL     1       1.922   4.656  19.076  0.00  0.00    +0.000 A 
ATOM     19  C   UNL     1       1.588   5.042  20.374  0.00  0.00    +0.000 A 
ATOM     20  C   UNL     1       1.695   6.384  20.755  0.00  0.00    +0.000 A 
ENDBRANCH  14  18
ENDBRANCH  13  14
ENDBRANCH  12  13
ENDBRANCH   1  12
TORSDOF 4
ENDMDL
MODEL 2
REMARK VINA RESULT:      -7.1      1.518      2.291
REMARK  Name = 
REMARK  4 active torsions:
REMARK  status: ('A' for Active; 'I' for Inactive)
REMARK    1  A    between atoms: C_4  and  O_5
REMARK    2  A    between atoms: O_5  and  C_6
REMARK    3  A    between atoms: C_6  and  C_7
REMARK    4  A    between atoms: C_7  and  N_8
REMARK                            x       y       z     vdW  Elec       q    Type
REMARK                         _______ _______ _______ _____ _____    ______ ____
ROOT
ATOM      1  N   UNL     1       2.738   3.178  18.924  0.00  0.00    +0.000 N 
ATOM      2  C   UNL     1       3.885   3.599  18.285  0.00  0.00    +0.000 A 
ATOM      3  C   UNL     1       3.852   3.721  16.782  0.00  0.00    +0.000 A 
ATOM      4  C   UNL     1       4.939   4.171  16.141  0.00  0.00    +0.000 A 
ATOM      5  C   UNL     1       6.079   4.486  16.899  0.00  0.00    +0.000 A 
ATOM      6  N   UNL     1       7.279   4.935  16.605  0.00  0.00    +0.000 NA
ATOM      7  N   UNL     1       7.943   5.031  17.808  0.00  0.00    +0.000 NA
ATOM      8  N   UNL     1       7.169   4.652  18.819  0.00  0.00    +0.000 NA
ATOM      9  N   UNL     1       5.997   4.308  18.263  0.00  0.00    +0.000 N 
ATOM     10  N   UNL     1       4.942   3.884  18.994  0.00  0.00    +0.000 NA
ATOM     11  H   UNL     1       1.894   3.128  18.362  0.00  0.00    +0.000 HD
ENDROOT
BRANCH   1  12
ATOM     12  C   UNL     1       2.476   3.502  20.325  0.00  0.00    +0.000 C 
BRANCH  12  13
ATOM     13  C   UNL     1       1.664   4.787  20.502  0.00  0.00    +0.000 C 
BRANCH  13  14
ATOM     14  O   UNL     1       2.594   5.879  20.532  0.00  0.00    +0.000 OA
BRANCH  14  18
ATOM     15  C   UNL     1       1.642   9.268  18.311  0.00  0.00    +0.000 A 
ATOM     16  C   UNL     1       1.258   9.139  19.644  0.00  0.00    +0.000 A 
ATOM     17  C   UNL     1       1.591   7.984  20.355  0.00  0.00    +0.000 A 
ATOM     18  C   UNL     1       2.292   6.946  19.733  0.00  0.00    +0.000 A 
ATOM     19  C   UNL     1       2.683   7.083  18.402  0.00  0.00    +0.000 A 
ATOM     20  C   UNL     1       2.358   8.244  17.692  0.00  0.00    +0.000 A 
ENDBRANCH  14  18
ENDBRANCH  13  14
ENDBRANCH  12  13
ENDBRANCH   1  12
TORSDOF 4
ENDMDL
MODEL 3
REMARK VINA RESULT:      -7.0      2.695      5.572
REMARK  Name = 
REMARK  4 active torsions:
REMARK  status: ('A' for Active; 'I' for Inactive)
REMARK    1  A    between atoms: C_4  and  O_5
REMARK    2  A    between atoms: O_5  and  C_6
REMARK    3  A    between atoms: C_6  and  C_7
REMARK    4  A    between atoms: C_7  and  N_8
REMARK                            x       y       z     vdW  Elec       q    Type
REMARK                         _______ _______ _______ _____ _____    ______ ____
ROOT
ATOM      1  N   UNL     1       3.759   4.681  17.184  0.00  0.00    +0.000 N 
ATOM      2  C   UNL     1       3.245   4.356  18.422  0.00  0.00    +0.000 A 
ATOM      3  C   UNL     1       2.037   5.116  18.906  0.00  0.00    +0.000 A 
ATOM      4  C   UNL     1       1.491   4.789  20.085  0.00  0.00    +0.000 A 
ATOM      5  C   UNL     1       2.088   3.762  20.836  0.00  0.00    +0.000 A 
ATOM      6  N   UNL     1       1.824   3.205  21.996  0.00  0.00    +0.000 NA
ATOM      7  N   UNL     1       2.796   2.246  22.175  0.00  0.00    +0.000 NA
ATOM      8  N   UNL     1       3.637   2.212  21.147  0.00  0.00    +0.000 NA
ATOM      9  N   UNL     1       3.204   3.158  20.300  0.00  0.00    +0.000 N 
ATOM     10  N   UNL     1       3.807   3.404  19.116  0.00  0.00    +0.000 NA
ATOM     11  H   UNL     1       3.201   5.302  16.607  0.00  0.00    +0.000 HD
ENDROOT
BRANCH   1  12
ATOM     12  C   UNL     1       4.549   3.729  16.406  0.00  0.00    +0.000 C 
BRANCH  12  13
ATOM     13  C   UNL     1       5.450   4.404  15.368  0.00  0.00    +0.000 C 
BRANCH  13  14
ATOM     14  O   UNL     1       6.806   4.225  15.798  0.00  0.00    +0.000 OA
BRANCH  14  18
ATOM     15  C   UNL     1       7.977   6.965  18.704  0.00  0.00    +0.000 A 
ATOM     16  C   UNL     1       7.500   7.379  17.462  0.00  0.00    +0.000 A 
ATOM     17  C   UNL     1       7.122   6.429  16.510  0.00  0.00    +0.000 A 
ATOM     18  C   UNL     1       7.237   5.064  16.787  0.00  0.00    +0.000 A 
ATOM     19  C   UNL     1       7.705   4.654  18.035  0.00  0.00    +0.000 A 
ATOM     20  C   UNL     1       8.075   5.605  18.992  0.00  0.00    +0.000 A 
ENDBRANCH  14  18
ENDBRANCH  13  14
ENDBRANCH  12  13
ENDBRANCH   1  12
TORSDOF 4
ENDMDL
MODEL 4
REMARK VINA RESULT:      -7.0      3.125      6.186
REMARK  Name = 
REMARK  4 active torsions:
REMARK  status: ('A' for Active; 'I' for Inactive)
REMARK    1  A    between atoms: C_4  and  O_5
REMARK    2  A    between atoms: O_5  and  C_6
REMARK    3  A    between atoms: C_6  and  C_7
REMARK    4  A    between atoms: C_7  and  N_8
REMARK                            x       y       z     vdW  Elec       q    Type
REMARK                         _______ _______ _______ _____ _____    ______ ____
ROOT
ATOM      1  N   UNL     1       6.219   3.954  18.092  0.00  0.00    +0.000 N 
ATOM      2  C   UNL     1       5.050   4.066  18.814  0.00  0.00    +0.000 A 
ATOM      3  C   UNL     1       4.513   2.827  19.485  0.00  0.00    +0.000 A 
ATOM      4  C   UNL     1       3.403   2.919  20.229  0.00  0.00    +0.000 A 
ATOM      5  C   UNL     1       2.768   4.168  20.331  0.00  0.00    +0.000 A 
ATOM      6  N   UNL     1       1.695   4.601  20.955  0.00  0.00    +0.000 NA
ATOM      7  N   UNL     1       1.606   5.941  20.649  0.00  0.00    +0.000 NA
ATOM      8  N   UNL     1       2.602   6.324  19.857  0.00  0.00    +0.000 NA
ATOM      9  N   UNL     1       3.339   5.221  19.651  0.00  0.00    +0.000 N 
ATOM     10  N   UNL     1       4.462   5.228  18.899  0.00  0.00    +0.000 NA
ATOM     11  H   UNL     1       6.732   3.083  18.186  0.00  0.00    +0.000 HD
ENDROOT
BRANCH   1  12
ATOM     12  C   UNL     1       7.084   5.106  17.846  0.00  0.00    +0.000 C 
BRANCH  12  13
ATOM     13  C   UNL     1       6.697   5.891  16.590  0.00  0.00    +0.000 C 
BRANCH  13  14
ATOM     14  O   UNL     1       7.622   5.525  15.556  0.00  0.00    +0.000 OA
BRANCH  14  18
ATOM     15  C   UNL     1       6.212   3.685  12.100  0.00  0.00    +0.000 A 
ATOM     16  C   UNL     1       7.356   4.481  12.087  0.00  0.00    +0.000 A 
ATOM     17  C   UNL     1       7.795   5.086  13.267  0.00  0.00    +0.000 A 
ATOM     18  C   UNL     1       7.084   4.916  14.458  0.00  0.00    +0.000 A 
ATOM     19  C   UNL     1       5.945   4.112  14.469  0.00  0.00    +0.000 A 
ATOM     20  C   UNL     1       5.510   3.497  13.289  0.00  0.00    +0.000 A 
ENDBRANCH  14  18
ENDBRANCH  13  14
ENDBRANCH  12  13
ENDBRANCH   1  12
TORSDOF 4
ENDMDL
MODEL 5
REMARK VINA RESULT:      -7.0      2.881      6.485
REMARK  Name = 
REMARK  4 active torsions:
REMARK  status: ('A' for Active; 'I' for Inactive)
REMARK    1  A    between atoms: C_4  and  O_5
REMARK    2  A    between atoms: O_5  and  C_6
REMARK    3  A    between atoms: C_6  and  C_7
REMARK    4  A    between atoms: C_7  and  N_8
REMARK                            x       y       z     vdW  Elec       q    Type
REMARK                         _______ _______ _______ _____ _____    ______ ____
ROOT
ATOM      1  N   UNL     1       6.117   3.977  18.695  0.00  0.00    +0.000 N 
ATOM      2  C   UNL     1       4.794   3.607  18.814  0.00  0.00    +0.000 A 
ATOM      3  C   UNL     1       4.397   2.784  20.013  0.00  0.00    +0.000 A 
ATOM      4  C   UNL     1       3.110   2.449  20.175  0.00  0.00    +0.000 A 
ATOM      5  C   UNL     1       2.184   2.860  19.201  0.00  0.00    +0.000 A 
ATOM      6  N   UNL     1       0.888   2.708  19.049  0.00  0.00    +0.000 NA
ATOM      7  N   UNL     1       0.577   3.350  17.870  0.00  0.00    +0.000 NA
ATOM      8  N   UNL     1       1.657   3.885  17.311  0.00  0.00    +0.000 NA
ATOM      9  N   UNL     1       2.672   3.585  18.136  0.00  0.00    +0.000 N 
ATOM     10  N   UNL     1       3.941   3.987  17.902  0.00  0.00    +0.000 NA
ATOM     11  H   UNL     1       6.713   3.810  19.499  0.00  0.00    +0.000 HD
ENDROOT
BRANCH   1  12
ATOM     12  C   UNL     1       6.520   5.147  17.916  0.00  0.00    +0.000 C 
BRANCH  12  13
ATOM     13  C   UNL     1       7.369   4.790  16.692  0.00  0.00    +0.000 C 
BRANCH  13  14
ATOM     14  O   UNL     1       6.889   5.579  15.595  0.00  0.00    +0.000 OA
BRANCH  14  18
ATOM     15  C   UNL     1       6.309   3.587  11.987  0.00  0.00    +0.000 A 
ATOM     16  C   UNL     1       5.418   3.446  13.049  0.00  0.00    +0.000 A 
ATOM     17  C   UNL     1       5.650   4.126  14.246  0.00  0.00    +0.000 A 
ATOM     18  C   UNL     1       6.780   4.934  14.395  0.00  0.00    +0.000 A 
ATOM     19  C   UNL     1       7.664   5.081  13.327  0.00  0.00    +0.000 A 
ATOM     20  C   UNL     1       7.428   4.407  12.124  0.00  0.00    +0.000 A 
ENDBRANCH  14  18
ENDBRANCH  13  14
ENDBRANCH  12  13
ENDBRANCH   1  12
TORSDOF 4
ENDMDL
MODEL 6
REMARK VINA RESULT:      -7.0      2.855      6.340
REMARK  Name = 
REMARK  4 active torsions:
REMARK  status: ('A' for Active; 'I' for Inactive)
REMARK    1  A    between atoms: C_4  and  O_5
REMARK    2  A    between atoms: O_5  and  C_6
REMARK    3  A    between atoms: C_6  and  C_7
REMARK    4  A    between atoms: C_7  and  N_8
REMARK                            x       y       z     vdW  Elec       q    Type
REMARK                         _______ _______ _______ _____ _____    ______ ____
ROOT
ATOM      1  N   UNL     1       5.233   5.815  17.871  0.00  0.00    +0.000 N 
ATOM      2  C   UNL     1       4.134   5.137  18.353  0.00  0.00    +0.000 A 
ATOM      3  C   UNL     1       2.824   5.310  17.629  0.00  0.00    +0.000 A 
ATOM      4  C   UNL     1       1.751   4.627  18.051  0.00  0.00    +0.000 A 
ATOM      5  C   UNL     1       1.889   3.793  19.173  0.00  0.00    +0.000 A 
ATOM      6  N   UNL     1       1.070   3.007  19.835  0.00  0.00    +0.000 NA
ATOM      7  N   UNL     1       1.822   2.463  20.852  0.00  0.00    +0.000 NA
ATOM      8  N   UNL     1       3.075   2.902  20.815  0.00  0.00    +0.000 NA
ATOM      9  N   UNL     1       3.131   3.736  19.766  0.00  0.00    +0.000 N 
ATOM     10  N   UNL     1       4.268   4.368  19.399  0.00  0.00    +0.000 NA
ATOM     11  H   UNL     1       5.132   6.265  16.966  0.00  0.00    +0.000 HD
ENDROOT
BRANCH   1  12
ATOM     12  C   UNL     1       6.596   5.357  18.134  0.00  0.00    +0.000 C 
BRANCH  12  13
ATOM     13  C   UNL     1       7.214   4.602  16.953  0.00  0.00    +0.000 C 
BRANCH  13  14
ATOM     14  O   UNL     1       7.250   5.506  15.840  0.00  0.00    +0.000 OA
BRANCH  14  18
ATOM     15  C   UNL     1       6.330   3.776  12.168  0.00  0.00    +0.000 A 
ATOM     16  C   UNL     1       5.570   3.517  13.306  0.00  0.00    +0.000 A 
ATOM     17  C   UNL     1       5.913   4.112  14.522  0.00  0.00    +0.000 A 
ATOM     18  C   UNL     1       7.027   4.952  14.611  0.00  0.00    +0.000 A 
ATOM     19  C   UNL     1       7.779   5.216  13.467  0.00  0.00    +0.000 A 
ATOM     20  C   UNL     1       7.430   4.628  12.247  0.00  0.00    +0.000 A 
ENDBRANCH  14  18
ENDBRANCH  13  14
ENDBRANCH  12  13
ENDBRANCH   1  12
TORSDOF 4
ENDMDL
MODEL 7
REMARK VINA RESULT:      -7.0      1.926      3.416
REMARK  Name = 
REMARK  4 active torsions:
REMARK  status: ('A' for Active; 'I' for Inactive)
REMARK    1  A    between atoms: C_4  and  O_5
REMARK    2  A    between atoms: O_5  and  C_6
REMARK    3  A    between atoms: C_6  and  C_7
REMARK    4  A    between atoms: C_7  and  N_8
REMARK                            x       y       z     vdW  Elec       q    Type
REMARK                         _______ _______ _______ _____ _____    ______ ____
ROOT
ATOM      1  N   UNL     1       3.939   5.986  19.819  0.00  0.00    +0.000 N 
ATOM      2  C   UNL     1       4.832   5.792  18.786  0.00  0.00    +0.000 A 
ATOM      3  C   UNL     1       6.160   5.157  19.111  0.00  0.00    +0.000 A 
ATOM      4  C   UNL     1       7.027   4.917  18.119  0.00  0.00    +0.000 A 
ATOM      5  C   UNL     1       6.669   5.292  16.813  0.00  0.00    +0.000 A 
ATOM      6  N   UNL     1       7.260   5.209  15.642  0.00  0.00    +0.000 NA
ATOM      7  N   UNL     1       6.378   5.765  14.743  0.00  0.00    +0.000 NA
ATOM      8  N   UNL     1       5.269   6.179  15.346  0.00  0.00    +0.000 NA
ATOM      9  N   UNL     1       5.438   5.887  16.644  0.00  0.00    +0.000 N 
ATOM     10  N   UNL     1       4.495   6.148  17.577  0.00  0.00    +0.000 NA
ATOM     11  H   UNL     1       4.165   5.548  20.707  0.00  0.00    +0.000 HD
ENDROOT
BRANCH   1  12
ATOM     12  C   UNL     1       2.501   6.094  19.582  0.00  0.00    +0.000 C 
BRANCH  12  13
ATOM     13  C   UNL     1       1.663   5.351  20.625  0.00  0.00    +0.000 C 
BRANCH  13  14
ATOM     14  O   UNL     1       1.092   4.206  19.978  0.00  0.00    +0.000 OA
BRANCH  14  18
ATOM     15  C   UNL     1       3.747   1.535  18.204  0.00  0.00    +0.000 A 
ATOM     16  C   UNL     1       2.714   2.127  17.479  0.00  0.00    +0.000 A 
ATOM     17  C   UNL     1       1.840   3.014  18.111  0.00  0.00    +0.000 A 
ATOM     18  C   UNL     1       1.981   3.299  19.472  0.00  0.00    +0.000 A 
ATOM     19  C   UNL     1       3.021   2.713  20.191  0.00  0.00    +0.000 A 
ATOM     20  C   UNL     1       3.903   1.831  19.557  0.00  0.00    +0.000 A 
ENDBRANCH  14  18
ENDBRANCH  13  14
ENDBRANCH  12  13
ENDBRANCH   1  12
TORSDOF 4
ENDMDL
MODEL 8
REMARK VINA RESULT:      -7.0      1.506      2.235
REMARK  Name = 
REMARK  4 active torsions:
REMARK  status: ('A' for Active; 'I' for Inactive)
REMARK    1  A    between atoms: C_4  and  O_5
REMARK    2  A    between atoms: O_5  and  C_6
REMARK    3  A    between atoms: C_6  and  C_7
REMARK    4  A    between atoms: C_7  and  N_8
REMARK                            x       y       z     vdW  Elec       q    Type
REMARK                         _______ _______ _______ _____ _____    ______ ____
ROOT
ATOM      1  N   UNL     1       4.897   3.641  19.529  0.00  0.00    +0.000 N 
ATOM      2  C   UNL     1       5.592   4.222  18.490  0.00  0.00    +0.000 A 
ATOM      3  C   UNL     1       6.810   5.045  18.827  0.00  0.00    +0.000 A 
ATOM      4  C   UNL     1       7.528   5.583  17.833  0.00  0.00    +0.000 A 
ATOM      5  C   UNL     1       7.099   5.378  16.511  0.00  0.00    +0.000 A 
ATOM      6  N   UNL     1       7.549   5.752  15.334  0.00  0.00    +0.000 NA
ATOM      7  N   UNL     1       6.666   5.226  14.418  0.00  0.00    +0.000 NA
ATOM      8  N   UNL     1       5.696   4.543  15.016  0.00  0.00    +0.000 NA
ATOM      9  N   UNL     1       5.956   4.630  16.330  0.00  0.00    +0.000 N 
ATOM     10  N   UNL     1       5.184   4.033  17.265  0.00  0.00    +0.000 NA
ATOM     11  H   UNL     1       5.335   3.669  20.444  0.00  0.00    +0.000 HD
ENDROOT
BRANCH   1  12
ATOM     12  C   UNL     1       4.064   2.457  19.329  0.00  0.00    +0.000 C 
BRANCH  12  13
ATOM     13  C   UNL     1       2.672   2.590  19.953  0.00  0.00    +0.000 C 
BRANCH  13  14
ATOM     14  O   UNL     1       1.861   3.334  19.034  0.00  0.00    +0.000 OA
BRANCH  14  18
ATOM     15  C   UNL     1       2.144   7.450  19.582  0.00  0.00    +0.000 A 
ATOM     16  C   UNL     1       1.848   6.593  20.640  0.00  0.00    +0.000 A 
ATOM     17  C   UNL     1       1.756   5.218  20.415  0.00  0.00    +0.000 A 
ATOM     18  C   UNL     1       1.939   4.695  19.132  0.00  0.00    +0.000 A 
ATOM     19  C   UNL     1       2.246   5.555  18.078  0.00  0.00    +0.000 A 
ATOM     20  C   UNL     1       2.347   6.932  18.304  0.00  0.00    +0.000 A 
ENDBRANCH  14  18
ENDBRANCH  13  14
ENDBRANCH  12  13
ENDBRANCH   1  12
TORSDOF 4
ENDMDL
MODEL 9
REMARK VINA RESULT:      -7.0      0.626      1.271
REMARK  Name = 
REMARK  4 active torsions:
REMARK  status: ('A' for Active; 'I' for Inactive)
REMARK    1  A    between atoms: C_4  and  O_5
REMARK    2  A    between atoms: O_5  and  C_6
REMARK    3  A    between atoms: C_6  and  C_7
REMARK    4  A    between atoms: C_7  and  N_8
REMARK                            x       y       z     vdW  Elec       q    Type
REMARK                         _______ _______ _______ _____ _____    ______ ____
ROOT
ATOM      1  N   UNL     1       4.385   2.754  17.962  0.00  0.00    +0.000 N 
ATOM      2  C   UNL     1       5.141   3.871  17.679  0.00  0.00    +0.000 A 
ATOM      3  C   UNL     1       4.934   4.546  16.347  0.00  0.00    +0.000 A 
ATOM      4  C   UNL     1       5.624   5.659  16.066  0.00  0.00    +0.000 A 
ATOM      5  C   UNL     1       6.538   6.138  17.021  0.00  0.00    +0.000 A 
ATOM      6  N   UNL     1       7.355   7.166  17.071  0.00  0.00    +0.000 NA
ATOM      7  N   UNL     1       7.988   7.075  18.290  0.00  0.00    +0.000 NA
ATOM      8  N   UNL     1       7.570   6.016  18.975  0.00  0.00    +0.000 NA
ATOM      9  N   UNL     1       6.659   5.421  18.191  0.00  0.00    +0.000 N 
ATOM     10  N   UNL     1       5.992   4.307  18.568  0.00  0.00    +0.000 NA
ATOM     11  H   UNL     1       3.622   2.545  17.325  0.00  0.00    +0.000 HD
ENDROOT
BRANCH   1  12
ATOM     12  C   UNL     1       4.114   2.337  19.336  0.00  0.00    +0.000 C 
BRANCH  12  13
ATOM     13  C   UNL     1       3.208   3.312  20.093  0.00  0.00    +0.000 C 
BRANCH  13  14
ATOM     14  O   UNL     1       2.345   3.930  19.128  0.00  0.00    +0.000 OA
BRANCH  14  18
ATOM     15  C   UNL     1       1.912   8.027  19.717  0.00  0.00    +0.000 A 
ATOM     16  C   UNL     1       1.668   7.114  20.741  0.00  0.00    +0.000 A 
ATOM     17  C   UNL     1       1.819   5.746  20.503  0.00  0.00    +0.000 A 
ATOM     18  C   UNL     1       2.194   5.284  19.238  0.00  0.00    +0.000 A 
ATOM     19  C   UNL     1       2.447   6.201  18.219  0.00  0.00    +0.000 A 
ATOM     20  C   UNL     1       2.305   7.572  18.460  0.00  0.00    +0.000 A 
ENDBRANCH  14  18
ENDBRANCH  13  14
ENDBRANCH  12  13
ENDBRANCH   1  12
TORSDOF 4
ENDMDL
