MODEL 1
REMARK VINA RESULT:      -5.8      0.000      0.000
REMARK  Name = 
REMARK  1 active torsions:
REMARK  status: ('A' for Active; 'I' for Inactive)
REMARK    1  A    between atoms: C_1  and  N_2
REMARK                            x       y       z     vdW  Elec       q    Type
REMARK                         _______ _______ _______ _____ _____    ______ ____
ROOT
ATOM      1  C   UNL     1       1.433  11.223  18.637  0.00  0.00    +0.000 C 
ATOM      2  N   UNL     1       0.119  11.309  19.256  0.00  0.00    +0.000 NA
ATOM      3  C   UNL     1      -0.920  10.587  18.507  0.00  0.00    +0.000 C 
ATOM      4  C   UNL     1      -2.012  11.576  18.072  0.00  0.00    +0.000 C 
ATOM      5  O   UNL     1      -3.287  10.927  18.090  0.00  0.00    +0.000 OA
ATOM      6  C   UNL     1      -4.366  11.856  18.246  0.00  0.00    +0.000 C 
ATOM      7  C   UNL     1      -5.071  11.615  19.587  0.00  0.00    +0.000 C 
ATOM      8  O   UNL     1      -5.073  12.837  20.344  0.00  0.00    +0.000 OA
ATOM      9  C   UNL     1      -5.758  12.719  21.527  0.00  0.00    +0.000 A 
ATOM     10  C   UNL     1      -7.128  12.430  21.541  0.00  0.00    +0.000 A 
ATOM     11  C   UNL     1      -7.824  12.379  22.749  0.00  0.00    +0.000 A 
ATOM     12  C   UNL     1      -7.162  12.641  23.949  0.00  0.00    +0.000 A 
ATOM     13  C   UNL     1      -5.803  12.958  23.938  0.00  0.00    +0.000 A 
ATOM     14  C   UNL     1      -5.097  12.986  22.732  0.00  0.00    +0.000 A 
ATOM     15  O   UNL     1      -3.780  13.374  22.716  0.00  0.00    +0.000 OA
ATOM     16  C   UNL     1      -2.927  12.395  23.330  0.00  0.00    +0.000 C 
ATOM     17  C   UNL     1      -1.482  12.906  23.294  0.00  0.00    +0.000 C 
ATOM     18  O   UNL     1      -0.608  11.882  22.802  0.00  0.00    +0.000 OA
ATOM     19  C   UNL     1       0.000  12.224  21.551  0.00  0.00    +0.000 C 
ATOM     20  C   UNL     1       0.132  10.961  20.687  0.00  0.00    +0.000 C 
ENDROOT
TORSDOF 0
ENDMDL
MODEL 2
REMARK VINA RESULT:      -5.6      1.178      3.752
REMARK  Name = 
REMARK  1 active torsions:
REMARK  status: ('A' for Active; 'I' for Inactive)
REMARK    1  A    between atoms: C_1  and  N_2
REMARK                            x       y       z     vdW  Elec       q    Type
REMARK                         _______ _______ _______ _____ _____    ______ ____
ROOT
ATOM      1  C   UNL     1       0.308   9.788  18.165  0.00  0.00    +0.000 C 
ATOM      2  N   UNL     1      -0.683  10.565  18.895  0.00  0.00    +0.000 NA
ATOM      3  C   UNL     1      -0.096  11.389  19.962  0.00  0.00    +0.000 C 
ATOM      4  C   UNL     1      -0.693  10.969  21.314  0.00  0.00    +0.000 C 
ATOM      5  O   UNL     1      -0.814  12.112  22.165  0.00  0.00    +0.000 OA
ATOM      6  C   UNL     1      -1.823  11.937  23.168  0.00  0.00    +0.000 C 
ATOM      7  C   UNL     1      -2.967  12.932  22.936  0.00  0.00    +0.000 C 
ATOM      8  O   UNL     1      -4.203  12.209  22.818  0.00  0.00    +0.000 OA
ATOM      9  C   UNL     1      -5.286  13.041  22.686  0.00  0.00    +0.000 A 
ATOM     10  C   UNL     1      -5.634  13.938  23.703  0.00  0.00    +0.000 A 
ATOM     11  C   UNL     1      -6.776  14.731  23.582  0.00  0.00    +0.000 A 
ATOM     12  C   UNL     1      -7.592  14.613  22.457  0.00  0.00    +0.000 A 
ATOM     13  C   UNL     1      -7.266  13.700  21.453  0.00  0.00    +0.000 A 
ATOM     14  C   UNL     1      -6.110  12.922  21.559  0.00  0.00    +0.000 A 
ATOM     15  O   UNL     1      -5.833  11.969  20.610  0.00  0.00    +0.000 OA
ATOM     16  C   UNL     1      -5.465  12.559  19.353  0.00  0.00    +0.000 C 
ATOM     17  C   UNL     1      -5.194  11.438  18.342  0.00  0.00    +0.000 C 
ATOM     18  O   UNL     1      -3.953  11.673  17.666  0.00  0.00    +0.000 OA
ATOM     19  C   UNL     1      -2.966  10.674  17.951  0.00  0.00    +0.000 C 
ATOM     20  C   UNL     1      -1.580  11.331  18.014  0.00  0.00    +0.000 C 
ENDROOT
TORSDOF 0
ENDMDL
MODEL 3
REMARK VINA RESULT:      -5.5      2.501      6.331
REMARK  Name = 
REMARK  1 active torsions:
REMARK  status: ('A' for Active; 'I' for Inactive)
REMARK    1  A    between atoms: C_1  and  N_2
REMARK                            x       y       z     vdW  Elec       q    Type
REMARK                         _______ _______ _______ _____ _____    ______ ____
ROOT
ATOM      1  C   UNL     1      -6.875  13.440  17.089  0.00  0.00    +0.000 C 
ATOM      2  N   UNL     1      -5.863  12.812  17.926  0.00  0.00    +0.000 NA
ATOM      3  C   UNL     1      -6.206  12.828  19.355  0.00  0.00    +0.000 C 
ATOM      4  C   UNL     1      -5.128  13.603  20.127  0.00  0.00    +0.000 C 
ATOM      5  O   UNL     1      -4.948  13.020  21.422  0.00  0.00    +0.000 OA
ATOM      6  C   UNL     1      -3.650  13.293  21.964  0.00  0.00    +0.000 C 
ATOM      7  C   UNL     1      -2.857  11.988  22.100  0.00  0.00    +0.000 C 
ATOM      8  O   UNL     1      -1.617  12.113  21.384  0.00  0.00    +0.000 OA
ATOM      9  C   UNL     1      -0.817  11.008  21.526  0.00  0.00    +0.000 A 
ATOM     10  C   UNL     1      -0.327  10.629  22.782  0.00  0.00    +0.000 A 
ATOM     11  C   UNL     1       0.540   9.541  22.900  0.00  0.00    +0.000 A 
ATOM     12  C   UNL     1       0.943   8.842  21.763  0.00  0.00    +0.000 A 
ATOM     13  C   UNL     1       0.481   9.233  20.505  0.00  0.00    +0.000 A 
ATOM     14  C   UNL     1      -0.406  10.307  20.385  0.00  0.00    +0.000 A 
ATOM     15  O   UNL     1      -0.798  10.739  19.142  0.00  0.00    +0.000 OA
ATOM     16  C   UNL     1      -1.666   9.794  18.497  0.00  0.00    +0.000 C 
ATOM     17  C   UNL     1      -2.041  10.333  17.111  0.00  0.00    +0.000 C 
ATOM     18  O   UNL     1      -3.457  10.240  16.913  0.00  0.00    +0.000 OA
ATOM     19  C   UNL     1      -4.087  11.521  16.788  0.00  0.00    +0.000 C 
ATOM     20  C   UNL     1      -5.471  11.475  17.451  0.00  0.00    +0.000 C 
ENDROOT
TORSDOF 0
ENDMDL
MODEL 4
REMARK VINA RESULT:      -5.5      1.942      4.446
REMARK  Name = 
REMARK  1 active torsions:
REMARK  status: ('A' for Active; 'I' for Inactive)
REMARK    1  A    between atoms: C_1  and  N_2
REMARK                            x       y       z     vdW  Elec       q    Type
REMARK                         _______ _______ _______ _____ _____    ______ ____
ROOT
ATOM      1  C   UNL     1      -3.437   9.743  15.647  0.00  0.00    +0.000 C 
ATOM      2  N   UNL     1      -3.292  10.523  16.867  0.00  0.00    +0.000 NA
ATOM      3  C   UNL     1      -1.967  11.145  16.999  0.00  0.00    +0.000 C 
ATOM      4  C   UNL     1      -1.288  10.626  18.276  0.00  0.00    +0.000 C 
ATOM      5  O   UNL     1      -0.490  11.663  18.855  0.00  0.00    +0.000 OA
ATOM      6  C   UNL     1      -0.289  11.472  20.260  0.00  0.00    +0.000 C 
ATOM      7  C   UNL     1      -0.971  12.601  21.042  0.00  0.00    +0.000 C 
ATOM      8  O   UNL     1      -1.890  12.031  21.989  0.00  0.00    +0.000 OA
ATOM      9  C   UNL     1      -2.482  12.980  22.782  0.00  0.00    +0.000 A 
ATOM     10  C   UNL     1      -1.720  13.778  23.644  0.00  0.00    +0.000 A 
ATOM     11  C   UNL     1      -2.344  14.693  24.493  0.00  0.00    +0.000 A 
ATOM     12  C   UNL     1      -3.735  14.800  24.504  0.00  0.00    +0.000 A 
ATOM     13  C   UNL     1      -4.502  13.987  23.667  0.00  0.00    +0.000 A 
ATOM     14  C   UNL     1      -3.879  13.086  22.799  0.00  0.00    +0.000 A 
ATOM     15  O   UNL     1      -4.636  12.233  22.034  0.00  0.00    +0.000 OA
ATOM     16  C   UNL     1      -5.342  12.931  20.996  0.00  0.00    +0.000 C 
ATOM     17  C   UNL     1      -6.180  11.920  20.202  0.00  0.00    +0.000 C 
ATOM     18  O   UNL     1      -5.975  12.107  18.797  0.00  0.00    +0.000 OA
ATOM     19  C   UNL     1      -5.341  10.983  18.173  0.00  0.00    +0.000 C 
ATOM     20  C   UNL     1      -4.392  11.480  17.073  0.00  0.00    +0.000 C 
ENDROOT
TORSDOF 0
ENDMDL
MODEL 5
REMARK VINA RESULT:      -5.4      1.803      4.327
REMARK  Name = 
REMARK  1 active torsions:
REMARK  status: ('A' for Active; 'I' for Inactive)
REMARK    1  A    between atoms: C_1  and  N_2
REMARK                            x       y       z     vdW  Elec       q    Type
REMARK                         _______ _______ _______ _____ _____    ______ ____
ROOT
ATOM      1  C   UNL     1       1.068  10.121  21.648  0.00  0.00    +0.000 C 
ATOM      2  N   UNL     1      -0.171  10.749  21.214  0.00  0.00    +0.000 NA
ATOM      3  C   UNL     1      -0.547  11.910  22.033  0.00  0.00    +0.000 C 
ATOM      4  C   UNL     1      -1.916  11.652  22.681  0.00  0.00    +0.000 C 
ATOM      5  O   UNL     1      -2.643  12.880  22.779  0.00  0.00    +0.000 OA
ATOM      6  C   UNL     1      -4.059  12.668  22.837  0.00  0.00    +0.000 C 
ATOM      7  C   UNL     1      -4.725  13.251  21.585  0.00  0.00    +0.000 C 
ATOM      8  O   UNL     1      -5.484  12.221  20.931  0.00  0.00    +0.000 OA
ATOM      9  C   UNL     1      -6.174  12.689  19.842  0.00  0.00    +0.000 A 
ATOM     10  C   UNL     1      -7.171  13.662  19.984  0.00  0.00    +0.000 A 
ATOM     11  C   UNL     1      -7.909  14.080  18.875  0.00  0.00    +0.000 A 
ATOM     12  C   UNL     1      -7.675  13.510  17.624  0.00  0.00    +0.000 A 
ATOM     13  C   UNL     1      -6.702  12.519  17.483  0.00  0.00    +0.000 A 
ATOM     14  C   UNL     1      -5.944  12.115  18.585  0.00  0.00    +0.000 A 
ATOM     15  O   UNL     1      -5.043  11.086  18.461  0.00  0.00    +0.000 OA
ATOM     16  C   UNL     1      -3.908  11.464  17.667  0.00  0.00    +0.000 C 
ATOM     17  C   UNL     1      -2.962  10.262  17.554  0.00  0.00    +0.000 C 
ATOM     18  O   UNL     1      -1.618  10.663  17.848  0.00  0.00    +0.000 OA
ATOM     19  C   UNL     1      -1.099  10.046  19.032  0.00  0.00    +0.000 C 
ATOM     20  C   UNL     1      -0.194  11.042  19.770  0.00  0.00    +0.000 C 
ENDROOT
TORSDOF 0
ENDMDL
MODEL 6
REMARK VINA RESULT:      -5.3      2.134      6.967
REMARK  Name = 
REMARK  1 active torsions:
REMARK  status: ('A' for Active; 'I' for Inactive)
REMARK    1  A    between atoms: C_1  and  N_2
REMARK                            x       y       z     vdW  Elec       q    Type
REMARK                         _______ _______ _______ _____ _____    ______ ____
ROOT
ATOM      1  C   UNL     1      -7.917  13.724  22.113  0.00  0.00    +0.000 C 
ATOM      2  N   UNL     1      -6.658  13.107  21.721  0.00  0.00    +0.000 NA
ATOM      3  C   UNL     1      -5.806  12.757  22.867  0.00  0.00    +0.000 C 
ATOM      4  C   UNL     1      -4.474  13.514  22.759  0.00  0.00    +0.000 C 
ATOM      5  O   UNL     1      -3.414  12.704  23.277  0.00  0.00    +0.000 OA
ATOM      6  C   UNL     1      -2.140  13.065  22.731  0.00  0.00    +0.000 C 
ATOM      7  C   UNL     1      -1.590  11.911  21.884  0.00  0.00    +0.000 C 
ATOM      8  O   UNL     1      -1.309  12.391  20.559  0.00  0.00    +0.000 OA
ATOM      9  C   UNL     1      -0.739  11.430  19.763  0.00  0.00    +0.000 A 
ATOM     10  C   UNL     1       0.507  10.875  20.082  0.00  0.00    +0.000 A 
ATOM     11  C   UNL     1       1.103   9.947  19.228  0.00  0.00    +0.000 A 
ATOM     12  C   UNL     1       0.473   9.587  18.037  0.00  0.00    +0.000 A 
ATOM     13  C   UNL     1      -0.755  10.158  17.700  0.00  0.00    +0.000 A 
ATOM     14  C   UNL     1      -1.368  11.070  18.564  0.00  0.00    +0.000 A 
ATOM     15  O   UNL     1      -2.536  11.689  18.195  0.00  0.00    +0.000 OA
ATOM     16  C   UNL     1      -3.644  10.775  18.181  0.00  0.00    +0.000 C 
ATOM     17  C   UNL     1      -4.903  11.531  17.739  0.00  0.00    +0.000 C 
ATOM     18  O   UNL     1      -5.986  11.250  18.634  0.00  0.00    +0.000 OA
ATOM     19  C   UNL     1      -6.421  12.405  19.362  0.00  0.00    +0.000 C 
ATOM     20  C   UNL     1      -6.833  11.987  20.780  0.00  0.00    +0.000 C 
ENDROOT
TORSDOF 0
ENDMDL
MODEL 7
REMARK VINA RESULT:      -5.3      9.009     13.395
REMARK  Name = 
REMARK  1 active torsions:
REMARK  status: ('A' for Active; 'I' for Inactive)
REMARK    1  A    between atoms: C_1  and  N_2
REMARK                            x       y       z     vdW  Elec       q    Type
REMARK                         _______ _______ _______ _____ _____    ______ ____
ROOT
ATOM      1  C   UNL     1       3.350  16.262  21.844  0.00  0.00    +0.000 C 
ATOM      2  N   UNL     1       4.541  15.538  21.424  0.00  0.00    +0.000 NA
ATOM      3  C   UNL     1       4.663  14.214  22.052  0.00  0.00    +0.000 C 
ATOM      4  C   UNL     1       5.965  14.156  22.865  0.00  0.00    +0.000 C 
ATOM      5  O   UNL     1       6.511  12.835  22.808  0.00  0.00    +0.000 OA
ATOM      6  C   UNL     1       7.925  12.823  23.040  0.00  0.00    +0.000 C 
ATOM      7  C   UNL     1       8.657  12.364  21.773  0.00  0.00    +0.000 C 
ATOM      8  O   UNL     1       9.616  13.365  21.394  0.00  0.00    +0.000 OA
ATOM      9  C   UNL     1      10.366  12.988  20.309  0.00  0.00    +0.000 A 
ATOM     10  C   UNL     1      11.205  11.868  20.367  0.00  0.00    +0.000 A 
ATOM     11  C   UNL     1      12.012  11.536  19.278  0.00  0.00    +0.000 A 
ATOM     12  C   UNL     1      12.006  12.335  18.134  0.00  0.00    +0.000 A 
ATOM     13  C   UNL     1      11.193  13.468  18.082  0.00  0.00    +0.000 A 
ATOM     14  C   UNL     1      10.366  13.790  19.161  0.00  0.00    +0.000 A 
ATOM     15  O   UNL     1       9.627  14.947  19.139  0.00  0.00    +0.000 OA
ATOM     16  C   UNL     1       8.556  14.879  18.184  0.00  0.00    +0.000 C 
ATOM     17  C   UNL     1       7.793  16.210  18.201  0.00  0.00    +0.000 C 
ATOM     18  O   UNL     1       6.383  15.968  18.286  0.00  0.00    +0.000 OA
ATOM     19  C   UNL     1       5.809  16.450  19.507  0.00  0.00    +0.000 C 
ATOM     20  C   UNL     1       4.700  15.490  19.961  0.00  0.00    +0.000 C 
ENDROOT
TORSDOF 0
ENDMDL
MODEL 8
REMARK VINA RESULT:      -5.3      1.981      3.093
REMARK  Name = 
REMARK  1 active torsions:
REMARK  status: ('A' for Active; 'I' for Inactive)
REMARK    1  A    between atoms: C_1  and  N_2
REMARK                            x       y       z     vdW  Elec       q    Type
REMARK                         _______ _______ _______ _____ _____    ______ ____
ROOT
ATOM      1  C   UNL     1      -2.669  10.422  14.981  0.00  0.00    +0.000 C 
ATOM      2  N   UNL     1      -3.085  10.675  16.353  0.00  0.00    +0.000 NA
ATOM      3  C   UNL     1      -4.502  10.368  16.592  0.00  0.00    +0.000 C 
ATOM      4  C   UNL     1      -5.228  11.642  17.049  0.00  0.00    +0.000 C 
ATOM      5  O   UNL     1      -6.251  11.304  17.991  0.00  0.00    +0.000 OA
ATOM      6  C   UNL     1      -6.579  12.401  18.852  0.00  0.00    +0.000 C 
ATOM      7  C   UNL     1      -6.192  12.063  20.297  0.00  0.00    +0.000 C 
ATOM      8  O   UNL     1      -5.308  13.079  20.798  0.00  0.00    +0.000 OA
ATOM      9  C   UNL     1      -4.980  12.884  22.116  0.00  0.00    +0.000 A 
ATOM     10  C   UNL     1      -5.961  12.913  23.114  0.00  0.00    +0.000 A 
ATOM     11  C   UNL     1      -5.603  12.779  24.457  0.00  0.00    +0.000 A 
ATOM     12  C   UNL     1      -4.261  12.643  24.812  0.00  0.00    +0.000 A 
ATOM     13  C   UNL     1      -3.276  12.643  23.823  0.00  0.00    +0.000 A 
ATOM     14  C   UNL     1      -3.632  12.752  22.476  0.00  0.00    +0.000 A 
ATOM     15  O   UNL     1      -2.659  12.830  21.511  0.00  0.00    +0.000 OA
ATOM     16  C   UNL     1      -1.965  11.583  21.350  0.00  0.00    +0.000 C 
ATOM     17  C   UNL     1      -0.882  11.755  20.277  0.00  0.00    +0.000 C 
ATOM     18  O   UNL     1      -0.950  10.680  19.332  0.00  0.00    +0.000 OA
ATOM     19  C   UNL     1      -1.309  11.119  18.016  0.00  0.00    +0.000 C 
ATOM     20  C   UNL     1      -2.194  10.056  17.349  0.00  0.00    +0.000 C 
ENDROOT
TORSDOF 0
ENDMDL
MODEL 9
REMARK VINA RESULT:      -5.3      2.059      4.289
REMARK  Name = 
REMARK  1 active torsions:
REMARK  status: ('A' for Active; 'I' for Inactive)
REMARK    1  A    between atoms: C_1  and  N_2
REMARK                            x       y       z     vdW  Elec       q    Type
REMARK                         _______ _______ _______ _____ _____    ______ ____
ROOT
ATOM      1  C   UNL     1      -3.081   9.800  15.702  0.00  0.00    +0.000 C 
ATOM      2  N   UNL     1      -3.275  10.638  16.877  0.00  0.00    +0.000 NA
ATOM      3  C   UNL     1      -2.120  11.501  17.166  0.00  0.00    +0.000 C 
ATOM      4  C   UNL     1      -1.573  11.166  18.561  0.00  0.00    +0.000 C 
ATOM      5  O   UNL     1      -1.076  12.354  19.184  0.00  0.00    +0.000 OA
ATOM      6  C   UNL     1      -1.071  12.256  20.614  0.00  0.00    +0.000 C 
ATOM      7  C   UNL     1      -2.061  13.266  21.208  0.00  0.00    +0.000 C 
ATOM      8  O   UNL     1      -3.002  12.569  22.042  0.00  0.00    +0.000 OA
ATOM      9  C   UNL     1      -3.874  13.420  22.672  0.00  0.00    +0.000 A 
ATOM     10  C   UNL     1      -3.414  14.376  23.585  0.00  0.00    +0.000 A 
ATOM     11  C   UNL     1      -4.319  15.190  24.268  0.00  0.00    +0.000 A 
ATOM     12  C   UNL     1      -5.690  15.035  24.063  0.00  0.00    +0.000 A 
ATOM     13  C   UNL     1      -6.155  14.063  23.176  0.00  0.00    +0.000 A 
ATOM     14  C   UNL     1      -5.251  13.263  22.472  0.00  0.00    +0.000 A 
ATOM     15  O   UNL     1      -5.711  12.256  21.660  0.00  0.00    +0.000 OA
ATOM     16  C   UNL     1      -6.355  12.772  20.484  0.00  0.00    +0.000 C 
ATOM     17  C   UNL     1      -6.861  11.594  19.641  0.00  0.00    +0.000 C 
ATOM     18  O   UNL     1      -6.471  11.763  18.273  0.00  0.00    +0.000 OA
ATOM     19  C   UNL     1      -5.555  10.756  17.827  0.00  0.00    +0.000 C 
ATOM     20  C   UNL     1      -4.546  11.380  16.852  0.00  0.00    +0.000 C 
ENDROOT
TORSDOF 0
ENDMDL
