MODEL 1
REMARK VINA RESULT:      -8.1      0.000      0.000
REMARK  Name = 
REMARK  8 active torsions:
REMARK  status: ('A' for Active; 'I' for Inactive)
REMARK    1  A    between atoms: C_1  and  C_2
REMARK    2  A    between atoms: C_2  and  N_3
REMARK    3  A    between atoms: C_2  and  C_19
REMARK    4  A    between atoms: C_8  and  N_9
REMARK    5  A    between atoms: C_14  and  C_15
REMARK    6  A    between atoms: C_15  and  C_16
REMARK    7  A    between atoms: C_15  and  O_17
REMARK    8  A    between atoms: C_21  and  C_22
REMARK                            x       y       z     vdW  Elec       q    Type
REMARK                         _______ _______ _______ _____ _____    ______ ____
ROOT
ATOM      1  N   UNL     1       0.960  10.717  20.796  0.00  0.00    +0.000 N 
ATOM      2  C   UNL     1       0.144  11.528  20.028  0.00  0.00    +0.000 A 
ATOM      3  N   UNL     1       0.782  12.547  19.441  0.00  0.00    +0.000 NA
ATOM      4  C   UNL     1       0.056  13.354  18.651  0.00  0.00    +0.000 A 
ATOM      5  C   UNL     1      -1.270  13.145  18.387  0.00  0.00    +0.000 A 
ATOM      6  C   UNL     1      -1.845  12.094  19.065  0.00  0.00    +0.000 A 
ATOM      7  N   UNL     1      -1.169  11.303  19.923  0.00  0.00    +0.000 NA
ATOM      8  H   UNL     1       1.889  10.978  20.472  0.00  0.00    +0.000 HD
ENDROOT
BRANCH   6   9
ATOM      9  N   UNL     1      -3.227  11.919  18.954  0.00  0.00    +0.000 N 
ATOM     10  C   UNL     1      -4.109  12.402  19.893  0.00  0.00    +0.000 C 
ATOM     11  O   UNL     1      -3.854  12.831  21.005  0.00  0.00    +0.000 OA
ATOM     12  O   UNL     1      -5.379  12.363  19.382  0.00  0.00    +0.000 OA
ATOM     13  C   UNL     1      -5.337  11.647  18.141  0.00  0.00    +0.000 C 
ATOM     14  C   UNL     1      -3.883  11.673  17.701  0.00  0.00    +0.000 C 
BRANCH  14  15
ATOM     15  C   UNL     1      -3.435  10.336  17.056  0.00  0.00    +0.000 C 
ATOM     16  C   UNL     1      -2.544  10.508  15.836  0.00  0.00    +0.000 C 
BRANCH  15  17
ATOM     17  O   UNL     1      -2.709   9.499  17.961  0.00  0.00    +0.000 OA
ATOM     18  H   UNL     1      -3.024   8.578  17.878  0.00  0.00    +0.000 HD
ENDBRANCH  15  17
ENDBRANCH  14  15
ENDBRANCH   6   9
BRANCH   1  20
ATOM     19  C   UNL     1       1.201   8.630  22.051  0.00  0.00    +0.000 C 
ATOM     20  C   UNL     1       0.724   9.270  20.741  0.00  0.00    +0.000 C 
BRANCH  20  21
ATOM     21  C   UNL     1       1.494   8.655  19.611  0.00  0.00    +0.000 A 
ATOM     22  C   UNL     1       2.225   7.499  19.513  0.00  0.00    +0.000 A 
ATOM     23  C   UNL     1       2.721   7.478  18.186  0.00  0.00    +0.000 A 
ATOM     24  N   UNL     1       2.263   8.543  17.510  0.00  0.00    +0.000 NA
ATOM     25  O   UNL     1       1.506   9.286  18.407  0.00  0.00    +0.000 OA
BRANCH  23  26
ATOM     26  C   UNL     1       3.588   6.439  17.627  0.00  0.00    +0.000 A 
ATOM     27  C   UNL     1       4.778   6.860  16.995  0.00  0.00    +0.000 A 
ATOM     28  C   UNL     1       5.594   5.958  16.312  0.00  0.00    +0.000 A 
ATOM     29  C   UNL     1       5.243   4.616  16.269  0.00  0.00    +0.000 A 
ATOM     30 CL   UNL     1       6.219   3.511  15.385  0.00  0.00    +0.000 Cl
ATOM     31  C   UNL     1       4.095   4.167  16.918  0.00  0.00    +0.000 A 
ATOM     32  C   UNL     1       3.263   5.072  17.594  0.00  0.00    +0.000 A 
ATOM     33 CL   UNL     1       1.826   4.415  18.293  0.00  0.00    +0.000 Cl
ENDBRANCH  23  26
ENDBRANCH  20  21
ENDBRANCH   1  20
TORSDOF 6
ENDMDL
MODEL 2
REMARK VINA RESULT:      -7.8      3.921      9.566
REMARK  Name = 
REMARK  8 active torsions:
REMARK  status: ('A' for Active; 'I' for Inactive)
REMARK    1  A    between atoms: C_1  and  C_2
REMARK    2  A    between atoms: C_2  and  N_3
REMARK    3  A    between atoms: C_2  and  C_19
REMARK    4  A    between atoms: C_8  and  N_9
REMARK    5  A    between atoms: C_14  and  C_15
REMARK    6  A    between atoms: C_15  and  C_16
REMARK    7  A    between atoms: C_15  and  O_17
REMARK    8  A    between atoms: C_21  and  C_22
REMARK                            x       y       z     vdW  Elec       q    Type
REMARK                         _______ _______ _______ _____ _____    ______ ____
ROOT
ATOM      1  N   UNL     1       1.879   7.754  19.428  0.00  0.00    +0.000 N 
ATOM      2  C   UNL     1       2.612   6.582  19.484  0.00  0.00    +0.000 A 
ATOM      3  N   UNL     1       2.080   5.642  20.274  0.00  0.00    +0.000 NA
ATOM      4  C   UNL     1       2.722   4.465  20.346  0.00  0.00    +0.000 A 
ATOM      5  C   UNL     1       3.844   4.180  19.617  0.00  0.00    +0.000 A 
ATOM      6  C   UNL     1       4.335   5.222  18.863  0.00  0.00    +0.000 A 
ATOM      7  N   UNL     1       3.762   6.442  18.818  0.00  0.00    +0.000 NA
ATOM      8  H   UNL     1       0.979   7.463  19.804  0.00  0.00    +0.000 HD
ENDROOT
BRANCH   6   9
ATOM      9  N   UNL     1       5.558   5.042  18.213  0.00  0.00    +0.000 N 
ATOM     10  C   UNL     1       6.761   5.091  18.879  0.00  0.00    +0.000 C 
ATOM     11  O   UNL     1       6.971   5.489  20.012  0.00  0.00    +0.000 OA
ATOM     12  O   UNL     1       7.745   4.580  18.074  0.00  0.00    +0.000 OA
ATOM     13  C   UNL     1       7.189   4.376  16.769  0.00  0.00    +0.000 C 
ATOM     14  C   UNL     1       5.682   4.345  16.964  0.00  0.00    +0.000 C 
BRANCH  14  15
ATOM     15  C   UNL     1       4.921   5.057  15.817  0.00  0.00    +0.000 C 
ATOM     16  C   UNL     1       5.275   6.528  15.662  0.00  0.00    +0.000 C 
BRANCH  15  17
ATOM     17  O   UNL     1       5.157   4.457  14.540  0.00  0.00    +0.000 OA
ATOM     18  H   UNL     1       5.881   3.805  14.614  0.00  0.00    +0.000 HD
ENDBRANCH  15  17
ENDBRANCH  14  15
ENDBRANCH   6   9
BRANCH   1  20
ATOM     19  C   UNL     1       3.095   9.103  17.787  0.00  0.00    +0.000 C 
ATOM     20  C   UNL     1       1.764   8.421  18.126  0.00  0.00    +0.000 C 
BRANCH  20  21
ATOM     21  C   UNL     1       0.695   9.472  18.169  0.00  0.00    +0.000 A 
ATOM     22  C   UNL     1      -0.648   9.435  17.891  0.00  0.00    +0.000 A 
ATOM     23  C   UNL     1      -1.114  10.754  18.108  0.00  0.00    +0.000 A 
ATOM     24  N   UNL     1      -0.108  11.528  18.545  0.00  0.00    +0.000 NA
ATOM     25  O   UNL     1       1.026  10.727  18.570  0.00  0.00    +0.000 OA
BRANCH  23  26
ATOM     26  C   UNL     1      -2.492  11.205  17.904  0.00  0.00    +0.000 A 
ATOM     27  C   UNL     1      -3.153  11.786  19.008  0.00  0.00    +0.000 A 
ATOM     28  C   UNL     1      -4.508  12.116  18.950  0.00  0.00    +0.000 A 
ATOM     29  C   UNL     1      -5.217  11.889  17.778  0.00  0.00    +0.000 A 
ATOM     30 CL   UNL     1      -6.897  12.246  17.721  0.00  0.00    +0.000 Cl
ATOM     31  C   UNL     1      -4.579  11.354  16.661  0.00  0.00    +0.000 A 
ATOM     32  C   UNL     1      -3.221  11.007  16.719  0.00  0.00    +0.000 A 
ATOM     33 CL   UNL     1      -2.557  10.278  15.299  0.00  0.00    +0.000 Cl
ENDBRANCH  23  26
ENDBRANCH  20  21
ENDBRANCH   1  20
TORSDOF 6
ENDMDL
MODEL 3
REMARK VINA RESULT:      -7.8      2.002      3.205
REMARK  Name = 
REMARK  8 active torsions:
REMARK  status: ('A' for Active; 'I' for Inactive)
REMARK    1  A    between atoms: C_1  and  C_2
REMARK    2  A    between atoms: C_2  and  N_3
REMARK    3  A    between atoms: C_2  and  C_19
REMARK    4  A    between atoms: C_8  and  N_9
REMARK    5  A    between atoms: C_14  and  C_15
REMARK    6  A    between atoms: C_15  and  C_16
REMARK    7  A    between atoms: C_15  and  O_17
REMARK    8  A    between atoms: C_21  and  C_22
REMARK                            x       y       z     vdW  Elec       q    Type
REMARK                         _______ _______ _______ _____ _____    ______ ____
ROOT
ATOM      1  N   UNL     1       0.931  11.104  20.970  0.00  0.00    +0.000 N 
ATOM      2  C   UNL     1       0.031  12.150  20.893  0.00  0.00    +0.000 A 
ATOM      3  N   UNL     1       0.524  13.255  20.320  0.00  0.00    +0.000 NA
ATOM      4  C   UNL     1      -0.310  14.298  20.180  0.00  0.00    +0.000 A 
ATOM      5  C   UNL     1      -1.628  14.256  20.544  0.00  0.00    +0.000 A 
ATOM      6  C   UNL     1      -2.030  13.091  21.157  0.00  0.00    +0.000 A 
ATOM      7  N   UNL     1      -1.208  12.046  21.382  0.00  0.00    +0.000 NA
ATOM      8  H   UNL     1       1.651  11.390  20.310  0.00  0.00    +0.000 HD
ENDROOT
BRANCH   6   9
ATOM      9  N   UNL     1      -3.323  13.040  21.685  0.00  0.00    +0.000 N 
ATOM     10  C   UNL     1      -4.400  12.590  20.956  0.00  0.00    +0.000 C 
ATOM     11  O   UNL     1      -4.455  12.388  19.755  0.00  0.00    +0.000 OA
ATOM     12  O   UNL     1      -5.452  12.357  21.801  0.00  0.00    +0.000 OA
ATOM     13  C   UNL     1      -5.102  12.862  23.096  0.00  0.00    +0.000 C 
ATOM     14  C   UNL     1      -3.587  12.982  23.095  0.00  0.00    +0.000 C 
BRANCH  14  15
ATOM     15  C   UNL     1      -3.091  14.248  23.838  0.00  0.00    +0.000 C 
ATOM     16  C   UNL     1      -3.687  15.545  23.312  0.00  0.00    +0.000 C 
BRANCH  15  17
ATOM     17  O   UNL     1      -3.383  14.219  25.238  0.00  0.00    +0.000 OA
ATOM     18  H   UNL     1      -4.205  14.721  25.410  0.00  0.00    +0.000 HD
ENDBRANCH  15  17
ENDBRANCH  14  15
ENDBRANCH   6   9
BRANCH   1  20
ATOM     19  C   UNL     1       0.557   8.907  21.983  0.00  0.00    +0.000 C 
ATOM     20  C   UNL     1       0.426   9.751  20.709  0.00  0.00    +0.000 C 
BRANCH  20  21
ATOM     21  C   UNL     1       1.225   9.093  19.625  0.00  0.00    +0.000 A 
ATOM     22  C   UNL     1       1.960   7.935  19.593  0.00  0.00    +0.000 A 
ATOM     23  C   UNL     1       2.488   7.860  18.281  0.00  0.00    +0.000 A 
ATOM     24  N   UNL     1       2.045   8.896  17.551  0.00  0.00    +0.000 NA
ATOM     25  O   UNL     1       1.266   9.673  18.397  0.00  0.00    +0.000 OA
BRANCH  23  26
ATOM     26  C   UNL     1       3.371   6.802  17.787  0.00  0.00    +0.000 A 
ATOM     27  C   UNL     1       4.531   7.200  17.088  0.00  0.00    +0.000 A 
ATOM     28  C   UNL     1       5.355   6.265  16.461  0.00  0.00    +0.000 A 
ATOM     29  C   UNL     1       5.043   4.915  16.541  0.00  0.00    +0.000 A 
ATOM     30 CL   UNL     1       6.028   3.766  15.727  0.00  0.00    +0.000 Cl
ATOM     31  C   UNL     1       3.927   4.492  17.259  0.00  0.00    +0.000 A 
ATOM     32  C   UNL     1       3.086   5.429  17.879  0.00  0.00    +0.000 A 
ATOM     33 CL   UNL     1       1.688   4.794  18.673  0.00  0.00    +0.000 Cl
ENDBRANCH  23  26
ENDBRANCH  20  21
ENDBRANCH   1  20
TORSDOF 6
ENDMDL
MODEL 4
REMARK VINA RESULT:      -7.7      4.302      9.563
REMARK  Name = 
REMARK  8 active torsions:
REMARK  status: ('A' for Active; 'I' for Inactive)
REMARK    1  A    between atoms: C_1  and  C_2
REMARK    2  A    between atoms: C_2  and  N_3
REMARK    3  A    between atoms: C_2  and  C_19
REMARK    4  A    between atoms: C_8  and  N_9
REMARK    5  A    between atoms: C_14  and  C_15
REMARK    6  A    between atoms: C_15  and  C_16
REMARK    7  A    between atoms: C_15  and  O_17
REMARK    8  A    between atoms: C_21  and  C_22
REMARK                            x       y       z     vdW  Elec       q    Type
REMARK                         _______ _______ _______ _____ _____    ______ ____
ROOT
ATOM      1  N   UNL     1       1.558   8.620  19.311  0.00  0.00    +0.000 N 
ATOM      2  C   UNL     1       2.438   7.712  18.751  0.00  0.00    +0.000 A 
ATOM      3  N   UNL     1       3.053   8.156  17.648  0.00  0.00    +0.000 NA
ATOM      4  C   UNL     1       3.948   7.337  17.073  0.00  0.00    +0.000 A 
ATOM      5  C   UNL     1       4.286   6.117  17.591  0.00  0.00    +0.000 A 
ATOM      6  C   UNL     1       3.573   5.734  18.704  0.00  0.00    +0.000 A 
ATOM      7  N   UNL     1       2.615   6.494  19.272  0.00  0.00    +0.000 NA
ATOM      8  H   UNL     1       1.835   9.492  18.865  0.00  0.00    +0.000 HD
ENDROOT
BRANCH   6   9
ATOM      9  N   UNL     1       3.766   4.439  19.193  0.00  0.00    +0.000 N 
ATOM     10  C   UNL     1       5.010   3.857  19.270  0.00  0.00    +0.000 C 
ATOM     11  O   UNL     1       6.047   4.245  18.759  0.00  0.00    +0.000 OA
ATOM     12  O   UNL     1       4.939   2.741  20.060  0.00  0.00    +0.000 OA
ATOM     13  C   UNL     1       3.558   2.484  20.343  0.00  0.00    +0.000 C 
ATOM     14  C   UNL     1       2.833   3.792  20.071  0.00  0.00    +0.000 C 
BRANCH  14  15
ATOM     15  C   UNL     1       1.451   3.576  19.404  0.00  0.00    +0.000 C 
ATOM     16  C   UNL     1       1.364   2.313  18.561  0.00  0.00    +0.000 C 
BRANCH  15  17
ATOM     17  O   UNL     1       0.384   3.492  20.353  0.00  0.00    +0.000 OA
ATOM     18  H   UNL     1      -0.098   2.650  20.228  0.00  0.00    +0.000 HD
ENDBRANCH  15  17
ENDBRANCH  14  15
ENDBRANCH   6   9
BRANCH   1  20
ATOM     19  C   UNL     1       0.871   7.451  21.349  0.00  0.00    +0.000 C 
ATOM     20  C   UNL     1       1.521   8.716  20.775  0.00  0.00    +0.000 C 
BRANCH  20  21
ATOM     21  C   UNL     1       0.706   9.899  21.203  0.00  0.00    +0.000 A 
ATOM     22  C   UNL     1      -0.630  10.052  21.468  0.00  0.00    +0.000 A 
ATOM     23  C   UNL     1      -0.792  11.415  21.817  0.00  0.00    +0.000 A 
ATOM     24  N   UNL     1       0.401  12.032  21.813  0.00  0.00    +0.000 NA
ATOM     25  O   UNL     1       1.335  11.085  21.415  0.00  0.00    +0.000 OA
BRANCH  23  26
ATOM     26  C   UNL     1      -2.065  12.054  22.153  0.00  0.00    +0.000 A 
ATOM     27  C   UNL     1      -2.417  12.121  23.518  0.00  0.00    +0.000 A 
ATOM     28  C   UNL     1      -3.670  12.584  23.923  0.00  0.00    +0.000 A 
ATOM     29  C   UNL     1      -4.584  13.006  22.967  0.00  0.00    +0.000 A 
ATOM     30 CL   UNL     1      -6.146  13.527  23.458  0.00  0.00    +0.000 Cl
ATOM     31  C   UNL     1      -4.248  12.988  21.615  0.00  0.00    +0.000 A 
ATOM     32  C   UNL     1      -2.995  12.511  21.202  0.00  0.00    +0.000 A 
ATOM     33 CL   UNL     1      -2.720  12.460  19.496  0.00  0.00    +0.000 Cl
ENDBRANCH  23  26
ENDBRANCH  20  21
ENDBRANCH   1  20
TORSDOF 6
ENDMDL
MODEL 5
REMARK VINA RESULT:      -7.6      1.797      2.960
REMARK  Name = 
REMARK  8 active torsions:
REMARK  status: ('A' for Active; 'I' for Inactive)
REMARK    1  A    between atoms: C_1  and  C_2
REMARK    2  A    between atoms: C_2  and  N_3
REMARK    3  A    between atoms: C_2  and  C_19
REMARK    4  A    between atoms: C_8  and  N_9
REMARK    5  A    between atoms: C_14  and  C_15
REMARK    6  A    between atoms: C_15  and  C_16
REMARK    7  A    between atoms: C_15  and  O_17
REMARK    8  A    between atoms: C_21  and  C_22
REMARK                            x       y       z     vdW  Elec       q    Type
REMARK                         _______ _______ _______ _____ _____    ______ ____
ROOT
ATOM      1  N   UNL     1      -0.297  10.565  17.694  0.00  0.00    +0.000 N 
ATOM      2  C   UNL     1      -1.666  10.764  17.701  0.00  0.00    +0.000 A 
ATOM      3  N   UNL     1      -2.317  10.117  16.727  0.00  0.00    +0.000 NA
ATOM      4  C   UNL     1      -3.654  10.237  16.697  0.00  0.00    +0.000 A 
ATOM      5  C   UNL     1      -4.362  10.936  17.635  0.00  0.00    +0.000 A 
ATOM      6  C   UNL     1      -3.602  11.596  18.573  0.00  0.00    +0.000 A 
ATOM      7  N   UNL     1      -2.254  11.561  18.598  0.00  0.00    +0.000 NA
ATOM      8  H   UNL     1      -0.201   9.747  17.096  0.00  0.00    +0.000 HD
ENDROOT
BRANCH   6   9
ATOM      9  N   UNL     1      -4.257  12.446  19.468  0.00  0.00    +0.000 N 
ATOM     10  C   UNL     1      -5.497  12.981  19.205  0.00  0.00    +0.000 C 
ATOM     11  O   UNL     1      -6.093  12.991  18.142  0.00  0.00    +0.000 OA
ATOM     12  O   UNL     1      -6.018  13.504  20.358  0.00  0.00    +0.000 OA
ATOM     13  C   UNL     1      -4.993  13.481  21.359  0.00  0.00    +0.000 C 
ATOM     14  C   UNL     1      -3.968  12.469  20.874  0.00  0.00    +0.000 C 
BRANCH  14  15
ATOM     15  C   UNL     1      -2.512  12.912  21.168  0.00  0.00    +0.000 C 
ATOM     16  C   UNL     1      -2.398  13.977  22.249  0.00  0.00    +0.000 C 
BRANCH  15  17
ATOM     17  O   UNL     1      -1.677  11.831  21.590  0.00  0.00    +0.000 OA
ATOM     18  H   UNL     1      -2.135  10.982  21.427  0.00  0.00    +0.000 HD
ENDBRANCH  15  17
ENDBRANCH  14  15
ENDBRANCH   6   9
BRANCH   1  20
ATOM     19  C   UNL     1       1.271  11.620  19.250  0.00  0.00    +0.000 C 
ATOM     20  C   UNL     1       0.372  10.405  18.990  0.00  0.00    +0.000 C 
BRANCH  20  21
ATOM     21  C   UNL     1       1.232   9.177  18.987  0.00  0.00    +0.000 A 
ATOM     22  C   UNL     1       1.950   8.554  17.998  0.00  0.00    +0.000 A 
ATOM     23  C   UNL     1       2.547   7.429  18.617  0.00  0.00    +0.000 A 
ATOM     24  N   UNL     1       2.243   7.412  19.925  0.00  0.00    +0.000 NA
ATOM     25  O   UNL     1       1.409   8.499  20.152  0.00  0.00    +0.000 OA
BRANCH  23  26
ATOM     26  C   UNL     1       3.386   6.440  17.939  0.00  0.00    +0.000 A 
ATOM     27  C   UNL     1       4.552   6.912  17.297  0.00  0.00    +0.000 A 
ATOM     28  C   UNL     1       5.337   6.069  16.509  0.00  0.00    +0.000 A 
ATOM     29  C   UNL     1       4.978   4.736  16.367  0.00  0.00    +0.000 A 
ATOM     30 CL   UNL     1       5.914   3.708  15.355  0.00  0.00    +0.000 Cl
ATOM     31  C   UNL     1       3.855   4.235  17.021  0.00  0.00    +0.000 A 
ATOM     32  C   UNL     1       3.055   5.081  17.803  0.00  0.00    +0.000 A 
ATOM     33 CL   UNL     1       1.643   4.369  18.501  0.00  0.00    +0.000 Cl
ENDBRANCH  23  26
ENDBRANCH  20  21
ENDBRANCH   1  20
TORSDOF 6
ENDMDL
MODEL 6
REMARK VINA RESULT:      -7.5      1.271      1.364
REMARK  Name = 
REMARK  8 active torsions:
REMARK  status: ('A' for Active; 'I' for Inactive)
REMARK    1  A    between atoms: C_1  and  C_2
REMARK    2  A    between atoms: C_2  and  N_3
REMARK    3  A    between atoms: C_2  and  C_19
REMARK    4  A    between atoms: C_8  and  N_9
REMARK    5  A    between atoms: C_14  and  C_15
REMARK    6  A    between atoms: C_15  and  C_16
REMARK    7  A    between atoms: C_15  and  O_17
REMARK    8  A    between atoms: C_21  and  C_22
REMARK                            x       y       z     vdW  Elec       q    Type
REMARK                         _______ _______ _______ _____ _____    ______ ____
ROOT
ATOM      1  N   UNL     1       1.376   9.833  20.111  0.00  0.00    +0.000 N 
ATOM      2  C   UNL     1       0.627  10.835  19.521  0.00  0.00    +0.000 A 
ATOM      3  N   UNL     1       1.355  11.760  18.885  0.00  0.00    +0.000 NA
ATOM      4  C   UNL     1       0.688  12.743  18.259  0.00  0.00    +0.000 A 
ATOM      5  C   UNL     1      -0.678  12.801  18.203  0.00  0.00    +0.000 A 
ATOM      6  C   UNL     1      -1.337  11.827  18.917  0.00  0.00    +0.000 A 
ATOM      7  N   UNL     1      -0.706  10.863  19.619  0.00  0.00    +0.000 NA
ATOM      8  H   UNL     1       2.279   9.942  19.653  0.00  0.00    +0.000 HD
ENDROOT
BRANCH   6   9
ATOM      9  N   UNL     1      -2.727  11.917  19.023  0.00  0.00    +0.000 N 
ATOM     10  C   UNL     1      -3.347  12.530  20.087  0.00  0.00    +0.000 C 
ATOM     11  O   UNL     1      -2.848  12.874  21.144  0.00  0.00    +0.000 OA
ATOM     12  O   UNL     1      -4.665  12.745  19.779  0.00  0.00    +0.000 OA
ATOM     13  C   UNL     1      -4.950  12.069  18.549  0.00  0.00    +0.000 C 
ATOM     14  C   UNL     1      -3.601  11.832  17.888  0.00  0.00    +0.000 C 
BRANCH  14  15
ATOM     15  C   UNL     1      -3.520  10.454  17.184  0.00  0.00    +0.000 C 
ATOM     16  C   UNL     1      -2.675  10.456  15.919  0.00  0.00    +0.000 C 
BRANCH  15  17
ATOM     17  O   UNL     1      -2.971   9.434  18.023  0.00  0.00    +0.000 OA
ATOM     18  H   UNL     1      -2.042   9.652  18.237  0.00  0.00    +0.000 HD
ENDBRANCH  15  17
ENDBRANCH  14  15
ENDBRANCH   6   9
BRANCH   1  20
ATOM     19  C   UNL     1       0.437   7.998  21.430  0.00  0.00    +0.000 C 
ATOM     20  C   UNL     1       0.861   8.462  20.031  0.00  0.00    +0.000 C 
BRANCH  20  21
ATOM     21  C   UNL     1       1.923   7.530  19.529  0.00  0.00    +0.000 A 
ATOM     22  C   UNL     1       2.464   7.332  18.284  0.00  0.00    +0.000 A 
ATOM     23  C   UNL     1       3.422   6.303  18.450  0.00  0.00    +0.000 A 
ATOM     24  N   UNL     1       3.487   5.942  19.741  0.00  0.00    +0.000 NA
ATOM     25  O   UNL     1       2.538   6.701  20.413  0.00  0.00    +0.000 OA
BRANCH  23  26
ATOM     26  C   UNL     1       4.237   5.729  17.377  0.00  0.00    +0.000 A 
ATOM     27  C   UNL     1       4.883   6.629  16.502  0.00  0.00    +0.000 A 
ATOM     28  C   UNL     1       5.563   6.177  15.370  0.00  0.00    +0.000 A 
ATOM     29  C   UNL     1       5.625   4.815  15.108  0.00  0.00    +0.000 A 
ATOM     30 CL   UNL     1       6.417   4.260  13.687  0.00  0.00    +0.000 Cl
ATOM     31  C   UNL     1       5.030   3.903  15.976  0.00  0.00    +0.000 A 
ATOM     32  C   UNL     1       4.333   4.353  17.107  0.00  0.00    +0.000 A 
ATOM     33 CL   UNL     1       3.568   3.136  18.068  0.00  0.00    +0.000 Cl
ENDBRANCH  23  26
ENDBRANCH  20  21
ENDBRANCH   1  20
TORSDOF 6
ENDMDL
MODEL 7
REMARK VINA RESULT:      -7.5      3.788      9.489
REMARK  Name = 
REMARK  8 active torsions:
REMARK  status: ('A' for Active; 'I' for Inactive)
REMARK    1  A    between atoms: C_1  and  C_2
REMARK    2  A    between atoms: C_2  and  N_3
REMARK    3  A    between atoms: C_2  and  C_19
REMARK    4  A    between atoms: C_8  and  N_9
REMARK    5  A    between atoms: C_14  and  C_15
REMARK    6  A    between atoms: C_15  and  C_16
REMARK    7  A    between atoms: C_15  and  O_17
REMARK    8  A    between atoms: C_21  and  C_22
REMARK                            x       y       z     vdW  Elec       q    Type
REMARK                         _______ _______ _______ _____ _____    ______ ____
ROOT
ATOM      1  N   UNL     1       1.654   8.703  19.514  0.00  0.00    +0.000 N 
ATOM      2  C   UNL     1       2.106   7.396  19.516  0.00  0.00    +0.000 A 
ATOM      3  N   UNL     1       1.678   6.672  20.557  0.00  0.00    +0.000 NA
ATOM      4  C   UNL     1       2.050   5.382  20.602  0.00  0.00    +0.000 A 
ATOM      5  C   UNL     1       2.787   4.783  19.619  0.00  0.00    +0.000 A 
ATOM      6  C   UNL     1       3.210   5.618  18.610  0.00  0.00    +0.000 A 
ATOM      7  N   UNL     1       2.920   6.934  18.563  0.00  0.00    +0.000 NA
ATOM      8  H   UNL     1       0.886   8.667  20.182  0.00  0.00    +0.000 HD
ENDROOT
BRANCH   6   9
ATOM      9  N   UNL     1       4.089   5.101  17.655  0.00  0.00    +0.000 N 
ATOM     10  C   UNL     1       3.860   3.907  17.011  0.00  0.00    +0.000 C 
ATOM     11  O   UNL     1       3.039   3.052  17.296  0.00  0.00    +0.000 OA
ATOM     12  O   UNL     1       4.696   3.808  15.931  0.00  0.00    +0.000 OA
ATOM     13  C   UNL     1       5.635   4.889  15.995  0.00  0.00    +0.000 C 
ATOM     14  C   UNL     1       5.011   5.921  16.920  0.00  0.00    +0.000 C 
BRANCH  14  15
ATOM     15  C   UNL     1       6.055   6.601  17.841  0.00  0.00    +0.000 C 
ATOM     16  C   UNL     1       6.962   5.623  18.573  0.00  0.00    +0.000 C 
BRANCH  15  17
ATOM     17  O   UNL     1       6.924   7.490  17.133  0.00  0.00    +0.000 OA
ATOM     18  H   UNL     1       7.160   7.097  16.269  0.00  0.00    +0.000 HD
ENDBRANCH  15  17
ENDBRANCH  14  15
ENDBRANCH   6   9
BRANCH   1  20
ATOM     19  C   UNL     1       2.447  10.059  17.636  0.00  0.00    +0.000 C 
ATOM     20  C   UNL     1       1.261   9.284  18.226  0.00  0.00    +0.000 C 
BRANCH  20  21
ATOM     21  C   UNL     1       0.120  10.240  18.407  0.00  0.00    +0.000 A 
ATOM     22  C   UNL     1      -1.226  10.126  18.168  0.00  0.00    +0.000 A 
ATOM     23  C   UNL     1      -1.780  11.378  18.532  0.00  0.00    +0.000 A 
ATOM     24  N   UNL     1      -0.818  12.180  19.016  0.00  0.00    +0.000 NA
ATOM     25  O   UNL     1       0.372  11.471  18.925  0.00  0.00    +0.000 OA
BRANCH  23  26
ATOM     26  C   UNL     1      -3.194  11.739  18.418  0.00  0.00    +0.000 A 
ATOM     27  C   UNL     1      -3.847  12.180  19.589  0.00  0.00    +0.000 A 
ATOM     28  C   UNL     1      -5.223  12.411  19.608  0.00  0.00    +0.000 A 
ATOM     29  C   UNL     1      -5.964  12.224  18.450  0.00  0.00    +0.000 A 
ATOM     30 CL   UNL     1      -7.666  12.458  18.484  0.00  0.00    +0.000 Cl
ATOM     31  C   UNL     1      -5.338  11.828  17.269  0.00  0.00    +0.000 A 
ATOM     32  C   UNL     1      -3.958  11.581  17.248  0.00  0.00    +0.000 A 
ATOM     33 CL   UNL     1      -3.304  11.017  15.750  0.00  0.00    +0.000 Cl
ENDBRANCH  23  26
ENDBRANCH  20  21
ENDBRANCH   1  20
TORSDOF 6
ENDMDL
MODEL 8
REMARK VINA RESULT:      -7.5      2.367      3.646
REMARK  Name = 
REMARK  8 active torsions:
REMARK  status: ('A' for Active; 'I' for Inactive)
REMARK    1  A    between atoms: C_1  and  C_2
REMARK    2  A    between atoms: C_2  and  N_3
REMARK    3  A    between atoms: C_2  and  C_19
REMARK    4  A    between atoms: C_8  and  N_9
REMARK    5  A    between atoms: C_14  and  C_15
REMARK    6  A    between atoms: C_15  and  C_16
REMARK    7  A    between atoms: C_15  and  O_17
REMARK    8  A    between atoms: C_21  and  C_22
REMARK                            x       y       z     vdW  Elec       q    Type
REMARK                         _______ _______ _______ _____ _____    ______ ____
ROOT
ATOM      1  N   UNL     1      -0.042   9.245  20.241  0.00  0.00    +0.000 N 
ATOM      2  C   UNL     1      -0.440  10.202  21.157  0.00  0.00    +0.000 A 
ATOM      3  N   UNL     1      -0.733   9.712  22.368  0.00  0.00    +0.000 NA
ATOM      4  C   UNL     1      -1.092  10.592  23.316  0.00  0.00    +0.000 A 
ATOM      5  C   UNL     1      -1.115  11.944  23.110  0.00  0.00    +0.000 A 
ATOM      6  C   UNL     1      -0.834  12.347  21.825  0.00  0.00    +0.000 A 
ATOM      7  N   UNL     1      -0.539  11.492  20.824  0.00  0.00    +0.000 NA
ATOM      8  H   UNL     1       0.177   8.452  20.840  0.00  0.00    +0.000 HD
ENDROOT
BRANCH   6   9
ATOM      9  N   UNL     1      -0.986  13.701  21.513  0.00  0.00    +0.000 N 
ATOM     10  C   UNL     1       0.020  14.620  21.708  0.00  0.00    +0.000 C 
ATOM     11  O   UNL     1       1.051  14.473  22.341  0.00  0.00    +0.000 OA
ATOM     12  O   UNL     1      -0.287  15.775  21.038  0.00  0.00    +0.000 OA
ATOM     13  C   UNL     1      -1.632  15.664  20.557  0.00  0.00    +0.000 C 
ATOM     14  C   UNL     1      -1.951  14.178  20.564  0.00  0.00    +0.000 C 
BRANCH  14  15
ATOM     15  C   UNL     1      -3.407  13.886  21.010  0.00  0.00    +0.000 C 
ATOM     16  C   UNL     1      -3.996  14.948  21.927  0.00  0.00    +0.000 C 
BRANCH  15  17
ATOM     17  O   UNL     1      -4.312  13.771  19.908  0.00  0.00    +0.000 OA
ATOM     18  H   UNL     1      -4.189  12.903  19.475  0.00  0.00    +0.000 HD
ENDBRANCH  15  17
ENDBRANCH  14  15
ENDBRANCH   6   9
BRANCH   1  20
ATOM     19  C   UNL     1       0.472  10.086  18.001  0.00  0.00    +0.000 C 
ATOM     20  C   UNL     1       1.054   9.591  19.330  0.00  0.00    +0.000 C 
BRANCH  20  21
ATOM     21  C   UNL     1       1.904   8.387  19.052  0.00  0.00    +0.000 A 
ATOM     22  C   UNL     1       2.594   7.982  17.938  0.00  0.00    +0.000 A 
ATOM     23  C   UNL     1       3.196   6.750  18.295  0.00  0.00    +0.000 A 
ATOM     24  N   UNL     1       2.921   6.462  19.577  0.00  0.00    +0.000 NA
ATOM     25  O   UNL     1       2.101   7.480  20.045  0.00  0.00    +0.000 OA
BRANCH  23  26
ATOM     26  C   UNL     1       4.012   5.922  17.405  0.00  0.00    +0.000 A 
ATOM     27  C   UNL     1       4.929   6.587  16.563  0.00  0.00    +0.000 A 
ATOM     28  C   UNL     1       5.647   5.896  15.585  0.00  0.00    +0.000 A 
ATOM     29  C   UNL     1       5.473   4.526  15.450  0.00  0.00    +0.000 A 
ATOM     30 CL   UNL     1       6.317   3.682  14.213  0.00  0.00    +0.000 Cl
ATOM     31  C   UNL     1       4.604   3.839  16.294  0.00  0.00    +0.000 A 
ATOM     32  C   UNL     1       3.869   4.531  17.269  0.00  0.00    +0.000 A 
ATOM     33 CL   UNL     1       2.763   3.588  18.205  0.00  0.00    +0.000 Cl
ENDBRANCH  23  26
ENDBRANCH  20  21
ENDBRANCH   1  20
TORSDOF 6
ENDMDL
MODEL 9
REMARK VINA RESULT:      -7.5      4.652      9.936
REMARK  Name = 
REMARK  8 active torsions:
REMARK  status: ('A' for Active; 'I' for Inactive)
REMARK    1  A    between atoms: C_1  and  C_2
REMARK    2  A    between atoms: C_2  and  N_3
REMARK    3  A    between atoms: C_2  and  C_19
REMARK    4  A    between atoms: C_8  and  N_9
REMARK    5  A    between atoms: C_14  and  C_15
REMARK    6  A    between atoms: C_15  and  C_16
REMARK    7  A    between atoms: C_15  and  O_17
REMARK    8  A    between atoms: C_21  and  C_22
REMARK                            x       y       z     vdW  Elec       q    Type
REMARK                         _______ _______ _______ _____ _____    ______ ____
ROOT
ATOM      1  N   UNL     1       2.002   5.905  20.844  0.00  0.00    +0.000 N 
ATOM      2  C   UNL     1       2.884   4.983  20.310  0.00  0.00    +0.000 A 
ATOM      3  N   UNL     1       2.594   3.711  20.610  0.00  0.00    +0.000 NA
ATOM      4  C   UNL     1       3.390   2.761  20.094  0.00  0.00    +0.000 A 
ATOM      5  C   UNL     1       4.430   3.036  19.249  0.00  0.00    +0.000 A 
ATOM      6  C   UNL     1       4.671   4.373  19.030  0.00  0.00    +0.000 A 
ATOM      7  N   UNL     1       3.941   5.362  19.586  0.00  0.00    +0.000 NA
ATOM      8  H   UNL     1       1.208   5.320  21.098  0.00  0.00    +0.000 HD
ENDROOT
BRANCH   6   9
ATOM      9  N   UNL     1       5.807   4.724  18.296  0.00  0.00    +0.000 N 
ATOM     10  C   UNL     1       6.995   5.071  18.898  0.00  0.00    +0.000 C 
ATOM     11  O   UNL     1       7.187   5.332  20.073  0.00  0.00    +0.000 OA
ATOM     12  O   UNL     1       7.996   5.058  17.963  0.00  0.00    +0.000 OA
ATOM     13  C   UNL     1       7.397   4.887  16.673  0.00  0.00    +0.000 C 
ATOM     14  C   UNL     1       6.012   4.317  16.935  0.00  0.00    +0.000 C 
BRANCH  14  15
ATOM     15  C   UNL     1       4.940   4.900  15.980  0.00  0.00    +0.000 C 
ATOM     16  C   UNL     1       4.964   6.418  15.879  0.00  0.00    +0.000 C 
BRANCH  15  17
ATOM     17  O   UNL     1       5.066   4.413  14.641  0.00  0.00    +0.000 OA
ATOM     18  H   UNL     1       4.217   4.529  14.171  0.00  0.00    +0.000 HD
ENDBRANCH  15  17
ENDBRANCH  14  15
ENDBRANCH   6   9
BRANCH   1  20
ATOM     19  C   UNL     1       2.818   7.456  19.135  0.00  0.00    +0.000 C 
ATOM     20  C   UNL     1       1.622   7.046  20.004  0.00  0.00    +0.000 C 
BRANCH  20  21
ATOM     21  C   UNL     1       1.236   8.218  20.856  0.00  0.00    +0.000 A 
ATOM     22  C   UNL     1       0.364   9.258  20.655  0.00  0.00    +0.000 A 
ATOM     23  C   UNL     1       0.448  10.051  21.826  0.00  0.00    +0.000 A 
ATOM     24  N   UNL     1       1.289   9.482  22.704  0.00  0.00    +0.000 NA
ATOM     25  O   UNL     1       1.792   8.343  22.090  0.00  0.00    +0.000 OA
BRANCH  23  26
ATOM     26  C   UNL     1      -0.287  11.296  22.055  0.00  0.00    +0.000 A 
ATOM     27  C   UNL     1      -1.396  11.242  22.927  0.00  0.00    +0.000 A 
ATOM     28  C   UNL     1      -2.239  12.342  23.097  0.00  0.00    +0.000 A 
ATOM     29  C   UNL     1      -1.973  13.519  22.410  0.00  0.00    +0.000 A 
ATOM     30 CL   UNL     1      -3.039  14.857  22.577  0.00  0.00    +0.000 Cl
ATOM     31  C   UNL     1      -0.863  13.612  21.574  0.00  0.00    +0.000 A 
ATOM     32  C   UNL     1      -0.021  12.505  21.389  0.00  0.00    +0.000 A 
ATOM     33 CL   UNL     1       1.278  12.711  20.267  0.00  0.00    +0.000 Cl
ENDBRANCH  23  26
ENDBRANCH  20  21
ENDBRANCH   1  20
TORSDOF 6
ENDMDL
