MODEL 1
REMARK VINA RESULT:      -6.4      0.000      0.000
REMARK  Name = 
REMARK  17 active torsions:
REMARK  status: ('A' for Active; 'I' for Inactive)
REMARK    1  A    between atoms: C_1  and  C_2
REMARK    2  A    between atoms: C_2  and  C_3
REMARK    3  A    between atoms: C_3  and  C_4
REMARK    4  A    between atoms: C_4  and  C_5
REMARK    5  A    between atoms: C_5  and  C_6
REMARK    6  A    between atoms: C_6  and  C_7
REMARK    7  A    between atoms: C_7  and  C_8
REMARK    8  A    between atoms: C_8  and  C_9
REMARK    9  A    between atoms: C_9  and  C_10
REMARK   10  A    between atoms: C_10  and  C_11
REMARK   11  A    between atoms: C_11  and  C_12
REMARK   12  A    between atoms: C_12  and  C_13
REMARK   13  A    between atoms: C_13  and  C_14
REMARK   14  A    between atoms: C_14  and  C_15
REMARK   15  A    between atoms: C_15  and  C_16
REMARK   16  A    between atoms: C_16  and  N_17
REMARK   17  A    between atoms: C_18  and  C_20
REMARK                            x       y       z     vdW  Elec       q    Type
REMARK                         _______ _______ _______ _____ _____    ______ ____
ROOT
ATOM      1  C   UNL     1       7.653   6.789  18.036  0.00  0.00    +0.000 C 
ENDROOT
BRANCH   1   2
ATOM      2  C   UNL     1       6.325   6.230  17.517  0.00  0.00    +0.000 C 
BRANCH   2   3
ATOM      3  N   UNL     1       5.363   5.957  18.605  0.00  0.00    +0.000 N 
ATOM      4  C   UNL     1       4.051   6.351  18.480  0.00  0.00    +0.000 C 
ATOM      5  O   UNL     1       3.673   6.913  17.451  0.00  0.00    +0.000 OA
ATOM      6  H   UNL     1       5.685   5.492  19.440  0.00  0.00    +0.000 HD
BRANCH   4   7
ATOM      7  C   UNL     1       3.067   6.112  19.603  0.00  0.00    +0.000 C 
ATOM      8  C   UNL     1       2.865   4.866  20.107  0.00  0.00    +0.000 C 
ATOM      9  O   UNL     1       2.074   4.556  21.251  0.00  0.00    +0.000 OA
ATOM     10  C   UNL     1       1.855   3.164  21.213  0.00  0.00    +0.000 C 
ATOM     11  O   UNL     1       1.254   2.512  22.049  0.00  0.00    +0.000 OA
ATOM     12  N   UNL     1       2.442   2.666  20.062  0.00  0.00    +0.000 N 
ATOM     13  C   UNL     1       1.897   1.741  19.082  0.00  0.00    +0.000 C 
ATOM     14  C   UNL     1       2.428   2.225  17.732  0.00  0.00    +0.000 C 
ATOM     15  C   UNL     1       3.303   3.423  18.023  0.00  0.00    +0.000 C 
ATOM     16  C   UNL     1       3.368   3.597  19.523  0.00  0.00    +0.000 C 
ENDBRANCH   4   7
ENDBRANCH   2   3
ENDBRANCH   1   2
BRANCH   1  17
ATOM     17  C   UNL     1       7.941   8.206  17.524  0.00  0.00    +0.000 C 
BRANCH  17  18
ATOM     18  C   UNL     1       8.579   9.048  18.627  0.00  0.00    +0.000 C 
BRANCH  18  19
ATOM     19  C   UNL     1       8.648  10.515  18.226  0.00  0.00    +0.000 C 
BRANCH  19  20
ATOM     20  C   UNL     1      10.097  10.976  18.177  0.00  0.00    +0.000 C 
BRANCH  20  21
ATOM     21  C   UNL     1      10.189  12.326  17.486  0.00  0.00    +0.000 C 
BRANCH  21  22
ATOM     22  C   UNL     1      11.636  12.780  17.431  0.00  0.00    +0.000 C 
BRANCH  22  23
ATOM     23  C   UNL     1      12.177  12.953  18.837  0.00  0.00    +0.000 C 
BRANCH  23  24
ATOM     24  C   UNL     1      12.288  14.429  19.168  0.00  0.00    +0.000 C 
BRANCH  24  25
ATOM     25  C   UNL     1      11.406  14.756  20.359  0.00  0.00    +0.000 C 
BRANCH  25  26
ATOM     26  C   UNL     1      10.035  15.202  19.881  0.00  0.00    +0.000 C 
BRANCH  26  27
ATOM     27  C   UNL     1       8.959  14.333  20.507  0.00  0.00    +0.000 C 
BRANCH  27  28
ATOM     28  C   UNL     1       9.537  13.548  21.664  0.00  0.00    +0.000 C 
BRANCH  28  30
ATOM     29  C   UNL     1       8.158  11.743  22.731  0.00  0.00    +0.000 C 
ATOM     30  C   UNL     1       9.102  12.080  21.592  0.00  0.00    +0.000 C 
ENDBRANCH  28  30
ENDBRANCH  27  28
ENDBRANCH  26  27
ENDBRANCH  25  26
ENDBRANCH  24  25
ENDBRANCH  23  24
ENDBRANCH  22  23
ENDBRANCH  21  22
ENDBRANCH  20  21
ENDBRANCH  19  20
ENDBRANCH  18  19
ENDBRANCH  17  18
ENDBRANCH   1  17
TORSDOF 16
ENDMDL
MODEL 2
REMARK VINA RESULT:      -6.4      5.813      9.358
REMARK  Name = 
REMARK  17 active torsions:
REMARK  status: ('A' for Active; 'I' for Inactive)
REMARK    1  A    between atoms: C_1  and  C_2
REMARK    2  A    between atoms: C_2  and  C_3
REMARK    3  A    between atoms: C_3  and  C_4
REMARK    4  A    between atoms: C_4  and  C_5
REMARK    5  A    between atoms: C_5  and  C_6
REMARK    6  A    between atoms: C_6  and  C_7
REMARK    7  A    between atoms: C_7  and  C_8
REMARK    8  A    between atoms: C_8  and  C_9
REMARK    9  A    between atoms: C_9  and  C_10
REMARK   10  A    between atoms: C_10  and  C_11
REMARK   11  A    between atoms: C_11  and  C_12
REMARK   12  A    between atoms: C_12  and  C_13
REMARK   13  A    between atoms: C_13  and  C_14
REMARK   14  A    between atoms: C_14  and  C_15
REMARK   15  A    between atoms: C_15  and  C_16
REMARK   16  A    between atoms: C_16  and  N_17
REMARK   17  A    between atoms: C_18  and  C_20
REMARK                            x       y       z     vdW  Elec       q    Type
REMARK                         _______ _______ _______ _____ _____    ______ ____
ROOT
ATOM      1  C   UNL     1       2.490   6.740  18.574  0.00  0.00    +0.000 C 
ENDROOT
BRANCH   1   2
ATOM      2  C   UNL     1       2.418   8.163  18.012  0.00  0.00    +0.000 C 
BRANCH   2   3
ATOM      3  N   UNL     1       1.102   8.794  18.241  0.00  0.00    +0.000 N 
ATOM      4  C   UNL     1       1.006  10.160  18.373  0.00  0.00    +0.000 C 
ATOM      5  O   UNL     1       2.016  10.859  18.279  0.00  0.00    +0.000 OA
ATOM      6  H   UNL     1       0.282   8.211  18.311  0.00  0.00    +0.000 HD
BRANCH   4   7
ATOM      7  C   UNL     1      -0.330  10.814  18.647  0.00  0.00    +0.000 C 
ATOM      8  C   UNL     1      -0.618  11.337  19.868  0.00  0.00    +0.000 C 
ATOM      9  O   UNL     1      -1.782  12.096  20.187  0.00  0.00    +0.000 OA
ATOM     10  C   UNL     1      -1.851  12.138  21.594  0.00  0.00    +0.000 C 
ATOM     11  O   UNL     1      -2.687  12.733  22.251  0.00  0.00    +0.000 OA
ATOM     12  N   UNL     1      -0.804  11.386  22.100  0.00  0.00    +0.000 N 
ATOM     13  C   UNL     1      -0.820  10.386  23.155  0.00  0.00    +0.000 C 
ATOM     14  C   UNL     1       0.178   9.315  22.711  0.00  0.00    +0.000 C 
ATOM     15  C   UNL     1       0.754   9.789  21.396  0.00  0.00    +0.000 C 
ATOM     16  C   UNL     1       0.182  11.157  21.105  0.00  0.00    +0.000 C 
ENDBRANCH   4   7
ENDBRANCH   2   3
ENDBRANCH   1   2
BRANCH   1  17
ATOM     17  C   UNL     1       2.085   6.664  20.051  0.00  0.00    +0.000 C 
BRANCH  17  18
ATOM     18  C   UNL     1       2.140   5.218  20.541  0.00  0.00    +0.000 C 
BRANCH  18  19
ATOM     19  C   UNL     1       1.148   4.346  19.784  0.00  0.00    +0.000 C 
BRANCH  19  20
ATOM     20  C   UNL     1       1.241   2.907  20.269  0.00  0.00    +0.000 C 
BRANCH  20  21
ATOM     21  C   UNL     1       2.130   2.101  19.338  0.00  0.00    +0.000 C 
BRANCH  21  22
ATOM     22  C   UNL     1       2.245   2.803  17.997  0.00  0.00    +0.000 C 
BRANCH  22  23
ATOM     23  C   UNL     1       3.706   3.028  17.656  0.00  0.00    +0.000 C 
BRANCH  23  24
ATOM     24  C   UNL     1       3.824   4.061  16.552  0.00  0.00    +0.000 C 
BRANCH  24  25
ATOM     25  C   UNL     1       5.207   3.993  15.931  0.00  0.00    +0.000 C 
BRANCH  25  26
ATOM     26  C   UNL     1       5.603   5.359  15.400  0.00  0.00    +0.000 C 
BRANCH  26  27
ATOM     27  C   UNL     1       5.700   6.353  16.543  0.00  0.00    +0.000 C 
BRANCH  27  28
ATOM     28  C   UNL     1       7.091   6.321  17.138  0.00  0.00    +0.000 C 
BRANCH  28  30
ATOM     29  C   UNL     1       8.059   5.883  19.411  0.00  0.00    +0.000 C 
ATOM     30  C   UNL     1       7.153   5.347  18.319  0.00  0.00    +0.000 C 
ENDBRANCH  28  30
ENDBRANCH  27  28
ENDBRANCH  26  27
ENDBRANCH  25  26
ENDBRANCH  24  25
ENDBRANCH  23  24
ENDBRANCH  22  23
ENDBRANCH  21  22
ENDBRANCH  20  21
ENDBRANCH  19  20
ENDBRANCH  18  19
ENDBRANCH  17  18
ENDBRANCH   1  17
TORSDOF 16
ENDMDL
MODEL 3
REMARK VINA RESULT:      -6.3      1.479      2.068
REMARK  Name = 
REMARK  17 active torsions:
REMARK  status: ('A' for Active; 'I' for Inactive)
REMARK    1  A    between atoms: C_1  and  C_2
REMARK    2  A    between atoms: C_2  and  C_3
REMARK    3  A    between atoms: C_3  and  C_4
REMARK    4  A    between atoms: C_4  and  C_5
REMARK    5  A    between atoms: C_5  and  C_6
REMARK    6  A    between atoms: C_6  and  C_7
REMARK    7  A    between atoms: C_7  and  C_8
REMARK    8  A    between atoms: C_8  and  C_9
REMARK    9  A    between atoms: C_9  and  C_10
REMARK   10  A    between atoms: C_10  and  C_11
REMARK   11  A    between atoms: C_11  and  C_12
REMARK   12  A    between atoms: C_12  and  C_13
REMARK   13  A    between atoms: C_13  and  C_14
REMARK   14  A    between atoms: C_14  and  C_15
REMARK   15  A    between atoms: C_15  and  C_16
REMARK   16  A    between atoms: C_16  and  N_17
REMARK   17  A    between atoms: C_18  and  C_20
REMARK                            x       y       z     vdW  Elec       q    Type
REMARK                         _______ _______ _______ _____ _____    ______ ____
ROOT
ATOM      1  C   UNL     1       7.516   7.090  17.282  0.00  0.00    +0.000 C 
ENDROOT
BRANCH   1   2
ATOM      2  C   UNL     1       7.005   6.343  18.517  0.00  0.00    +0.000 C 
BRANCH   2   3
ATOM      3  N   UNL     1       6.251   5.121  18.167  0.00  0.00    +0.000 N 
ATOM      4  C   UNL     1       5.024   5.220  17.554  0.00  0.00    +0.000 C 
ATOM      5  O   UNL     1       4.562   6.328  17.277  0.00  0.00    +0.000 OA
ATOM      6  H   UNL     1       6.643   4.220  18.394  0.00  0.00    +0.000 HD
BRANCH   4   7
ATOM      7  C   UNL     1       4.225   3.978  17.226  0.00  0.00    +0.000 C 
ATOM      8  C   UNL     1       2.977   3.793  17.730  0.00  0.00    +0.000 C 
ATOM      9  O   UNL     1       2.091   2.735  17.372  0.00  0.00    +0.000 OA
ATOM     10  C   UNL     1       1.080   2.719  18.355  0.00  0.00    +0.000 C 
ATOM     11  O   UNL     1       0.112   1.980  18.371  0.00  0.00    +0.000 OA
ATOM     12  N   UNL     1       1.378   3.690  19.296  0.00  0.00    +0.000 N 
ATOM     13  C   UNL     1       1.361   3.595  20.747  0.00  0.00    +0.000 C 
ATOM     14  C   UNL     1       2.538   4.448  21.220  0.00  0.00    +0.000 C 
ATOM     15  C   UNL     1       3.170   5.030  19.977  0.00  0.00    +0.000 C 
ATOM     16  C   UNL     1       2.334   4.609  18.790  0.00  0.00    +0.000 C 
ENDBRANCH   4   7
ENDBRANCH   2   3
ENDBRANCH   1   2
BRANCH   1  17
ATOM     17  C   UNL     1       7.941   8.530  17.595  0.00  0.00    +0.000 C 
BRANCH  17  18
ATOM     18  C   UNL     1       8.717   8.579  18.910  0.00  0.00    +0.000 C 
BRANCH  18  19
ATOM     19  C   UNL     1       9.216   9.988  19.199  0.00  0.00    +0.000 C 
BRANCH  19  20
ATOM     20  C   UNL     1       9.081  10.856  17.958  0.00  0.00    +0.000 C 
BRANCH  20  21
ATOM     21  C   UNL     1      10.221  11.859  17.898  0.00  0.00    +0.000 C 
BRANCH  21  22
ATOM     22  C   UNL     1      11.399  11.351  18.709  0.00  0.00    +0.000 C 
BRANCH  22  23
ATOM     23  C   UNL     1      12.160  12.520  19.302  0.00  0.00    +0.000 C 
BRANCH  23  24
ATOM     24  C   UNL     1      11.640  13.822  18.721  0.00  0.00    +0.000 C 
BRANCH  24  25
ATOM     25  C   UNL     1      11.882  14.955  19.701  0.00  0.00    +0.000 C 
BRANCH  25  26
ATOM     26  C   UNL     1      10.564  15.614  20.065  0.00  0.00    +0.000 C 
BRANCH  26  27
ATOM     27  C   UNL     1       9.416  14.892  19.382  0.00  0.00    +0.000 C 
BRANCH  27  28
ATOM     28  C   UNL     1       8.560  14.193  20.415  0.00  0.00    +0.000 C 
BRANCH  28  30
ATOM     29  C   UNL     1       9.237  12.375  22.007  0.00  0.00    +0.000 C 
ATOM     30  C   UNL     1       9.387  13.843  21.657  0.00  0.00    +0.000 C 
ENDBRANCH  28  30
ENDBRANCH  27  28
ENDBRANCH  26  27
ENDBRANCH  25  26
ENDBRANCH  24  25
ENDBRANCH  23  24
ENDBRANCH  22  23
ENDBRANCH  21  22
ENDBRANCH  20  21
ENDBRANCH  19  20
ENDBRANCH  18  19
ENDBRANCH  17  18
ENDBRANCH   1  17
TORSDOF 16
ENDMDL
MODEL 4
REMARK VINA RESULT:      -6.3      6.321     10.125
REMARK  Name = 
REMARK  17 active torsions:
REMARK  status: ('A' for Active; 'I' for Inactive)
REMARK    1  A    between atoms: C_1  and  C_2
REMARK    2  A    between atoms: C_2  and  C_3
REMARK    3  A    between atoms: C_3  and  C_4
REMARK    4  A    between atoms: C_4  and  C_5
REMARK    5  A    between atoms: C_5  and  C_6
REMARK    6  A    between atoms: C_6  and  C_7
REMARK    7  A    between atoms: C_7  and  C_8
REMARK    8  A    between atoms: C_8  and  C_9
REMARK    9  A    between atoms: C_9  and  C_10
REMARK   10  A    between atoms: C_10  and  C_11
REMARK   11  A    between atoms: C_11  and  C_12
REMARK   12  A    between atoms: C_12  and  C_13
REMARK   13  A    between atoms: C_13  and  C_14
REMARK   14  A    between atoms: C_14  and  C_15
REMARK   15  A    between atoms: C_15  and  C_16
REMARK   16  A    between atoms: C_16  and  N_17
REMARK   17  A    between atoms: C_18  and  C_20
REMARK                            x       y       z     vdW  Elec       q    Type
REMARK                         _______ _______ _______ _____ _____    ______ ____
ROOT
ATOM      1  C   UNL     1       1.455   9.051  17.961  0.00  0.00    +0.000 C 
ENDROOT
BRANCH   1   2
ATOM      2  C   UNL     1       1.820  10.494  18.321  0.00  0.00    +0.000 C 
BRANCH   2   3
ATOM      3  N   UNL     1       0.634  11.370  18.414  0.00  0.00    +0.000 N 
ATOM      4  C   UNL     1      -0.372  11.079  19.307  0.00  0.00    +0.000 C 
ATOM      5  O   UNL     1      -0.273  10.097  20.045  0.00  0.00    +0.000 OA
ATOM      6  H   UNL     1       0.568  12.174  17.808  0.00  0.00    +0.000 HD
BRANCH   4   7
ATOM      7  C   UNL     1      -1.608  11.947  19.383  0.00  0.00    +0.000 C 
ATOM      8  C   UNL     1      -2.781  11.547  18.825  0.00  0.00    +0.000 C 
ATOM      9  O   UNL     1      -4.031  12.218  18.964  0.00  0.00    +0.000 OA
ATOM     10  C   UNL     1      -4.877  11.682  17.971  0.00  0.00    +0.000 C 
ATOM     11  O   UNL     1      -6.047  11.972  17.798  0.00  0.00    +0.000 OA
ATOM     12  N   UNL     1      -4.148  10.766  17.231  0.00  0.00    +0.000 N 
ATOM     13  C   UNL     1      -4.065  10.614  15.788  0.00  0.00    +0.000 C 
ATOM     14  C   UNL     1      -2.614  10.223  15.505  0.00  0.00    +0.000 C 
ATOM     15  C   UNL     1      -1.927  10.141  16.849  0.00  0.00    +0.000 C 
ATOM     16  C   UNL     1      -2.965  10.387  17.918  0.00  0.00    +0.000 C 
ENDBRANCH   4   7
ENDBRANCH   2   3
ENDBRANCH   1   2
BRANCH   1  17
ATOM     17  C   UNL     1       2.687   8.169  17.724  0.00  0.00    +0.000 C 
BRANCH  17  18
ATOM     18  C   UNL     1       2.531   6.835  18.451  0.00  0.00    +0.000 C 
BRANCH  18  19
ATOM     19  C   UNL     1       2.141   7.048  19.907  0.00  0.00    +0.000 C 
BRANCH  19  20
ATOM     20  C   UNL     1       1.656   5.741  20.516  0.00  0.00    +0.000 C 
BRANCH  20  21
ATOM     21  C   UNL     1       2.787   4.728  20.540  0.00  0.00    +0.000 C 
BRANCH  21  22
ATOM     22  C   UNL     1       2.267   3.362  20.130  0.00  0.00    +0.000 C 
BRANCH  22  23
ATOM     23  C   UNL     1       1.643   3.440  18.751  0.00  0.00    +0.000 C 
BRANCH  23  24
ATOM     24  C   UNL     1       2.273   2.402  17.841  0.00  0.00    +0.000 C 
BRANCH  24  25
ATOM     25  C   UNL     1       3.760   2.673  17.706  0.00  0.00    +0.000 C 
BRANCH  25  26
ATOM     26  C   UNL     1       3.984   3.983  16.973  0.00  0.00    +0.000 C 
BRANCH  26  27
ATOM     27  C   UNL     1       5.273   3.918  16.174  0.00  0.00    +0.000 C 
BRANCH  27  28
ATOM     28  C   UNL     1       6.045   5.209  16.335  0.00  0.00    +0.000 C 
BRANCH  28  30
ATOM     29  C   UNL     1       7.051   5.502  18.615  0.00  0.00    +0.000 C 
ATOM     30  C   UNL     1       5.846   5.788  17.740  0.00  0.00    +0.000 C 
ENDBRANCH  28  30
ENDBRANCH  27  28
ENDBRANCH  26  27
ENDBRANCH  25  26
ENDBRANCH  24  25
ENDBRANCH  23  24
ENDBRANCH  22  23
ENDBRANCH  21  22
ENDBRANCH  20  21
ENDBRANCH  19  20
ENDBRANCH  18  19
ENDBRANCH  17  18
ENDBRANCH   1  17
TORSDOF 16
ENDMDL
MODEL 5
REMARK VINA RESULT:      -6.2      7.090     10.568
REMARK  Name = 
REMARK  17 active torsions:
REMARK  status: ('A' for Active; 'I' for Inactive)
REMARK    1  A    between atoms: C_1  and  C_2
REMARK    2  A    between atoms: C_2  and  C_3
REMARK    3  A    between atoms: C_3  and  C_4
REMARK    4  A    between atoms: C_4  and  C_5
REMARK    5  A    between atoms: C_5  and  C_6
REMARK    6  A    between atoms: C_6  and  C_7
REMARK    7  A    between atoms: C_7  and  C_8
REMARK    8  A    between atoms: C_8  and  C_9
REMARK    9  A    between atoms: C_9  and  C_10
REMARK   10  A    between atoms: C_10  and  C_11
REMARK   11  A    between atoms: C_11  and  C_12
REMARK   12  A    between atoms: C_12  and  C_13
REMARK   13  A    between atoms: C_13  and  C_14
REMARK   14  A    between atoms: C_14  and  C_15
REMARK   15  A    between atoms: C_15  and  C_16
REMARK   16  A    between atoms: C_16  and  N_17
REMARK   17  A    between atoms: C_18  and  C_20
REMARK                            x       y       z     vdW  Elec       q    Type
REMARK                         _______ _______ _______ _____ _____    ______ ____
ROOT
ATOM      1  C   UNL     1       1.132   9.379  19.638  0.00  0.00    +0.000 C 
ENDROOT
BRANCH   1   2
ATOM      2  C   UNL     1       0.864  10.833  20.040  0.00  0.00    +0.000 C 
BRANCH   2   3
ATOM      3  N   UNL     1      -0.578  11.146  20.102  0.00  0.00    +0.000 N 
ATOM      4  C   UNL     1      -1.051  12.329  19.582  0.00  0.00    +0.000 C 
ATOM      5  O   UNL     1      -0.272  13.118  19.044  0.00  0.00    +0.000 OA
ATOM      6  H   UNL     1      -1.205  10.488  20.540  0.00  0.00    +0.000 HD
BRANCH   4   7
ATOM      7  C   UNL     1      -2.519  12.678  19.675  0.00  0.00    +0.000 C 
ATOM      8  C   UNL     1      -3.461  11.917  19.058  0.00  0.00    +0.000 C 
ATOM      9  O   UNL     1      -4.871  12.074  19.200  0.00  0.00    +0.000 OA
ATOM     10  C   UNL     1      -5.457  11.338  18.150  0.00  0.00    +0.000 C 
ATOM     11  O   UNL     1      -6.651  11.193  17.960  0.00  0.00    +0.000 OA
ATOM     12  N   UNL     1      -4.439  10.807  17.375  0.00  0.00    +0.000 N 
ATOM     13  C   UNL     1      -4.300  10.797  15.929  0.00  0.00    +0.000 C 
ATOM     14  C   UNL     1      -2.805  10.985  15.666  0.00  0.00    +0.000 C 
ATOM     15  C   UNL     1      -2.142  11.065  17.022  0.00  0.00    +0.000 C 
ATOM     16  C   UNL     1      -3.204  10.838  18.073  0.00  0.00    +0.000 C 
ENDBRANCH   4   7
ENDBRANCH   2   3
ENDBRANCH   1   2
BRANCH   1  17
ATOM     17  C   UNL     1       1.443   9.224  18.145  0.00  0.00    +0.000 C 
BRANCH  17  18
ATOM     18  C   UNL     1       2.281   7.969  17.907  0.00  0.00    +0.000 C 
BRANCH  18  19
ATOM     19  C   UNL     1       2.445   7.169  19.191  0.00  0.00    +0.000 C 
BRANCH  19  20
ATOM     20  C   UNL     1       1.925   5.753  18.995  0.00  0.00    +0.000 C 
BRANCH  20  21
ATOM     21  C   UNL     1       1.742   5.076  20.343  0.00  0.00    +0.000 C 
BRANCH  21  22
ATOM     22  C   UNL     1       0.843   3.861  20.193  0.00  0.00    +0.000 C 
BRANCH  22  23
ATOM     23  C   UNL     1       1.661   2.593  20.339  0.00  0.00    +0.000 C 
BRANCH  23  24
ATOM     24  C   UNL     1       3.074   2.937  20.771  0.00  0.00    +0.000 C 
BRANCH  24  25
ATOM     25  C   UNL     1       4.072   2.298  19.822  0.00  0.00    +0.000 C 
BRANCH  25  26
ATOM     26  C   UNL     1       4.670   3.355  18.912  0.00  0.00    +0.000 C 
BRANCH  26  27
ATOM     27  C   UNL     1       4.082   3.234  17.518  0.00  0.00    +0.000 C 
BRANCH  27  28
ATOM     28  C   UNL     1       4.893   4.058  16.542  0.00  0.00    +0.000 C 
BRANCH  28  30
ATOM     29  C   UNL     1       5.080   6.503  16.007  0.00  0.00    +0.000 C 
ATOM     30  C   UNL     1       5.157   5.459  17.105  0.00  0.00    +0.000 C 
ENDBRANCH  28  30
ENDBRANCH  27  28
ENDBRANCH  26  27
ENDBRANCH  25  26
ENDBRANCH  24  25
ENDBRANCH  23  24
ENDBRANCH  22  23
ENDBRANCH  21  22
ENDBRANCH  20  21
ENDBRANCH  19  20
ENDBRANCH  18  19
ENDBRANCH  17  18
ENDBRANCH   1  17
TORSDOF 16
ENDMDL
MODEL 6
REMARK VINA RESULT:      -6.2      6.344     10.167
REMARK  Name = 
REMARK  17 active torsions:
REMARK  status: ('A' for Active; 'I' for Inactive)
REMARK    1  A    between atoms: C_1  and  C_2
REMARK    2  A    between atoms: C_2  and  C_3
REMARK    3  A    between atoms: C_3  and  C_4
REMARK    4  A    between atoms: C_4  and  C_5
REMARK    5  A    between atoms: C_5  and  C_6
REMARK    6  A    between atoms: C_6  and  C_7
REMARK    7  A    between atoms: C_7  and  C_8
REMARK    8  A    between atoms: C_8  and  C_9
REMARK    9  A    between atoms: C_9  and  C_10
REMARK   10  A    between atoms: C_10  and  C_11
REMARK   11  A    between atoms: C_11  and  C_12
REMARK   12  A    between atoms: C_12  and  C_13
REMARK   13  A    between atoms: C_13  and  C_14
REMARK   14  A    between atoms: C_14  and  C_15
REMARK   15  A    between atoms: C_15  and  C_16
REMARK   16  A    between atoms: C_16  and  N_17
REMARK   17  A    between atoms: C_18  and  C_20
REMARK                            x       y       z     vdW  Elec       q    Type
REMARK                         _______ _______ _______ _____ _____    ______ ____
ROOT
ATOM      1  C   UNL     1       1.426   9.275  18.021  0.00  0.00    +0.000 C 
ENDROOT
BRANCH   1   2
ATOM      2  C   UNL     1       1.331  10.195  19.241  0.00  0.00    +0.000 C 
BRANCH   2   3
ATOM      3  N   UNL     1      -0.049  10.658  19.494  0.00  0.00    +0.000 N 
ATOM      4  C   UNL     1      -0.441  11.913  19.089  0.00  0.00    +0.000 C 
ATOM      5  O   UNL     1       0.354  12.643  18.495  0.00  0.00    +0.000 OA
ATOM      6  H   UNL     1      -0.691  10.048  19.976  0.00  0.00    +0.000 HD
BRANCH   4   7
ATOM      7  C   UNL     1      -1.839  12.412  19.378  0.00  0.00    +0.000 C 
ATOM      8  C   UNL     1      -2.930  11.763  18.893  0.00  0.00    +0.000 C 
ATOM      9  O   UNL     1      -4.283  12.065  19.223  0.00  0.00    +0.000 OA
ATOM     10  C   UNL     1      -5.078  11.408  18.261  0.00  0.00    +0.000 C 
ATOM     11  O   UNL     1      -6.296  11.391  18.232  0.00  0.00    +0.000 OA
ATOM     12  N   UNL     1      -4.235  10.784  17.357  0.00  0.00    +0.000 N 
ATOM     13  C   UNL     1      -4.291  10.780  15.905  0.00  0.00    +0.000 C 
ATOM     14  C   UNL     1      -2.833  10.813  15.444  0.00  0.00    +0.000 C 
ATOM     15  C   UNL     1      -1.991  10.805  16.699  0.00  0.00    +0.000 C 
ATOM     16  C   UNL     1      -2.921  10.676  17.883  0.00  0.00    +0.000 C 
ENDBRANCH   4   7
ENDBRANCH   2   3
ENDBRANCH   1   2
BRANCH   1  17
ATOM     17  C   UNL     1       2.687   8.401  18.033  0.00  0.00    +0.000 C 
BRANCH  17  18
ATOM     18  C   UNL     1       2.311   6.932  18.211  0.00  0.00    +0.000 C 
BRANCH  18  19
ATOM     19  C   UNL     1       2.855   6.382  19.522  0.00  0.00    +0.000 C 
BRANCH  19  20
ATOM     20  C   UNL     1       1.725   5.791  20.351  0.00  0.00    +0.000 C 
BRANCH  20  21
ATOM     21  C   UNL     1       2.236   4.613  21.162  0.00  0.00    +0.000 C 
BRANCH  21  22
ATOM     22  C   UNL     1       1.987   3.319  20.409  0.00  0.00    +0.000 C 
BRANCH  22  23
ATOM     23  C   UNL     1       3.237   2.460  20.432  0.00  0.00    +0.000 C 
BRANCH  23  24
ATOM     24  C   UNL     1       4.202   2.927  19.359  0.00  0.00    +0.000 C 
BRANCH  24  25
ATOM     25  C   UNL     1       3.645   2.598  17.987  0.00  0.00    +0.000 C 
BRANCH  25  26
ATOM     26  C   UNL     1       3.759   3.809  17.078  0.00  0.00    +0.000 C 
BRANCH  26  27
ATOM     27  C   UNL     1       5.150   3.876  16.474  0.00  0.00    +0.000 C 
BRANCH  27  28
ATOM     28  C   UNL     1       5.845   5.144  16.918  0.00  0.00    +0.000 C 
BRANCH  28  30
ATOM     29  C   UNL     1       7.641   5.895  18.502  0.00  0.00    +0.000 C 
ATOM     30  C   UNL     1       7.224   4.828  17.508  0.00  0.00    +0.000 C 
ENDBRANCH  28  30
ENDBRANCH  27  28
ENDBRANCH  26  27
ENDBRANCH  25  26
ENDBRANCH  24  25
ENDBRANCH  23  24
ENDBRANCH  22  23
ENDBRANCH  21  22
ENDBRANCH  20  21
ENDBRANCH  19  20
ENDBRANCH  18  19
ENDBRANCH  17  18
ENDBRANCH   1  17
TORSDOF 16
ENDMDL
MODEL 7
REMARK VINA RESULT:      -6.1      1.834      2.695
REMARK  Name = 
REMARK  17 active torsions:
REMARK  status: ('A' for Active; 'I' for Inactive)
REMARK    1  A    between atoms: C_1  and  C_2
REMARK    2  A    between atoms: C_2  and  C_3
REMARK    3  A    between atoms: C_3  and  C_4
REMARK    4  A    between atoms: C_4  and  C_5
REMARK    5  A    between atoms: C_5  and  C_6
REMARK    6  A    between atoms: C_6  and  C_7
REMARK    7  A    between atoms: C_7  and  C_8
REMARK    8  A    between atoms: C_8  and  C_9
REMARK    9  A    between atoms: C_9  and  C_10
REMARK   10  A    between atoms: C_10  and  C_11
REMARK   11  A    between atoms: C_11  and  C_12
REMARK   12  A    between atoms: C_12  and  C_13
REMARK   13  A    between atoms: C_13  and  C_14
REMARK   14  A    between atoms: C_14  and  C_15
REMARK   15  A    between atoms: C_15  and  C_16
REMARK   16  A    between atoms: C_16  and  N_17
REMARK   17  A    between atoms: C_18  and  C_20
REMARK                            x       y       z     vdW  Elec       q    Type
REMARK                         _______ _______ _______ _____ _____    ______ ____
ROOT
ATOM      1  C   UNL     1       7.404   6.268  18.731  0.00  0.00    +0.000 C 
ENDROOT
BRANCH   1   2
ATOM      2  C   UNL     1       7.551   5.271  17.578  0.00  0.00    +0.000 C 
BRANCH   2   3
ATOM      3  N   UNL     1       6.593   4.150  17.674  0.00  0.00    +0.000 N 
ATOM      4  C   UNL     1       5.449   4.153  16.910  0.00  0.00    +0.000 C 
ATOM      5  O   UNL     1       5.234   5.082  16.129  0.00  0.00    +0.000 OA
ATOM      6  H   UNL     1       6.784   3.394  18.314  0.00  0.00    +0.000 HD
BRANCH   4   7
ATOM      7  C   UNL     1       4.442   3.031  17.029  0.00  0.00    +0.000 C 
ATOM      8  C   UNL     1       3.185   3.262  17.491  0.00  0.00    +0.000 C 
ATOM      9  O   UNL     1       2.124   2.311  17.507  0.00  0.00    +0.000 OA
ATOM     10  C   UNL     1       1.136   2.838  18.362  0.00  0.00    +0.000 C 
ATOM     11  O   UNL     1       0.053   2.333  18.600  0.00  0.00    +0.000 OA
ATOM     12  N   UNL     1       1.608   4.031  18.884  0.00  0.00    +0.000 N 
ATOM     13  C   UNL     1       1.588   4.500  20.260  0.00  0.00    +0.000 C 
ATOM     14  C   UNL     1       2.901   5.261  20.445  0.00  0.00    +0.000 C 
ATOM     15  C   UNL     1       3.614   5.211  19.113  0.00  0.00    +0.000 C 
ATOM     16  C   UNL     1       2.706   4.515  18.126  0.00  0.00    +0.000 C 
ENDBRANCH   4   7
ENDBRANCH   2   3
ENDBRANCH   1   2
BRANCH   1  17
ATOM     17  C   UNL     1       8.335   7.479  18.591  0.00  0.00    +0.000 C 
BRANCH  17  18
ATOM     18  C   UNL     1       7.656   8.576  17.773  0.00  0.00    +0.000 C 
BRANCH  18  19
ATOM     19  C   UNL     1       8.417   9.890  17.881  0.00  0.00    +0.000 C 
BRANCH  19  20
ATOM     20  C   UNL     1       9.375   9.844  19.061  0.00  0.00    +0.000 C 
BRANCH  20  21
ATOM     21  C   UNL     1       9.229  11.104  19.898  0.00  0.00    +0.000 C 
BRANCH  21  22
ATOM     22  C   UNL     1      10.591  11.557  20.392  0.00  0.00    +0.000 C 
BRANCH  22  23
ATOM     23  C   UNL     1      11.587  11.542  19.247  0.00  0.00    +0.000 C 
BRANCH  23  24
ATOM     24  C   UNL     1      11.679  12.924  18.627  0.00  0.00    +0.000 C 
BRANCH  24  25
ATOM     25  C   UNL     1      11.625  13.980  19.716  0.00  0.00    +0.000 C 
BRANCH  25  26
ATOM     26  C   UNL     1      11.208  15.314  19.122  0.00  0.00    +0.000 C 
BRANCH  26  27
ATOM     27  C   UNL     1       9.793  15.221  18.581  0.00  0.00    +0.000 C 
BRANCH  27  28
ATOM     28  C   UNL     1       8.831  14.895  19.702  0.00  0.00    +0.000 C 
BRANCH  28  30
ATOM     29  C   UNL     1       8.293  15.610  22.047  0.00  0.00    +0.000 C 
ATOM     30  C   UNL     1       8.698  16.082  20.663  0.00  0.00    +0.000 C 
ENDBRANCH  28  30
ENDBRANCH  27  28
ENDBRANCH  26  27
ENDBRANCH  25  26
ENDBRANCH  24  25
ENDBRANCH  23  24
ENDBRANCH  22  23
ENDBRANCH  21  22
ENDBRANCH  20  21
ENDBRANCH  19  20
ENDBRANCH  18  19
ENDBRANCH  17  18
ENDBRANCH   1  17
TORSDOF 16
ENDMDL
MODEL 8
REMARK VINA RESULT:      -6.0      5.873      9.004
REMARK  Name = 
REMARK  17 active torsions:
REMARK  status: ('A' for Active; 'I' for Inactive)
REMARK    1  A    between atoms: C_1  and  C_2
REMARK    2  A    between atoms: C_2  and  C_3
REMARK    3  A    between atoms: C_3  and  C_4
REMARK    4  A    between atoms: C_4  and  C_5
REMARK    5  A    between atoms: C_5  and  C_6
REMARK    6  A    between atoms: C_6  and  C_7
REMARK    7  A    between atoms: C_7  and  C_8
REMARK    8  A    between atoms: C_8  and  C_9
REMARK    9  A    between atoms: C_9  and  C_10
REMARK   10  A    between atoms: C_10  and  C_11
REMARK   11  A    between atoms: C_11  and  C_12
REMARK   12  A    between atoms: C_12  and  C_13
REMARK   13  A    between atoms: C_13  and  C_14
REMARK   14  A    between atoms: C_14  and  C_15
REMARK   15  A    between atoms: C_15  and  C_16
REMARK   16  A    between atoms: C_16  and  N_17
REMARK   17  A    between atoms: C_18  and  C_20
REMARK                            x       y       z     vdW  Elec       q    Type
REMARK                         _______ _______ _______ _____ _____    ______ ____
ROOT
ATOM      1  C   UNL     1       2.732   6.224  19.587  0.00  0.00    +0.000 C 
ENDROOT
BRANCH   1   2
ATOM      2  C   UNL     1       2.669   7.343  18.544  0.00  0.00    +0.000 C 
BRANCH   2   3
ATOM      3  N   UNL     1       1.379   8.063  18.565  0.00  0.00    +0.000 N 
ATOM      4  C   UNL     1       1.343   9.420  18.340  0.00  0.00    +0.000 C 
ATOM      5  O   UNL     1       2.385  10.031  18.100  0.00  0.00    +0.000 OA
ATOM      6  H   UNL     1       0.533   7.549  18.758  0.00  0.00    +0.000 HD
BRANCH   4   7
ATOM      7  C   UNL     1       0.033  10.174  18.398  0.00  0.00    +0.000 C 
ATOM      8  C   UNL     1      -0.307  10.905  19.492  0.00  0.00    +0.000 C 
ATOM      9  O   UNL     1      -1.442  11.762  19.590  0.00  0.00    +0.000 OA
ATOM     10  C   UNL     1      -1.608  12.039  20.963  0.00  0.00    +0.000 C 
ATOM     11  O   UNL     1      -2.450  12.775  21.446  0.00  0.00    +0.000 OA
ATOM     12  N   UNL     1      -0.646  11.332  21.665  0.00  0.00    +0.000 N 
ATOM     13  C   UNL     1      -0.797  10.522  22.862  0.00  0.00    +0.000 C 
ATOM     14  C   UNL     1       0.162   9.346  22.678  0.00  0.00    +0.000 C 
ATOM     15  C   UNL     1       0.857   9.567  21.354  0.00  0.00    +0.000 C 
ATOM     16  C   UNL     1       0.391  10.894  20.801  0.00  0.00    +0.000 C 
ENDBRANCH   4   7
ENDBRANCH   2   3
ENDBRANCH   1   2
BRANCH   1  17
ATOM     17  C   UNL     1       1.343   5.723  20.004  0.00  0.00    +0.000 C 
BRANCH  17  18
ATOM     18  C   UNL     1       1.470   4.462  20.857  0.00  0.00    +0.000 C 
BRANCH  18  19
ATOM     19  C   UNL     1       2.929   4.080  21.056  0.00  0.00    +0.000 C 
BRANCH  19  20
ATOM     20  C   UNL     1       3.121   2.593  20.798  0.00  0.00    +0.000 C 
BRANCH  20  21
ATOM     21  C   UNL     1       4.121   2.386  19.673  0.00  0.00    +0.000 C 
BRANCH  21  22
ATOM     22  C   UNL     1       3.463   2.679  18.336  0.00  0.00    +0.000 C 
BRANCH  22  23
ATOM     23  C   UNL     1       4.512   3.099  17.325  0.00  0.00    +0.000 C 
BRANCH  23  24
ATOM     24  C   UNL     1       4.020   4.303  16.543  0.00  0.00    +0.000 C 
BRANCH  24  25
ATOM     25  C   UNL     1       5.181   4.946  15.807  0.00  0.00    +0.000 C 
BRANCH  25  26
ATOM     26  C   UNL     1       5.133   6.453  15.982  0.00  0.00    +0.000 C 
BRANCH  26  27
ATOM     27  C   UNL     1       5.977   6.864  17.175  0.00  0.00    +0.000 C 
BRANCH  27  28
ATOM     28  C   UNL     1       7.323   6.176  17.117  0.00  0.00    +0.000 C 
BRANCH  28  30
ATOM     29  C   UNL     1       6.400   5.450  19.334  0.00  0.00    +0.000 C 
ATOM     30  C   UNL     1       7.625   5.466  18.441  0.00  0.00    +0.000 C 
ENDBRANCH  28  30
ENDBRANCH  27  28
ENDBRANCH  26  27
ENDBRANCH  25  26
ENDBRANCH  24  25
ENDBRANCH  23  24
ENDBRANCH  22  23
ENDBRANCH  21  22
ENDBRANCH  20  21
ENDBRANCH  19  20
ENDBRANCH  18  19
ENDBRANCH  17  18
ENDBRANCH   1  17
TORSDOF 16
ENDMDL
MODEL 9
REMARK VINA RESULT:      -6.0      4.818     11.878
REMARK  Name = 
REMARK  17 active torsions:
REMARK  status: ('A' for Active; 'I' for Inactive)
REMARK    1  A    between atoms: C_1  and  C_2
REMARK    2  A    between atoms: C_2  and  C_3
REMARK    3  A    between atoms: C_3  and  C_4
REMARK    4  A    between atoms: C_4  and  C_5
REMARK    5  A    between atoms: C_5  and  C_6
REMARK    6  A    between atoms: C_6  and  C_7
REMARK    7  A    between atoms: C_7  and  C_8
REMARK    8  A    between atoms: C_8  and  C_9
REMARK    9  A    between atoms: C_9  and  C_10
REMARK   10  A    between atoms: C_10  and  C_11
REMARK   11  A    between atoms: C_11  and  C_12
REMARK   12  A    between atoms: C_12  and  C_13
REMARK   13  A    between atoms: C_13  and  C_14
REMARK   14  A    between atoms: C_14  and  C_15
REMARK   15  A    between atoms: C_15  and  C_16
REMARK   16  A    between atoms: C_16  and  N_17
REMARK   17  A    between atoms: C_18  and  C_20
REMARK                            x       y       z     vdW  Elec       q    Type
REMARK                         _______ _______ _______ _____ _____    ______ ____
ROOT
ATOM      1  C   UNL     1       8.141   9.352  18.165  0.00  0.00    +0.000 C 
ENDROOT
BRANCH   1   2
ATOM      2  C   UNL     1       9.359  10.046  18.781  0.00  0.00    +0.000 C 
BRANCH   2   3
ATOM      3  N   UNL     1       9.896  11.118  17.918  0.00  0.00    +0.000 N 
ATOM      4  C   UNL     1      11.074  11.746  18.250  0.00  0.00    +0.000 C 
ATOM      5  O   UNL     1      11.692  11.400  19.258  0.00  0.00    +0.000 OA
ATOM      6  H   UNL     1       9.382  11.388  17.093  0.00  0.00    +0.000 HD
BRANCH   4   7
ATOM      7  C   UNL     1      11.613  12.871  17.394  0.00  0.00    +0.000 C 
ATOM      8  C   UNL     1      11.500  14.167  17.787  0.00  0.00    +0.000 C 
ATOM      9  O   UNL     1      12.096  15.283  17.130  0.00  0.00    +0.000 OA
ATOM     10  C   UNL     1      11.456  16.429  17.644  0.00  0.00    +0.000 C 
ATOM     11  O   UNL     1      11.721  17.583  17.358  0.00  0.00    +0.000 OA
ATOM     12  N   UNL     1      10.476  16.016  18.531  0.00  0.00    +0.000 N 
ATOM     13  C   UNL     1       9.095  16.455  18.640  0.00  0.00    +0.000 C 
ATOM     14  C   UNL     1       8.301  15.202  19.010  0.00  0.00    +0.000 C 
ATOM     15  C   UNL     1       9.307  14.080  19.127  0.00  0.00    +0.000 C 
ATOM     16  C   UNL     1      10.684  14.667  18.921  0.00  0.00    +0.000 C 
ENDBRANCH   4   7
ENDBRANCH   2   3
ENDBRANCH   1   2
BRANCH   1  17
ATOM     17  C   UNL     1       8.212   7.823  18.274  0.00  0.00    +0.000 C 
BRANCH  17  18
ATOM     18  C   UNL     1       7.566   7.175  17.051  0.00  0.00    +0.000 C 
BRANCH  18  19
ATOM     19  C   UNL     1       6.250   6.505  17.417  0.00  0.00    +0.000 C 
BRANCH  19  20
ATOM     20  C   UNL     1       6.434   5.628  18.646  0.00  0.00    +0.000 C 
BRANCH  20  21
ATOM     21  C   UNL     1       5.149   5.592  19.456  0.00  0.00    +0.000 C 
BRANCH  21  22
ATOM     22  C   UNL     1       3.966   5.343  18.538  0.00  0.00    +0.000 C 
BRANCH  22  23
ATOM     23  C   UNL     1       2.860   6.336  18.841  0.00  0.00    +0.000 C 
BRANCH  23  24
ATOM     24  C   UNL     1       2.359   6.132  20.258  0.00  0.00    +0.000 C 
BRANCH  24  25
ATOM     25  C   UNL     1       2.381   4.655  20.604  0.00  0.00    +0.000 C 
BRANCH  25  26
ATOM     26  C   UNL     1       0.991   4.065  20.446  0.00  0.00    +0.000 C 
BRANCH  26  27
ATOM     27  C   UNL     1       1.065   2.762  19.670  0.00  0.00    +0.000 C 
BRANCH  27  28
ATOM     28  C   UNL     1       1.303   3.047  18.203  0.00  0.00    +0.000 C 
BRANCH  28  30
ATOM     29  C   UNL     1       3.352   1.703  18.744  0.00  0.00    +0.000 C 
ATOM     30  C   UNL     1       2.398   2.133  17.645  0.00  0.00    +0.000 C 
ENDBRANCH  28  30
ENDBRANCH  27  28
ENDBRANCH  26  27
ENDBRANCH  25  26
ENDBRANCH  24  25
ENDBRANCH  23  24
ENDBRANCH  22  23
ENDBRANCH  21  22
ENDBRANCH  20  21
ENDBRANCH  19  20
ENDBRANCH  18  19
ENDBRANCH  17  18
ENDBRANCH   1  17
TORSDOF 16
ENDMDL
