MODEL 1
REMARK VINA RESULT:      -7.9      0.000      0.000
REMARK  Name = 
REMARK  5 active torsions:
REMARK  status: ('A' for Active; 'I' for Inactive)
REMARK    1  A    between atoms: C_1  and  N_2
REMARK    2  A    between atoms: N_2  and  C_3
REMARK    3  A    between atoms: N_2  and  C_4
REMARK    4  A    between atoms: C_7  and  C_8
REMARK    5  A    between atoms: N_9  and  N_10
REMARK                            x       y       z     vdW  Elec       q    Type
REMARK                         _______ _______ _______ _____ _____    ______ ____
ROOT
ATOM      1  N   UNL     1       9.208  11.089  18.823  0.00  0.00    +0.000 N 
ATOM      2  C   UNL     1       9.178  12.386  18.303  0.00  0.00    +0.000 C 
ATOM      3  O   UNL     1       8.621  12.671  17.243  0.00  0.00    +0.000 OA
ATOM      4  N   UNL     1       9.862  13.348  19.140  0.00  0.00    +0.000 N 
ATOM      5  C   UNL     1       9.987  14.635  18.514  0.00  0.00    +0.000 A 
ATOM      6  C   UNL     1      10.917  14.748  17.465  0.00  0.00    +0.000 A 
ATOM      7  C   UNL     1      11.100  15.959  16.799  0.00  0.00    +0.000 A 
ATOM      8  C   UNL     1      10.364  17.077  17.183  0.00  0.00    +0.000 A 
ATOM      9  C   UNL     1       9.418  16.970  18.206  0.00  0.00    +0.000 A 
ATOM     10  C   UNL     1       9.205  15.747  18.861  0.00  0.00    +0.000 A 
ATOM     11  S   UNL     1       7.815  15.607  19.974  0.00  0.00    +0.000 S 
ATOM     12  C   UNL     1       8.208  14.087  20.799  0.00  0.00    +0.000 A 
ATOM     13  C   UNL     1       7.354  13.584  21.782  0.00  0.00    +0.000 A 
ATOM     14  C   UNL     1       7.724  12.467  22.534  0.00  0.00    +0.000 A 
ATOM     15  C   UNL     1       9.000  11.924  22.394  0.00  0.00    +0.000 A 
ATOM     16  C   UNL     1       9.838  12.394  21.386  0.00  0.00    +0.000 A 
ATOM     17  C   UNL     1       9.370  13.369  20.492  0.00  0.00    +0.000 A 
ATOM     18  H   UNL     1       9.806  10.876  19.604  0.00  0.00    +0.000 HD
ENDROOT
BRANCH   1  20
ATOM     19  C   UNL     1       8.767   8.903  18.564  0.00  0.00    +0.000 C 
ATOM     20  N   UNL     1       8.370  10.113  18.351  0.00  0.00    +0.000 NA
BRANCH  19  24
ATOM     21  C   UNL     1       6.383   5.462  17.446  0.00  0.00    +0.000 A 
ATOM     22  C   UNL     1       7.366   5.391  18.452  0.00  0.00    +0.000 A 
ATOM     23  C   UNL     1       8.125   6.503  18.835  0.00  0.00    +0.000 A 
ATOM     24  C   UNL     1       7.931   7.732  18.213  0.00  0.00    +0.000 A 
ATOM     25  C   UNL     1       6.967   7.843  17.214  0.00  0.00    +0.000 A 
ATOM     26  C   UNL     1       6.207   6.723  16.846  0.00  0.00    +0.000 A 
BRANCH  21  28
ATOM     27  C   UNL     1       4.519   3.881  17.871  0.00  0.00    +0.000 C 
ATOM     28  N   UNL     1       5.641   4.347  17.063  0.00  0.00    +0.000 N 
ATOM     29  C   UNL     1       5.868   3.693  15.780  0.00  0.00    +0.000 C 
ENDBRANCH  21  28
ENDBRANCH  19  24
ENDBRANCH   1  20
TORSDOF 3
ENDMDL
MODEL 2
REMARK VINA RESULT:      -7.9      0.193      1.133
REMARK  Name = 
REMARK  5 active torsions:
REMARK  status: ('A' for Active; 'I' for Inactive)
REMARK    1  A    between atoms: C_1  and  N_2
REMARK    2  A    between atoms: N_2  and  C_3
REMARK    3  A    between atoms: N_2  and  C_4
REMARK    4  A    between atoms: C_7  and  C_8
REMARK    5  A    between atoms: N_9  and  N_10
REMARK                            x       y       z     vdW  Elec       q    Type
REMARK                         _______ _______ _______ _____ _____    ______ ____
ROOT
ATOM      1  N   UNL     1       9.280  11.156  18.787  0.00  0.00    +0.000 N 
ATOM      2  C   UNL     1       9.241  12.455  18.273  0.00  0.00    +0.000 C 
ATOM      3  O   UNL     1       8.679  12.741  17.216  0.00  0.00    +0.000 OA
ATOM      4  N   UNL     1       9.920  13.418  19.112  0.00  0.00    +0.000 N 
ATOM      5  C   UNL     1      10.037  14.708  18.491  0.00  0.00    +0.000 A 
ATOM      6  C   UNL     1      10.963  14.831  17.440  0.00  0.00    +0.000 A 
ATOM      7  C   UNL     1      11.137  16.046  16.779  0.00  0.00    +0.000 A 
ATOM      8  C   UNL     1      10.395  17.158  17.169  0.00  0.00    +0.000 A 
ATOM      9  C   UNL     1       9.452  17.040  18.193  0.00  0.00    +0.000 A 
ATOM     10  C   UNL     1       9.248  15.813  18.844  0.00  0.00    +0.000 A 
ATOM     11  S   UNL     1       7.862  15.662  19.960  0.00  0.00    +0.000 S 
ATOM     12  C   UNL     1       8.266  14.140  20.778  0.00  0.00    +0.000 A 
ATOM     13  C   UNL     1       7.418  13.628  21.761  0.00  0.00    +0.000 A 
ATOM     14  C   UNL     1       7.797  12.510  22.508  0.00  0.00    +0.000 A 
ATOM     15  C   UNL     1       9.075  11.976  22.362  0.00  0.00    +0.000 A 
ATOM     16  C   UNL     1       9.908  12.455  21.355  0.00  0.00    +0.000 A 
ATOM     17  C   UNL     1       9.432  13.430  20.466  0.00  0.00    +0.000 A 
ATOM     18  H   UNL     1       9.880  10.944  19.566  0.00  0.00    +0.000 HD
ENDROOT
BRANCH   1  20
ATOM     19  C   UNL     1       8.822   8.969  18.572  0.00  0.00    +0.000 C 
ATOM     20  N   UNL     1       8.446  10.178  18.314  0.00  0.00    +0.000 NA
BRANCH  19  24
ATOM     21  C   UNL     1       6.313   5.559  17.646  0.00  0.00    +0.000 A 
ATOM     22  C   UNL     1       6.154   6.799  16.997  0.00  0.00    +0.000 A 
ATOM     23  C   UNL     1       6.974   7.899  17.274  0.00  0.00    +0.000 A 
ATOM     24  C   UNL     1       7.985   7.798  18.224  0.00  0.00    +0.000 A 
ATOM     25  C   UNL     1       8.175   6.588  18.887  0.00  0.00    +0.000 A 
ATOM     26  C   UNL     1       7.352   5.490  18.594  0.00  0.00    +0.000 A 
BRANCH  21  28
ATOM     27  C   UNL     1       5.470   3.857  16.051  0.00  0.00    +0.000 C 
ATOM     28  N   UNL     1       5.485   4.474  17.373  0.00  0.00    +0.000 N 
ATOM     29  C   UNL     1       4.710   3.831  18.428  0.00  0.00    +0.000 C 
ENDBRANCH  21  28
ENDBRANCH  19  24
ENDBRANCH   1  20
TORSDOF 3
ENDMDL
MODEL 3
REMARK VINA RESULT:      -7.6      7.936      9.646
REMARK  Name = 
REMARK  5 active torsions:
REMARK  status: ('A' for Active; 'I' for Inactive)
REMARK    1  A    between atoms: C_1  and  N_2
REMARK    2  A    between atoms: N_2  and  C_3
REMARK    3  A    between atoms: N_2  and  C_4
REMARK    4  A    between atoms: C_7  and  C_8
REMARK    5  A    between atoms: N_9  and  N_10
REMARK                            x       y       z     vdW  Elec       q    Type
REMARK                         _______ _______ _______ _____ _____    ______ ____
ROOT
ATOM      1  N   UNL     1       0.587  10.766  18.266  0.00  0.00    +0.000 N 
ATOM      2  C   UNL     1      -0.782  10.722  18.540  0.00  0.00    +0.000 C 
ATOM      3  O   UNL     1      -1.358   9.702  18.916  0.00  0.00    +0.000 OA
ATOM      4  N   UNL     1      -1.442  11.994  18.339  0.00  0.00    +0.000 N 
ATOM      5  C   UNL     1      -2.872  11.898  18.441  0.00  0.00    +0.000 A 
ATOM      6  C   UNL     1      -3.548  11.275  17.379  0.00  0.00    +0.000 A 
ATOM      7  C   UNL     1      -4.936  11.135  17.398  0.00  0.00    +0.000 A 
ATOM      8  C   UNL     1      -5.665  11.629  18.476  0.00  0.00    +0.000 A 
ATOM      9  C   UNL     1      -5.001  12.226  19.551  0.00  0.00    +0.000 A 
ATOM     10  C   UNL     1      -3.602  12.344  19.554  0.00  0.00    +0.000 A 
ATOM     11  S   UNL     1      -2.795  12.878  21.055  0.00  0.00    +0.000 S 
ATOM     12  C   UNL     1      -1.167  13.230  20.444  0.00  0.00    +0.000 A 
ATOM     13  C   UNL     1      -0.177  13.688  21.315  0.00  0.00    +0.000 A 
ATOM     14  C   UNL     1       1.062  14.101  20.821  0.00  0.00    +0.000 A 
ATOM     15  C   UNL     1       1.273  14.177  19.445  0.00  0.00    +0.000 A 
ATOM     16  C   UNL     1       0.306  13.681  18.575  0.00  0.00    +0.000 A 
ATOM     17  C   UNL     1      -0.843  13.064  19.092  0.00  0.00    +0.000 A 
ATOM     18  H   UNL     1       0.981  11.573  17.812  0.00  0.00    +0.000 HD
ENDROOT
BRANCH   1  20
ATOM     19  C   UNL     1       1.671   8.854  17.807  0.00  0.00    +0.000 C 
ATOM     20  N   UNL     1       1.429   9.770  18.685  0.00  0.00    +0.000 NA
BRANCH  19  24
ATOM     21  C   UNL     1       4.433   5.590  18.507  0.00  0.00    +0.000 A 
ATOM     22  C   UNL     1       4.583   6.472  17.419  0.00  0.00    +0.000 A 
ATOM     23  C   UNL     1       3.708   7.542  17.198  0.00  0.00    +0.000 A 
ATOM     24  C   UNL     1       2.639   7.764  18.060  0.00  0.00    +0.000 A 
ATOM     25  C   UNL     1       2.458   6.913  19.149  0.00  0.00    +0.000 A 
ATOM     26  C   UNL     1       3.347   5.849  19.364  0.00  0.00    +0.000 A 
BRANCH  21  28
ATOM     27  C   UNL     1       4.833   3.283  19.325  0.00  0.00    +0.000 C 
ATOM     28  N   UNL     1       5.301   4.521  18.712  0.00  0.00    +0.000 N 
ATOM     29  C   UNL     1       6.666   4.547  18.199  0.00  0.00    +0.000 C 
ENDBRANCH  21  28
ENDBRANCH  19  24
ENDBRANCH   1  20
TORSDOF 3
ENDMDL
MODEL 4
REMARK VINA RESULT:      -7.6      7.160     10.489
REMARK  Name = 
REMARK  5 active torsions:
REMARK  status: ('A' for Active; 'I' for Inactive)
REMARK    1  A    between atoms: C_1  and  N_2
REMARK    2  A    between atoms: N_2  and  C_3
REMARK    3  A    between atoms: N_2  and  C_4
REMARK    4  A    between atoms: C_7  and  C_8
REMARK    5  A    between atoms: N_9  and  N_10
REMARK                            x       y       z     vdW  Elec       q    Type
REMARK                         _______ _______ _______ _____ _____    ______ ____
ROOT
ATOM      1  N   UNL     1       2.098   7.283  18.099  0.00  0.00    +0.000 N 
ATOM      2  C   UNL     1       3.395   6.920  17.731  0.00  0.00    +0.000 C 
ATOM      3  O   UNL     1       4.344   7.705  17.752  0.00  0.00    +0.000 OA
ATOM      4  N   UNL     1       3.504   5.534  17.329  0.00  0.00    +0.000 N 
ATOM      5  C   UNL     1       4.792   5.217  16.777  0.00  0.00    +0.000 A 
ATOM      6  C   UNL     1       5.074   5.709  15.490  0.00  0.00    +0.000 A 
ATOM      7  C   UNL     1       6.303   5.452  14.881  0.00  0.00    +0.000 A 
ATOM      8  C   UNL     1       7.258   4.689  15.546  0.00  0.00    +0.000 A 
ATOM      9  C   UNL     1       6.999   4.219  16.836  0.00  0.00    +0.000 A 
ATOM     10  C   UNL     1       5.777   4.498  17.470  0.00  0.00    +0.000 A 
ATOM     11  S   UNL     1       5.604   4.093  19.201  0.00  0.00    +0.000 S 
ATOM     12  C   UNL     1       3.849   4.261  19.401  0.00  0.00    +0.000 A 
ATOM     13  C   UNL     1       3.263   4.031  20.646  0.00  0.00    +0.000 A 
ATOM     14  C   UNL     1       1.873   4.022  20.781  0.00  0.00    +0.000 A 
ATOM     15  C   UNL     1       1.063   4.118  19.651  0.00  0.00    +0.000 A 
ATOM     16  C   UNL     1       1.641   4.391  18.415  0.00  0.00    +0.000 A 
ATOM     17  C   UNL     1       3.023   4.618  18.329  0.00  0.00    +0.000 A 
ATOM     18  H   UNL     1       1.331   6.658  17.916  0.00  0.00    +0.000 HD
ENDROOT
BRANCH   1  20
ATOM     19  C   UNL     1       1.209   9.344  18.135  0.00  0.00    +0.000 C 
ATOM     20  N   UNL     1       1.852   8.438  18.794  0.00  0.00    +0.000 NA
BRANCH  19  24
ATOM     21  C   UNL     1      -0.042  13.006  20.086  0.00  0.00    +0.000 A 
ATOM     22  C   UNL     1       1.173  12.916  19.380  0.00  0.00    +0.000 A 
ATOM     23  C   UNL     1       1.575  11.744  18.729  0.00  0.00    +0.000 A 
ATOM     24  C   UNL     1       0.771  10.609  18.768  0.00  0.00    +0.000 A 
ATOM     25  C   UNL     1      -0.439  10.658  19.456  0.00  0.00    +0.000 A 
ATOM     26  C   UNL     1      -0.834  11.842  20.098  0.00  0.00    +0.000 A 
BRANCH  21  28
ATOM     27  C   UNL     1      -0.191  14.341  22.171  0.00  0.00    +0.000 C 
ATOM     28  N   UNL     1      -0.428  14.172  20.742  0.00  0.00    +0.000 N 
ATOM     29  C   UNL     1      -0.954  15.315  20.004  0.00  0.00    +0.000 C 
ENDBRANCH  21  28
ENDBRANCH  19  24
ENDBRANCH   1  20
TORSDOF 3
ENDMDL
MODEL 5
REMARK VINA RESULT:      -7.6      7.210     10.515
REMARK  Name = 
REMARK  5 active torsions:
REMARK  status: ('A' for Active; 'I' for Inactive)
REMARK    1  A    between atoms: C_1  and  N_2
REMARK    2  A    between atoms: N_2  and  C_3
REMARK    3  A    between atoms: N_2  and  C_4
REMARK    4  A    between atoms: C_7  and  C_8
REMARK    5  A    between atoms: N_9  and  N_10
REMARK                            x       y       z     vdW  Elec       q    Type
REMARK                         _______ _______ _______ _____ _____    ______ ____
ROOT
ATOM      1  N   UNL     1       2.059   7.260  18.022  0.00  0.00    +0.000 N 
ATOM      2  C   UNL     1       3.372   6.919  17.684  0.00  0.00    +0.000 C 
ATOM      3  O   UNL     1       4.300   7.728  17.699  0.00  0.00    +0.000 OA
ATOM      4  N   UNL     1       3.521   5.526  17.324  0.00  0.00    +0.000 N 
ATOM      5  C   UNL     1       4.825   5.226  16.802  0.00  0.00    +0.000 A 
ATOM      6  C   UNL     1       5.117   5.688  15.506  0.00  0.00    +0.000 A 
ATOM      7  C   UNL     1       6.361   5.445  14.924  0.00  0.00    +0.000 A 
ATOM      8  C   UNL     1       7.324   4.725  15.626  0.00  0.00    +0.000 A 
ATOM      9  C   UNL     1       7.055   4.286  16.925  0.00  0.00    +0.000 A 
ATOM     10  C   UNL     1       5.817   4.552  17.531  0.00  0.00    +0.000 A 
ATOM     11  S   UNL     1       5.625   4.191  19.269  0.00  0.00    +0.000 S 
ATOM     12  C   UNL     1       3.864   4.320  19.437  0.00  0.00    +0.000 A 
ATOM     13  C   UNL     1       3.262   4.111  20.679  0.00  0.00    +0.000 A 
ATOM     14  C   UNL     1       1.871   4.071  20.792  0.00  0.00    +0.000 A 
ATOM     15  C   UNL     1       1.078   4.115  19.647  0.00  0.00    +0.000 A 
ATOM     16  C   UNL     1       1.670   4.367  18.413  0.00  0.00    +0.000 A 
ATOM     17  C   UNL     1       3.046   4.626  18.343  0.00  0.00    +0.000 A 
ATOM     18  H   UNL     1       1.312   6.610  17.845  0.00  0.00    +0.000 HD
ENDROOT
BRANCH   1  20
ATOM     19  C   UNL     1       1.120   9.298  17.985  0.00  0.00    +0.000 C 
ATOM     20  N   UNL     1       1.774   8.427  18.679  0.00  0.00    +0.000 NA
BRANCH  19  24
ATOM     21  C   UNL     1      -0.288  13.061  19.608  0.00  0.00    +0.000 A 
ATOM     22  C   UNL     1      -1.135  11.943  19.476  0.00  0.00    +0.000 A 
ATOM     23  C   UNL     1      -0.684  10.718  18.973  0.00  0.00    +0.000 A 
ATOM     24  C   UNL     1       0.641  10.569  18.574  0.00  0.00    +0.000 A 
ATOM     25  C   UNL     1       1.510  11.651  18.690  0.00  0.00    +0.000 A 
ATOM     26  C   UNL     1       1.047  12.872  19.204  0.00  0.00    +0.000 A 
BRANCH  21  28
ATOM     27  C   UNL     1      -0.243  15.540  19.568  0.00  0.00    +0.000 C 
ATOM     28  N   UNL     1      -0.750  14.280  20.098  0.00  0.00    +0.000 N 
ATOM     29  C   UNL     1      -1.849  14.343  21.055  0.00  0.00    +0.000 C 
ENDBRANCH  21  28
ENDBRANCH  19  24
ENDBRANCH   1  20
TORSDOF 3
ENDMDL
MODEL 6
REMARK VINA RESULT:      -7.5      7.638      9.328
REMARK  Name = 
REMARK  5 active torsions:
REMARK  status: ('A' for Active; 'I' for Inactive)
REMARK    1  A    between atoms: C_1  and  N_2
REMARK    2  A    between atoms: N_2  and  C_3
REMARK    3  A    between atoms: N_2  and  C_4
REMARK    4  A    between atoms: C_7  and  C_8
REMARK    5  A    between atoms: N_9  and  N_10
REMARK                            x       y       z     vdW  Elec       q    Type
REMARK                         _______ _______ _______ _____ _____    ______ ____
ROOT
ATOM      1  N   UNL     1      -0.083  10.727  17.883  0.00  0.00    +0.000 N 
ATOM      2  C   UNL     1      -1.062  10.929  18.860  0.00  0.00    +0.000 C 
ATOM      3  O   UNL     1      -1.603  10.005  19.468  0.00  0.00    +0.000 OA
ATOM      4  N   UNL     1      -1.365  12.326  19.080  0.00  0.00    +0.000 N 
ATOM      5  C   UNL     1      -2.496  12.519  19.944  0.00  0.00    +0.000 A 
ATOM      6  C   UNL     1      -3.764  12.233  19.410  0.00  0.00    +0.000 A 
ATOM      7  C   UNL     1      -4.916  12.387  20.182  0.00  0.00    +0.000 A 
ATOM      8  C   UNL     1      -4.813  12.842  21.494  0.00  0.00    +0.000 A 
ATOM      9  C   UNL     1      -3.556  13.103  22.043  0.00  0.00    +0.000 A 
ATOM     10  C   UNL     1      -2.389  12.921  21.284  0.00  0.00    +0.000 A 
ATOM     11  S   UNL     1      -0.809  13.023  22.112  0.00  0.00    +0.000 S 
ATOM     12  C   UNL     1       0.284  13.119  20.719  0.00  0.00    +0.000 A 
ATOM     13  C   UNL     1       1.663  13.210  20.917  0.00  0.00    +0.000 A 
ATOM     14  C   UNL     1       2.519  13.428  19.835  0.00  0.00    +0.000 A 
ATOM     15  C   UNL     1       1.992  13.680  18.570  0.00  0.00    +0.000 A 
ATOM     16  C   UNL     1       0.622  13.546  18.359  0.00  0.00    +0.000 A 
ATOM     17  C   UNL     1      -0.202  13.110  19.406  0.00  0.00    +0.000 A 
ATOM     18  H   UNL     1       0.213  11.496  17.305  0.00  0.00    +0.000 HD
ENDROOT
BRANCH   1  20
ATOM     19  C   UNL     1       1.604   9.378  18.492  0.00  0.00    +0.000 C 
ATOM     20  N   UNL     1       0.555   9.522  17.753  0.00  0.00    +0.000 NA
BRANCH  19  24
ATOM     21  C   UNL     1       3.876   5.694  18.698  0.00  0.00    +0.000 A 
ATOM     22  C   UNL     1       2.951   6.055  19.697  0.00  0.00    +0.000 A 
ATOM     23  C   UNL     1       2.197   7.232  19.627  0.00  0.00    +0.000 A 
ATOM     24  C   UNL     1       2.350   8.100  18.551  0.00  0.00    +0.000 A 
ATOM     25  C   UNL     1       3.255   7.778  17.542  0.00  0.00    +0.000 A 
ATOM     26  C   UNL     1       3.999   6.590  17.620  0.00  0.00    +0.000 A 
BRANCH  21  28
ATOM     27  C   UNL     1       4.053   3.296  19.310  0.00  0.00    +0.000 C 
ATOM     28  N   UNL     1       4.631   4.527  18.782  0.00  0.00    +0.000 N 
ATOM     29  C   UNL     1       5.976   4.455  18.222  0.00  0.00    +0.000 C 
ENDBRANCH  21  28
ENDBRANCH  19  24
ENDBRANCH   1  20
TORSDOF 3
ENDMDL
MODEL 7
REMARK VINA RESULT:      -7.5      8.001      9.699
REMARK  Name = 
REMARK  5 active torsions:
REMARK  status: ('A' for Active; 'I' for Inactive)
REMARK    1  A    between atoms: C_1  and  N_2
REMARK    2  A    between atoms: N_2  and  C_3
REMARK    3  A    between atoms: N_2  and  C_4
REMARK    4  A    between atoms: C_7  and  C_8
REMARK    5  A    between atoms: N_9  and  N_10
REMARK                            x       y       z     vdW  Elec       q    Type
REMARK                         _______ _______ _______ _____ _____    ______ ____
ROOT
ATOM      1  N   UNL     1      -0.183  10.491  17.702  0.00  0.00    +0.000 N 
ATOM      2  C   UNL     1      -1.350  10.652  18.454  0.00  0.00    +0.000 C 
ATOM      3  O   UNL     1      -1.987   9.705  18.915  0.00  0.00    +0.000 OA
ATOM      4  N   UNL     1      -1.722  12.039  18.635  0.00  0.00    +0.000 N 
ATOM      5  C   UNL     1      -3.013  12.191  19.245  0.00  0.00    +0.000 A 
ATOM      6  C   UNL     1      -4.135  11.898  18.450  0.00  0.00    +0.000 A 
ATOM      7  C   UNL     1      -5.426  12.013  18.964  0.00  0.00    +0.000 A 
ATOM      8  C   UNL     1      -5.611  12.437  20.277  0.00  0.00    +0.000 A 
ATOM      9  C   UNL     1      -4.503  12.704  21.085  0.00  0.00    +0.000 A 
ATOM     10  C   UNL     1      -3.199  12.561  20.586  0.00  0.00    +0.000 A 
ATOM     11  S   UNL     1      -1.832  12.668  21.731  0.00  0.00    +0.000 S 
ATOM     12  C   UNL     1      -0.472  12.816  20.601  0.00  0.00    +0.000 A 
ATOM     13  C   UNL     1       0.832  12.925  21.088  0.00  0.00    +0.000 A 
ATOM     14  C   UNL     1       1.891  13.184  20.216  0.00  0.00    +0.000 A 
ATOM     15  C   UNL     1       1.637  13.459  18.874  0.00  0.00    +0.000 A 
ATOM     16  C   UNL     1       0.346  13.309  18.376  0.00  0.00    +0.000 A 
ATOM     17  C   UNL     1      -0.671  12.833  19.216  0.00  0.00    +0.000 A 
ATOM     18  H   UNL     1       0.212  11.279  17.216  0.00  0.00    +0.000 HD
ENDROOT
BRANCH   1  20
ATOM     19  C   UNL     1       1.684   9.342  18.180  0.00  0.00    +0.000 C 
ATOM     20  N   UNL     1       0.493   9.300  17.683  0.00  0.00    +0.000 NA
BRANCH  19  24
ATOM     21  C   UNL     1       4.022   5.716  18.588  0.00  0.00    +0.000 A 
ATOM     22  C   UNL     1       4.224   6.617  17.525  0.00  0.00    +0.000 A 
ATOM     23  C   UNL     1       3.489   7.801  17.397  0.00  0.00    +0.000 A 
ATOM     24  C   UNL     1       2.512   8.124  18.333  0.00  0.00    +0.000 A 
ATOM     25  C   UNL     1       2.282   7.259  19.400  0.00  0.00    +0.000 A 
ATOM     26  C   UNL     1       3.032   6.079  19.521  0.00  0.00    +0.000 A 
BRANCH  21  28
ATOM     27  C   UNL     1       6.117   4.446  18.203  0.00  0.00    +0.000 C 
ATOM     28  N   UNL     1       4.749   4.534  18.700  0.00  0.00    +0.000 N 
ATOM     29  C   UNL     1       4.223   3.390  19.437  0.00  0.00    +0.000 C 
ENDBRANCH  21  28
ENDBRANCH  19  24
ENDBRANCH   1  20
TORSDOF 3
ENDMDL
MODEL 8
REMARK VINA RESULT:      -7.4      7.979      9.663
REMARK  Name = 
REMARK  5 active torsions:
REMARK  status: ('A' for Active; 'I' for Inactive)
REMARK    1  A    between atoms: C_1  and  N_2
REMARK    2  A    between atoms: N_2  and  C_3
REMARK    3  A    between atoms: N_2  and  C_4
REMARK    4  A    between atoms: C_7  and  C_8
REMARK    5  A    between atoms: N_9  and  N_10
REMARK                            x       y       z     vdW  Elec       q    Type
REMARK                         _______ _______ _______ _____ _____    ______ ____
ROOT
ATOM      1  N   UNL     1       0.567  10.895  18.317  0.00  0.00    +0.000 N 
ATOM      2  C   UNL     1      -0.805  10.845  18.579  0.00  0.00    +0.000 C 
ATOM      3  O   UNL     1      -1.384   9.816  18.927  0.00  0.00    +0.000 OA
ATOM      4  N   UNL     1      -1.463  12.121  18.404  0.00  0.00    +0.000 N 
ATOM      5  C   UNL     1      -2.893  12.024  18.492  0.00  0.00    +0.000 A 
ATOM      6  C   UNL     1      -3.562  11.426  17.409  0.00  0.00    +0.000 A 
ATOM      7  C   UNL     1      -4.949  11.286  17.415  0.00  0.00    +0.000 A 
ATOM      8  C   UNL     1      -5.687  11.755  18.498  0.00  0.00    +0.000 A 
ATOM      9  C   UNL     1      -5.031  12.326  19.592  0.00  0.00    +0.000 A 
ATOM     10  C   UNL     1      -3.632  12.443  19.609  0.00  0.00    +0.000 A 
ATOM     11  S   UNL     1      -2.838  12.941  21.129  0.00  0.00    +0.000 S 
ATOM     12  C   UNL     1      -1.205  13.307  20.540  0.00  0.00    +0.000 A 
ATOM     13  C   UNL     1      -0.222  13.743  21.429  0.00  0.00    +0.000 A 
ATOM     14  C   UNL     1       1.021  14.168  20.955  0.00  0.00    +0.000 A 
ATOM     15  C   UNL     1       1.243  14.276  19.584  0.00  0.00    +0.000 A 
ATOM     16  C   UNL     1       0.283  13.802  18.694  0.00  0.00    +0.000 A 
ATOM     17  C   UNL     1      -0.870  13.173  19.187  0.00  0.00    +0.000 A 
ATOM     18  H   UNL     1       0.965  11.712  17.886  0.00  0.00    +0.000 HD
ENDROOT
BRANCH   1  20
ATOM     19  C   UNL     1       1.546   8.924  17.872  0.00  0.00    +0.000 C 
ATOM     20  N   UNL     1       1.405   9.889  18.720  0.00  0.00    +0.000 NA
BRANCH  19  24
ATOM     21  C   UNL     1       4.394   5.739  18.593  0.00  0.00    +0.000 A 
ATOM     22  C   UNL     1       3.280   5.945  19.430  0.00  0.00    +0.000 A 
ATOM     23  C   UNL     1       2.343   6.958  19.192  0.00  0.00    +0.000 A 
ATOM     24  C   UNL     1       2.494   7.811  18.104  0.00  0.00    +0.000 A 
ATOM     25  C   UNL     1       3.583   7.639  17.252  0.00  0.00    +0.000 A 
ATOM     26  C   UNL     1       4.510   6.615  17.497  0.00  0.00    +0.000 A 
BRANCH  21  28
ATOM     27  C   UNL     1       6.758   5.010  18.766  0.00  0.00    +0.000 C 
ATOM     28  N   UNL     1       5.328   4.737  18.845  0.00  0.00    +0.000 N 
ATOM     29  C   UNL     1       4.915   3.424  19.327  0.00  0.00    +0.000 C 
ENDBRANCH  21  28
ENDBRANCH  19  24
ENDBRANCH   1  20
TORSDOF 3
ENDMDL
MODEL 9
REMARK VINA RESULT:      -7.3      7.502     10.609
REMARK  Name = 
REMARK  5 active torsions:
REMARK  status: ('A' for Active; 'I' for Inactive)
REMARK    1  A    between atoms: C_1  and  N_2
REMARK    2  A    between atoms: N_2  and  C_3
REMARK    3  A    between atoms: N_2  and  C_4
REMARK    4  A    between atoms: C_7  and  C_8
REMARK    5  A    between atoms: N_9  and  N_10
REMARK                            x       y       z     vdW  Elec       q    Type
REMARK                         _______ _______ _______ _____ _____    ______ ____
ROOT
ATOM      1  N   UNL     1       2.091   7.177  18.571  0.00  0.00    +0.000 N 
ATOM      2  C   UNL     1       3.361   6.819  18.110  0.00  0.00    +0.000 C 
ATOM      3  O   UNL     1       4.348   7.544  18.232  0.00  0.00    +0.000 OA
ATOM      4  N   UNL     1       3.391   5.514  17.486  0.00  0.00    +0.000 N 
ATOM      5  C   UNL     1       4.649   5.232  16.853  0.00  0.00    +0.000 A 
ATOM      6  C   UNL     1       4.929   5.913  15.655  0.00  0.00    +0.000 A 
ATOM      7  C   UNL     1       6.130   5.703  14.977  0.00  0.00    +0.000 A 
ATOM      8  C   UNL     1       7.059   4.798  15.482  0.00  0.00    +0.000 A 
ATOM      9  C   UNL     1       6.804   4.136  16.685  0.00  0.00    +0.000 A 
ATOM     10  C   UNL     1       5.612   4.364  17.391  0.00  0.00    +0.000 A 
ATOM     11  S   UNL     1       5.455   3.690  19.038  0.00  0.00    +0.000 S 
ATOM     12  C   UNL     1       3.715   3.904  19.313  0.00  0.00    +0.000 A 
ATOM     13  C   UNL     1       3.144   3.501  20.521  0.00  0.00    +0.000 A 
ATOM     14  C   UNL     1       1.759   3.535  20.693  0.00  0.00    +0.000 A 
ATOM     15  C   UNL     1       0.931   3.852  19.618  0.00  0.00    +0.000 A 
ATOM     16  C   UNL     1       1.496   4.296  18.426  0.00  0.00    +0.000 A 
ATOM     17  C   UNL     1       2.885   4.470  18.338  0.00  0.00    +0.000 A 
ATOM     18  H   UNL     1       1.290   6.626  18.310  0.00  0.00    +0.000 HD
ENDROOT
BRANCH   1  20
ATOM     19  C   UNL     1       1.175   9.176  19.019  0.00  0.00    +0.000 C 
ATOM     20  N   UNL     1       1.919   8.213  19.450  0.00  0.00    +0.000 NA
BRANCH  19  24
ATOM     21  C   UNL     1      -0.007  12.545  21.475  0.00  0.00    +0.000 A 
ATOM     22  C   UNL     1      -0.188  11.215  21.899  0.00  0.00    +0.000 A 
ATOM     23  C   UNL     1       0.211  10.121  21.122  0.00  0.00    +0.000 A 
ATOM     24  C   UNL     1       0.802  10.322  19.879  0.00  0.00    +0.000 A 
ATOM     25  C   UNL     1       0.998  11.624  19.423  0.00  0.00    +0.000 A 
ATOM     26  C   UNL     1       0.602  12.712  20.216  0.00  0.00    +0.000 A 
BRANCH  21  28
ATOM     27  C   UNL     1      -1.491  13.484  23.226  0.00  0.00    +0.000 C 
ATOM     28  N   UNL     1      -0.418  13.627  22.249  0.00  0.00    +0.000 N 
ATOM     29  C   UNL     1       0.295  14.898  22.210  0.00  0.00    +0.000 C 
ENDBRANCH  21  28
ENDBRANCH  19  24
ENDBRANCH   1  20
TORSDOF 3
ENDMDL
