MODEL 1
REMARK VINA RESULT:      -8.7      0.000      0.000
REMARK  Name = 
REMARK  5 active torsions:
REMARK  status: ('A' for Active; 'I' for Inactive)
REMARK    1  A    between atoms: C_1  and  C_2
REMARK    2  A    between atoms: N_11  and  C_12
REMARK    3  A    between atoms: C_12  and  C_13
REMARK    4  A    between atoms: N_18  and  C_19
REMARK    5  A    between atoms: C_19  and  C_20
REMARK                            x       y       z     vdW  Elec       q    Type
REMARK                         _______ _______ _______ _____ _____    ______ ____
ROOT
ATOM      1  C   UNL     1       4.654   6.806  17.677  0.00  0.00    +0.000 C 
ENDROOT
BRANCH   1  12
ATOM      2  C   UNL     1       3.588   1.667  18.222  0.00  0.00    +0.000 C 
ATOM      3  C   UNL     1       2.880   2.399  19.362  0.00  0.00    +0.000 C 
ATOM      4  C   UNL     1       1.353   2.346  19.161  0.00  0.00    +0.000 C 
ATOM      5  C   UNL     1       0.596   3.042  20.292  0.00  0.00    +0.000 C 
ATOM      6  C   UNL     1       1.094   4.460  20.539  0.00  0.00    +0.000 C 
ATOM      7  C   UNL     1       2.605   4.495  20.758  0.00  0.00    +0.000 C 
ATOM      8  C   UNL     1       3.378   3.838  19.594  0.00  0.00    +0.000 C 
ATOM      9  N   UNL     1       4.804   3.928  19.858  0.00  0.00    +0.000 N 
ATOM     10  C   UNL     1       5.353   5.058  19.292  0.00  0.00    +0.000 C 
ATOM     11  O   UNL     1       6.475   5.482  19.510  0.00  0.00    +0.000 OA
ATOM     12  N   UNL     1       4.437   5.605  18.452  0.00  0.00    +0.000 N 
ATOM     13  C   UNL     1       3.324   4.809  18.392  0.00  0.00    +0.000 C 
ATOM     14  O   UNL     1       2.411   4.921  17.587  0.00  0.00    +0.000 OA
ATOM     15  H   UNL     1       5.300   3.423  20.583  0.00  0.00    +0.000 HD
ENDBRANCH   1  12
BRANCH   1  16
ATOM     16  C   UNL     1       5.200   6.404  16.307  0.00  0.00    +0.000 C 
ATOM     17  O   UNL     1       4.848   6.968  15.270  0.00  0.00    +0.000 OA
ATOM     18  N   UNL     1       6.162   5.406  16.348  0.00  0.00    +0.000 N 
ATOM     19  C   UNL     1       6.934   4.909  15.326  0.00  0.00    +0.000 C 
ATOM     20  O   UNL     1       7.816   4.090  15.576  0.00  0.00    +0.000 OA
ATOM     21  N   UNL     1       6.695   5.396  14.081  0.00  0.00    +0.000 N 
ATOM     22  H   UNL     1       6.457   5.052  17.252  0.00  0.00    +0.000 HD
ATOM     23  H   UNL     1       5.823   5.898  13.927  0.00  0.00    +0.000 HD
BRANCH  21  24
ATOM     24  C   UNL     1       7.445   4.911  12.944  0.00  0.00    +0.000 C 
BRANCH  24  25
ATOM     25  C   UNL     1       6.782   3.734  12.329  0.00  0.00    +0.000 A 
ATOM     26  C   UNL     1       5.470   3.318  12.226  0.00  0.00    +0.000 A 
ATOM     27  C   UNL     1       5.481   2.136  11.440  0.00  0.00    +0.000 A 
ATOM     28  C   UNL     1       6.798   1.903  11.122  0.00  0.00    +0.000 A 
ATOM     29  O   UNL     1       7.594   2.863  11.658  0.00  0.00    +0.000 OA
ENDBRANCH  24  25
ENDBRANCH  21  24
ENDBRANCH   1  16
TORSDOF 4
ENDMDL
MODEL 2
REMARK VINA RESULT:      -8.5      1.611      2.427
REMARK  Name = 
REMARK  5 active torsions:
REMARK  status: ('A' for Active; 'I' for Inactive)
REMARK    1  A    between atoms: C_1  and  C_2
REMARK    2  A    between atoms: N_11  and  C_12
REMARK    3  A    between atoms: C_12  and  C_13
REMARK    4  A    between atoms: N_18  and  C_19
REMARK    5  A    between atoms: C_19  and  C_20
REMARK                            x       y       z     vdW  Elec       q    Type
REMARK                         _______ _______ _______ _____ _____    ______ ____
ROOT
ATOM      1  C   UNL     1       6.190   4.780  17.879  0.00  0.00    +0.000 C 
ENDROOT
BRANCH   1  12
ATOM      2  C   UNL     1       2.174   5.388  21.247  0.00  0.00    +0.000 C 
ATOM      3  C   UNL     1       1.635   4.631  20.033  0.00  0.00    +0.000 C 
ATOM      4  C   UNL     1       1.294   3.179  20.420  0.00  0.00    +0.000 C 
ATOM      5  C   UNL     1       0.724   2.385  19.246  0.00  0.00    +0.000 C 
ATOM      6  C   UNL     1       1.613   2.456  18.010  0.00  0.00    +0.000 C 
ATOM      7  C   UNL     1       1.925   3.900  17.625  0.00  0.00    +0.000 C 
ATOM      8  C   UNL     1       2.547   4.694  18.794  0.00  0.00    +0.000 C 
ATOM      9  N   UNL     1       2.838   6.047  18.350  0.00  0.00    +0.000 N 
ATOM     10  C   UNL     1       4.128   6.158  17.878  0.00  0.00    +0.000 C 
ATOM     11  O   UNL     1       4.577   7.116  17.274  0.00  0.00    +0.000 OA
ATOM     12  N   UNL     1       4.805   5.028  18.208  0.00  0.00    +0.000 N 
ATOM     13  C   UNL     1       4.006   4.209  18.961  0.00  0.00    +0.000 C 
ATOM     14  O   UNL     1       4.377   3.217  19.572  0.00  0.00    +0.000 OA
ATOM     15  H   UNL     1       2.147   6.754  18.127  0.00  0.00    +0.000 HD
ENDBRANCH   1  12
BRANCH   1  16
ATOM     16  C   UNL     1       6.277   4.427  16.394  0.00  0.00    +0.000 C 
ATOM     17  O   UNL     1       5.486   3.652  15.856  0.00  0.00    +0.000 OA
ATOM     18  N   UNL     1       7.275   5.102  15.707  0.00  0.00    +0.000 N 
ATOM     19  C   UNL     1       7.539   5.113  14.359  0.00  0.00    +0.000 C 
ATOM     20  O   UNL     1       8.408   5.862  13.917  0.00  0.00    +0.000 OA
ATOM     21  N   UNL     1       6.776   4.307  13.575  0.00  0.00    +0.000 N 
ATOM     22  H   UNL     1       7.831   5.788  16.207  0.00  0.00    +0.000 HD
ATOM     23  H   UNL     1       6.237   3.573  14.032  0.00  0.00    +0.000 HD
BRANCH  21  24
ATOM     24  C   UNL     1       7.001   4.238  12.150  0.00  0.00    +0.000 C 
BRANCH  24  25
ATOM     25  C   UNL     1       6.704   2.882  11.626  0.00  0.00    +0.000 A 
ATOM     26  C   UNL     1       7.482   1.853  11.132  0.00  0.00    +0.000 A 
ATOM     27  C   UNL     1       6.602   0.773  10.866  0.00  0.00    +0.000 A 
ATOM     28  C   UNL     1       5.345   1.213  11.205  0.00  0.00    +0.000 A 
ATOM     29  O   UNL     1       5.395   2.489  11.663  0.00  0.00    +0.000 OA
ENDBRANCH  24  25
ENDBRANCH  21  24
ENDBRANCH   1  16
TORSDOF 4
ENDMDL
MODEL 3
REMARK VINA RESULT:      -8.4      1.663      2.515
REMARK  Name = 
REMARK  5 active torsions:
REMARK  status: ('A' for Active; 'I' for Inactive)
REMARK    1  A    between atoms: C_1  and  C_2
REMARK    2  A    between atoms: N_11  and  C_12
REMARK    3  A    between atoms: C_12  and  C_13
REMARK    4  A    between atoms: N_18  and  C_19
REMARK    5  A    between atoms: C_19  and  C_20
REMARK                            x       y       z     vdW  Elec       q    Type
REMARK                         _______ _______ _______ _____ _____    ______ ____
ROOT
ATOM      1  C   UNL     1       6.045   5.132  18.017  0.00  0.00    +0.000 C 
ENDROOT
BRANCH   1  12
ATOM      2  C   UNL     1       1.953   5.652  21.307  0.00  0.00    +0.000 C 
ATOM      3  C   UNL     1       1.471   4.826  20.115  0.00  0.00    +0.000 C 
ATOM      4  C   UNL     1       1.199   3.373  20.549  0.00  0.00    +0.000 C 
ATOM      5  C   UNL     1       0.688   2.510  19.396  0.00  0.00    +0.000 C 
ATOM      6  C   UNL     1       1.590   2.583  18.171  0.00  0.00    +0.000 C 
ATOM      7  C   UNL     1       1.834   4.027  17.738  0.00  0.00    +0.000 C 
ATOM      8  C   UNL     1       2.397   4.892  18.886  0.00  0.00    +0.000 C 
ATOM      9  N   UNL     1       2.626   6.242  18.397  0.00  0.00    +0.000 N 
ATOM     10  C   UNL     1       3.916   6.403  17.939  0.00  0.00    +0.000 C 
ATOM     11  O   UNL     1       4.325   7.361  17.307  0.00  0.00    +0.000 OA
ATOM     12  N   UNL     1       4.644   5.321  18.319  0.00  0.00    +0.000 N 
ATOM     13  C   UNL     1       3.877   4.489  19.090  0.00  0.00    +0.000 C 
ATOM     14  O   UNL     1       4.288   3.539  19.740  0.00  0.00    +0.000 OA
ATOM     15  H   UNL     1       1.903   6.904  18.141  0.00  0.00    +0.000 HD
ENDBRANCH   1  12
BRANCH   1  16
ATOM     16  C   UNL     1       6.158   4.473  16.642  0.00  0.00    +0.000 C 
ATOM     17  O   UNL     1       5.505   3.474  16.339  0.00  0.00    +0.000 OA
ATOM     18  N   UNL     1       7.002   5.133  15.762  0.00  0.00    +0.000 N 
ATOM     19  C   UNL     1       7.227   4.883  14.430  0.00  0.00    +0.000 C 
ATOM     20  O   UNL     1       7.937   5.647  13.781  0.00  0.00    +0.000 OA
ATOM     21  N   UNL     1       6.602   3.803  13.892  0.00  0.00    +0.000 N 
ATOM     22  H   UNL     1       7.438   5.998  16.063  0.00  0.00    +0.000 HD
ATOM     23  H   UNL     1       6.213   3.112  14.532  0.00  0.00    +0.000 HD
BRANCH  21  24
ATOM     24  C   UNL     1       6.800   3.453  12.505  0.00  0.00    +0.000 C 
BRANCH  24  25
ATOM     25  C   UNL     1       5.504   3.223  11.820  0.00  0.00    +0.000 A 
ATOM     26  C   UNL     1       4.437   4.036  11.489  0.00  0.00    +0.000 A 
ATOM     27  C   UNL     1       3.525   3.228  10.762  0.00  0.00    +0.000 A 
ATOM     28  C   UNL     1       4.087   1.976  10.703  0.00  0.00    +0.000 A 
ATOM     29  O   UNL     1       5.284   1.961  11.343  0.00  0.00    +0.000 OA
ENDBRANCH  24  25
ENDBRANCH  21  24
ENDBRANCH   1  16
TORSDOF 4
ENDMDL
MODEL 4
REMARK VINA RESULT:      -8.3      4.001      7.264
REMARK  Name = 
REMARK  5 active torsions:
REMARK  status: ('A' for Active; 'I' for Inactive)
REMARK    1  A    between atoms: C_1  and  C_2
REMARK    2  A    between atoms: N_11  and  C_12
REMARK    3  A    between atoms: C_12  and  C_13
REMARK    4  A    between atoms: N_18  and  C_19
REMARK    5  A    between atoms: C_19  and  C_20
REMARK                            x       y       z     vdW  Elec       q    Type
REMARK                         _______ _______ _______ _____ _____    ______ ____
ROOT
ATOM      1  C   UNL     1       3.919   6.902  17.229  0.00  0.00    +0.000 C 
ENDROOT
BRANCH   1  12
ATOM      2  C   UNL     1       3.542   1.698  18.015  0.00  0.00    +0.000 C 
ATOM      3  C   UNL     1       2.960   2.385  19.250  0.00  0.00    +0.000 C 
ATOM      4  C   UNL     1       1.436   2.162  19.314  0.00  0.00    +0.000 C 
ATOM      5  C   UNL     1       0.808   2.807  20.548  0.00  0.00    +0.000 C 
ATOM      6  C   UNL     1       1.178   4.278  20.688  0.00  0.00    +0.000 C 
ATOM      7  C   UNL     1       2.690   4.483  20.645  0.00  0.00    +0.000 C 
ATOM      8  C   UNL     1       3.325   3.876  19.375  0.00  0.00    +0.000 C 
ATOM      9  N   UNL     1       4.756   4.129  19.389  0.00  0.00    +0.000 N 
ATOM     10  C   UNL     1       5.072   5.293  18.723  0.00  0.00    +0.000 C 
ATOM     11  O   UNL     1       6.159   5.842  18.740  0.00  0.00    +0.000 OA
ATOM     12  N   UNL     1       3.972   5.711  18.045  0.00  0.00    +0.000 N 
ATOM     13  C   UNL     1       2.961   4.798  18.187  0.00  0.00    +0.000 C 
ATOM     14  O   UNL     1       1.918   4.784  17.549  0.00  0.00    +0.000 OA
ATOM     15  H   UNL     1       5.421   3.704  20.026  0.00  0.00    +0.000 HD
ENDBRANCH   1  12
BRANCH   1  16
ATOM     16  C   UNL     1       2.938   7.884  17.870  0.00  0.00    +0.000 C 
ATOM     17  O   UNL     1       2.462   8.835  17.250  0.00  0.00    +0.000 OA
ATOM     18  N   UNL     1       2.591   7.569  19.176  0.00  0.00    +0.000 N 
ATOM     19  C   UNL     1       1.652   8.160  19.985  0.00  0.00    +0.000 C 
ATOM     20  O   UNL     1       1.406   7.673  21.086  0.00  0.00    +0.000 OA
ATOM     21  N   UNL     1       1.009   9.250  19.489  0.00  0.00    +0.000 N 
ATOM     22  H   UNL     1       2.964   6.720  19.587  0.00  0.00    +0.000 HD
ATOM     23  H   UNL     1       1.414   9.710  18.675  0.00  0.00    +0.000 HD
BRANCH  21  24
ATOM     24  C   UNL     1       0.023   9.948  20.281  0.00  0.00    +0.000 C 
BRANCH  24  25
ATOM     25  C   UNL     1      -1.019  10.562  19.421  0.00  0.00    +0.000 A 
ATOM     26  C   UNL     1      -1.523  10.269  18.169  0.00  0.00    +0.000 A 
ATOM     27  C   UNL     1      -2.573  11.193  17.931  0.00  0.00    +0.000 A 
ATOM     28  C   UNL     1      -2.637  11.994  19.045  0.00  0.00    +0.000 A 
ATOM     29  O   UNL     1      -1.697  11.623  19.952  0.00  0.00    +0.000 OA
ENDBRANCH  24  25
ENDBRANCH  21  24
ENDBRANCH   1  16
TORSDOF 4
ENDMDL
MODEL 5
REMARK VINA RESULT:      -8.3      1.173      1.361
REMARK  Name = 
REMARK  5 active torsions:
REMARK  status: ('A' for Active; 'I' for Inactive)
REMARK    1  A    between atoms: C_1  and  C_2
REMARK    2  A    between atoms: N_11  and  C_12
REMARK    3  A    between atoms: C_12  and  C_13
REMARK    4  A    between atoms: N_18  and  C_19
REMARK    5  A    between atoms: C_19  and  C_20
REMARK                            x       y       z     vdW  Elec       q    Type
REMARK                         _______ _______ _______ _____ _____    ______ ____
ROOT
ATOM      1  C   UNL     1       5.216   6.073  16.967  0.00  0.00    +0.000 C 
ENDROOT
BRANCH   1  12
ATOM      2  C   UNL     1       3.341   1.345  18.371  0.00  0.00    +0.000 C 
ATOM      3  C   UNL     1       2.920   2.338  19.455  0.00  0.00    +0.000 C 
ATOM      4  C   UNL     1       1.395   2.553  19.416  0.00  0.00    +0.000 C 
ATOM      5  C   UNL     1       0.918   3.519  20.500  0.00  0.00    +0.000 C 
ATOM      6  C   UNL     1       1.684   4.835  20.483  0.00  0.00    +0.000 C 
ATOM      7  C   UNL     1       3.192   4.609  20.544  0.00  0.00    +0.000 C 
ATOM      8  C   UNL     1       3.687   3.673  19.421  0.00  0.00    +0.000 C 
ATOM      9  N   UNL     1       5.129   3.521  19.526  0.00  0.00    +0.000 N 
ATOM     10  C   UNL     1       5.793   4.444  18.747  0.00  0.00    +0.000 C 
ATOM     11  O   UNL     1       6.989   4.671  18.788  0.00  0.00    +0.000 OA
ATOM     12  N   UNL     1       4.890   5.045  17.930  0.00  0.00    +0.000 N 
ATOM     13  C   UNL     1       3.656   4.475  18.099  0.00  0.00    +0.000 C 
ATOM     14  O   UNL     1       2.683   4.656  17.380  0.00  0.00    +0.000 OA
ATOM     15  H   UNL     1       5.615   3.028  20.265  0.00  0.00    +0.000 HD
ENDBRANCH   1  12
BRANCH   1  16
ATOM     16  C   UNL     1       5.608   5.397  15.653  0.00  0.00    +0.000 C 
ATOM     17  O   UNL     1       4.830   4.675  15.029  0.00  0.00    +0.000 OA
ATOM     18  N   UNL     1       6.879   5.722  15.204  0.00  0.00    +0.000 N 
ATOM     19  C   UNL     1       7.484   5.395  14.015  0.00  0.00    +0.000 C 
ATOM     20  O   UNL     1       8.587   5.866  13.745  0.00  0.00    +0.000 OA
ATOM     21  N   UNL     1       6.791   4.584  13.174  0.00  0.00    +0.000 N 
ATOM     22  H   UNL     1       7.426   6.392  15.735  0.00  0.00    +0.000 HD
ATOM     23  H   UNL     1       5.996   4.073  13.555  0.00  0.00    +0.000 HD
BRANCH  21  24
ATOM     24  C   UNL     1       7.362   4.170  11.912  0.00  0.00    +0.000 C 
BRANCH  24  25
ATOM     25  C   UNL     1       6.845   2.841  11.502  0.00  0.00    +0.000 A 
ATOM     26  C   UNL     1       7.438   1.684  11.036  0.00  0.00    +0.000 A 
ATOM     27  C   UNL     1       6.401   0.726  10.897  0.00  0.00    +0.000 A 
ATOM     28  C   UNL     1       5.243   1.360  11.279  0.00  0.00    +0.000 A 
ATOM     29  O   UNL     1       5.500   2.641  11.643  0.00  0.00    +0.000 OA
ENDBRANCH  24  25
ENDBRANCH  21  24
ENDBRANCH   1  16
TORSDOF 4
ENDMDL
MODEL 6
REMARK VINA RESULT:      -8.3      1.293      2.264
REMARK  Name = 
REMARK  5 active torsions:
REMARK  status: ('A' for Active; 'I' for Inactive)
REMARK    1  A    between atoms: C_1  and  C_2
REMARK    2  A    between atoms: N_11  and  C_12
REMARK    3  A    between atoms: C_12  and  C_13
REMARK    4  A    between atoms: N_18  and  C_19
REMARK    5  A    between atoms: C_19  and  C_20
REMARK                            x       y       z     vdW  Elec       q    Type
REMARK                         _______ _______ _______ _____ _____    ______ ____
ROOT
ATOM      1  C   UNL     1       4.875   7.281  17.707  0.00  0.00    +0.000 C 
ENDROOT
BRANCH   1  12
ATOM      2  C   UNL     1       2.181   4.616  21.378  0.00  0.00    +0.000 C 
ATOM      3  C   UNL     1       1.900   3.943  20.035  0.00  0.00    +0.000 C 
ATOM      4  C   UNL     1       2.556   2.549  19.991  0.00  0.00    +0.000 C 
ATOM      5  C   UNL     1       2.282   1.821  18.676  0.00  0.00    +0.000 C 
ATOM      6  C   UNL     1       2.643   2.663  17.459  0.00  0.00    +0.000 C 
ATOM      7  C   UNL     1       1.970   4.033  17.504  0.00  0.00    +0.000 C 
ATOM      8  C   UNL     1       2.284   4.794  18.810  0.00  0.00    +0.000 C 
ATOM      9  N   UNL     1       1.632   6.093  18.773  0.00  0.00    +0.000 N 
ATOM     10  C   UNL     1       2.468   7.064  18.267  0.00  0.00    +0.000 C 
ATOM     11  O   UNL     1       2.129   8.190  17.948  0.00  0.00    +0.000 OA
ATOM     12  N   UNL     1       3.724   6.553  18.193  0.00  0.00    +0.000 N 
ATOM     13  C   UNL     1       3.746   5.290  18.720  0.00  0.00    +0.000 C 
ATOM     14  O   UNL     1       4.751   4.641  18.976  0.00  0.00    +0.000 OA
ATOM     15  H   UNL     1       0.633   6.250  18.823  0.00  0.00    +0.000 HD
ENDBRANCH   1  12
BRANCH   1  16
ATOM     16  C   UNL     1       5.325   6.648  16.390  0.00  0.00    +0.000 C 
ATOM     17  O   UNL     1       4.905   7.035  15.299  0.00  0.00    +0.000 OA
ATOM     18  N   UNL     1       6.284   5.656  16.534  0.00  0.00    +0.000 N 
ATOM     19  C   UNL     1       6.984   4.985  15.561  0.00  0.00    +0.000 C 
ATOM     20  O   UNL     1       7.878   4.207  15.884  0.00  0.00    +0.000 OA
ATOM     21  N   UNL     1       6.662   5.260  14.269  0.00  0.00    +0.000 N 
ATOM     22  H   UNL     1       6.640   5.455  17.462  0.00  0.00    +0.000 HD
ATOM     23  H   UNL     1       5.782   5.742  14.092  0.00  0.00    +0.000 HD
BRANCH  21  24
ATOM     24  C   UNL     1       7.331   4.582  13.183  0.00  0.00    +0.000 C 
BRANCH  24  25
ATOM     25  C   UNL     1       6.405   3.662  12.476  0.00  0.00    +0.000 A 
ATOM     26  C   UNL     1       5.040   3.648  12.268  0.00  0.00    +0.000 A 
ATOM     27  C   UNL     1       4.770   2.530  11.437  0.00  0.00    +0.000 A 
ATOM     28  C   UNL     1       5.983   1.930  11.199  0.00  0.00    +0.000 A 
ATOM     29  O   UNL     1       6.978   2.605  11.826  0.00  0.00    +0.000 OA
ENDBRANCH  24  25
ENDBRANCH  21  24
ENDBRANCH   1  16
TORSDOF 4
ENDMDL
MODEL 7
REMARK VINA RESULT:      -8.2      1.295      2.346
REMARK  Name = 
REMARK  5 active torsions:
REMARK  status: ('A' for Active; 'I' for Inactive)
REMARK    1  A    between atoms: C_1  and  C_2
REMARK    2  A    between atoms: N_11  and  C_12
REMARK    3  A    between atoms: C_12  and  C_13
REMARK    4  A    between atoms: N_18  and  C_19
REMARK    5  A    between atoms: C_19  and  C_20
REMARK                            x       y       z     vdW  Elec       q    Type
REMARK                         _______ _______ _______ _____ _____    ______ ____
ROOT
ATOM      1  C   UNL     1       6.756   4.924  18.685  0.00  0.00    +0.000 C 
ENDROOT
BRANCH   1  12
ATOM      2  C   UNL     1       2.155   4.595  21.247  0.00  0.00    +0.000 C 
ATOM      3  C   UNL     1       1.941   3.996  19.857  0.00  0.00    +0.000 C 
ATOM      4  C   UNL     1       1.719   2.475  19.961  0.00  0.00    +0.000 C 
ATOM      5  C   UNL     1       1.474   1.831  18.597  0.00  0.00    +0.000 C 
ATOM      6  C   UNL     1       2.554   2.185  17.583  0.00  0.00    +0.000 C 
ATOM      7  C   UNL     1       2.749   3.695  17.474  0.00  0.00    +0.000 C 
ATOM      8  C   UNL     1       3.047   4.345  18.842  0.00  0.00    +0.000 C 
ATOM      9  N   UNL     1       3.243   5.774  18.659  0.00  0.00    +0.000 N 
ATOM     10  C   UNL     1       4.573   6.082  18.472  0.00  0.00    +0.000 C 
ATOM     11  O   UNL     1       5.001   7.164  18.109  0.00  0.00    +0.000 OA
ATOM     12  N   UNL     1       5.314   4.983  18.766  0.00  0.00    +0.000 N 
ATOM     13  C   UNL     1       4.501   3.981  19.224  0.00  0.00    +0.000 C 
ATOM     14  O   UNL     1       4.876   2.943  19.750  0.00  0.00    +0.000 OA
ATOM     15  H   UNL     1       2.520   6.438  18.407  0.00  0.00    +0.000 HD
ENDBRANCH   1  12
BRANCH   1  16
ATOM     16  C   UNL     1       7.153   4.849  17.210  0.00  0.00    +0.000 C 
ATOM     17  O   UNL     1       8.112   4.181  16.823  0.00  0.00    +0.000 OA
ATOM     18  N   UNL     1       6.306   5.540  16.357  0.00  0.00    +0.000 N 
ATOM     19  C   UNL     1       6.302   5.572  14.983  0.00  0.00    +0.000 C 
ATOM     20  O   UNL     1       5.401   6.162  14.393  0.00  0.00    +0.000 OA
ATOM     21  N   UNL     1       7.298   4.899  14.349  0.00  0.00    +0.000 N 
ATOM     22  H   UNL     1       5.488   5.996  16.748  0.00  0.00    +0.000 HD
ATOM     23  H   UNL     1       8.111   4.625  14.899  0.00  0.00    +0.000 HD
BRANCH  21  24
ATOM     24  C   UNL     1       7.385   4.900  12.907  0.00  0.00    +0.000 C 
BRANCH  24  25
ATOM     25  C   UNL     1       6.723   3.704  12.330  0.00  0.00    +0.000 A 
ATOM     26  C   UNL     1       5.411   3.281  12.247  0.00  0.00    +0.000 A 
ATOM     27  C   UNL     1       5.421   2.077  11.496  0.00  0.00    +0.000 A 
ATOM     28  C   UNL     1       6.736   1.839  11.177  0.00  0.00    +0.000 A 
ATOM     29  O   UNL     1       7.533   2.815  11.680  0.00  0.00    +0.000 OA
ENDBRANCH  24  25
ENDBRANCH  21  24
ENDBRANCH   1  16
TORSDOF 4
ENDMDL
MODEL 8
REMARK VINA RESULT:      -7.9      4.020      7.494
REMARK  Name = 
REMARK  5 active torsions:
REMARK  status: ('A' for Active; 'I' for Inactive)
REMARK    1  A    between atoms: C_1  and  C_2
REMARK    2  A    between atoms: N_11  and  C_12
REMARK    3  A    between atoms: C_12  and  C_13
REMARK    4  A    between atoms: N_18  and  C_19
REMARK    5  A    between atoms: C_19  and  C_20
REMARK                            x       y       z     vdW  Elec       q    Type
REMARK                         _______ _______ _______ _____ _____    ______ ____
ROOT
ATOM      1  C   UNL     1       3.922   7.024  17.316  0.00  0.00    +0.000 C 
ENDROOT
BRANCH   1  12
ATOM      2  C   UNL     1       3.531   1.799  17.938  0.00  0.00    +0.000 C 
ATOM      3  C   UNL     1       2.938   2.448  19.188  0.00  0.00    +0.000 C 
ATOM      4  C   UNL     1       1.414   2.225  19.232  0.00  0.00    +0.000 C 
ATOM      5  C   UNL     1       0.775   2.833  20.479  0.00  0.00    +0.000 C 
ATOM      6  C   UNL     1       1.146   4.298  20.668  0.00  0.00    +0.000 C 
ATOM      7  C   UNL     1       2.659   4.502  20.644  0.00  0.00    +0.000 C 
ATOM      8  C   UNL     1       3.304   3.934  19.362  0.00  0.00    +0.000 C 
ATOM      9  N   UNL     1       4.736   4.183  19.398  0.00  0.00    +0.000 N 
ATOM     10  C   UNL     1       5.059   5.367  18.770  0.00  0.00    +0.000 C 
ATOM     11  O   UNL     1       6.147   5.914  18.815  0.00  0.00    +0.000 OA
ATOM     12  N   UNL     1       3.966   5.807  18.096  0.00  0.00    +0.000 N 
ATOM     13  C   UNL     1       2.953   4.892  18.200  0.00  0.00    +0.000 C 
ATOM     14  O   UNL     1       1.916   4.900  17.552  0.00  0.00    +0.000 OA
ATOM     15  H   UNL     1       5.394   3.738  20.026  0.00  0.00    +0.000 HD
ENDBRANCH   1  12
BRANCH   1  16
ATOM     16  C   UNL     1       2.893   7.964  17.946  0.00  0.00    +0.000 C 
ATOM     17  O   UNL     1       2.363   8.875  17.310  0.00  0.00    +0.000 OA
ATOM     18  N   UNL     1       2.572   7.657  19.259  0.00  0.00    +0.000 N 
ATOM     19  C   UNL     1       1.607   8.213  20.064  0.00  0.00    +0.000 C 
ATOM     20  O   UNL     1       1.395   7.734  21.176  0.00  0.00    +0.000 OA
ATOM     21  N   UNL     1       0.903   9.256  19.551  0.00  0.00    +0.000 N 
ATOM     22  H   UNL     1       2.992   6.837  19.684  0.00  0.00    +0.000 HD
ATOM     23  H   UNL     1       1.277   9.721  18.726  0.00  0.00    +0.000 HD
BRANCH  21  24
ATOM     24  C   UNL     1      -0.114   9.915  20.337  0.00  0.00    +0.000 C 
BRANCH  24  25
ATOM     25  C   UNL     1       0.267  11.318  20.637  0.00  0.00    +0.000 A 
ATOM     26  C   UNL     1      -0.184  12.263  21.537  0.00  0.00    +0.000 A 
ATOM     27  C   UNL     1       0.652  13.399  21.384  0.00  0.00    +0.000 A 
ATOM     28  C   UNL     1       1.552  13.079  20.396  0.00  0.00    +0.000 A 
ATOM     29  O   UNL     1       1.325  11.823  19.935  0.00  0.00    +0.000 OA
ENDBRANCH  24  25
ENDBRANCH  21  24
ENDBRANCH   1  16
TORSDOF 4
ENDMDL
MODEL 9
REMARK VINA RESULT:      -7.8      3.900      7.070
REMARK  Name = 
REMARK  5 active torsions:
REMARK  status: ('A' for Active; 'I' for Inactive)
REMARK    1  A    between atoms: C_1  and  C_2
REMARK    2  A    between atoms: N_11  and  C_12
REMARK    3  A    between atoms: C_12  and  C_13
REMARK    4  A    between atoms: N_18  and  C_19
REMARK    5  A    between atoms: C_19  and  C_20
REMARK                            x       y       z     vdW  Elec       q    Type
REMARK                         _______ _______ _______ _____ _____    ______ ____
ROOT
ATOM      1  C   UNL     1       4.332   6.704  17.325  0.00  0.00    +0.000 C 
ENDROOT
BRANCH   1  12
ATOM      2  C   UNL     1       3.623   1.544  18.171  0.00  0.00    +0.000 C 
ATOM      3  C   UNL     1       2.971   2.287  19.337  0.00  0.00    +0.000 C 
ATOM      4  C   UNL     1       1.439   2.140  19.271  0.00  0.00    +0.000 C 
ATOM      5  C   UNL     1       0.739   2.843  20.433  0.00  0.00    +0.000 C 
ATOM      6  C   UNL     1       1.171   4.297  20.578  0.00  0.00    +0.000 C 
ATOM      7  C   UNL     1       2.690   4.426  20.664  0.00  0.00    +0.000 C 
ATOM      8  C   UNL     1       3.400   3.760  19.466  0.00  0.00    +0.000 C 
ATOM      9  N   UNL     1       4.836   3.942  19.601  0.00  0.00    +0.000 N 
ATOM     10  C   UNL     1       5.267   5.074  18.944  0.00  0.00    +0.000 C 
ATOM     11  O   UNL     1       6.375   5.569  19.046  0.00  0.00    +0.000 OA
ATOM     12  N   UNL     1       4.253   5.530  18.164  0.00  0.00    +0.000 N 
ATOM     13  C   UNL     1       3.188   4.671  18.233  0.00  0.00    +0.000 C 
ATOM     14  O   UNL     1       2.205   4.694  17.507  0.00  0.00    +0.000 OA
ATOM     15  H   UNL     1       5.420   3.500  20.301  0.00  0.00    +0.000 HD
ENDBRANCH   1  12
BRANCH   1  16
ATOM     16  C   UNL     1       3.269   7.701  17.788  0.00  0.00    +0.000 C 
ATOM     17  O   UNL     1       2.798   8.554  17.035  0.00  0.00    +0.000 OA
ATOM     18  N   UNL     1       2.845   7.514  19.095  0.00  0.00    +0.000 N 
ATOM     19  C   UNL     1       1.828   8.144  19.771  0.00  0.00    +0.000 C 
ATOM     20  O   UNL     1       1.528   7.768  20.901  0.00  0.00    +0.000 OA
ATOM     21  N   UNL     1       1.177   9.140  19.114  0.00  0.00    +0.000 N 
ATOM     22  H   UNL     1       3.223   6.734  19.622  0.00  0.00    +0.000 HD
ATOM     23  H   UNL     1       1.618   9.528  18.282  0.00  0.00    +0.000 HD
BRANCH  21  24
ATOM     24  C   UNL     1       0.111   9.872  19.759  0.00  0.00    +0.000 C 
BRANCH  24  25
ATOM     25  C   UNL     1      -0.014  11.240  19.197  0.00  0.00    +0.000 A 
ATOM     26  C   UNL     1      -1.032  11.928  18.567  0.00  0.00    +0.000 A 
ATOM     27  C   UNL     1      -0.551  13.243  18.340  0.00  0.00    +0.000 A 
ATOM     28  C   UNL     1       0.730  13.271  18.836  0.00  0.00    +0.000 A 
ATOM     29  O   UNL     1       1.066  12.062  19.354  0.00  0.00    +0.000 OA
ENDBRANCH  24  25
ENDBRANCH  21  24
ENDBRANCH   1  16
TORSDOF 4
ENDMDL
