MODEL 1
REMARK VINA RESULT:      -9.2      0.000      0.000
REMARK  Name = 
REMARK  11 active torsions:
REMARK  status: ('A' for Active; 'I' for Inactive)
REMARK    1  A    between atoms: C_5  and  C_6
REMARK    2  A    between atoms: C_6  and  C_7
REMARK    3  A    between atoms: C_6  and  C_8
REMARK    4  A    between atoms: C_8  and  O_9
REMARK    5  A    between atoms: C_8  and  C_13
REMARK    6  A    between atoms: O_9  and  C_10
REMARK    7  A    between atoms: C_10  and  C_11
REMARK    8  A    between atoms: C_13  and  C_15
REMARK    9  A    between atoms: C_16  and  C_17
REMARK   10  A    between atoms: C_16  and  C_18
REMARK   11  A    between atoms: C_21  and  C_22
REMARK                            x       y       z     vdW  Elec       q    Type
REMARK                         _______ _______ _______ _____ _____    ______ ____
ROOT
ATOM      1  C   UNL     1       4.668   4.181  17.561  0.00  0.00    +0.000 C 
ATOM      2  C   UNL     1       5.120   3.771  18.966  0.00  0.00    +0.000 C 
ENDROOT
BRANCH   1   7
ATOM      3  C   UNL     1       1.951   9.321  18.311  0.00  0.00    +0.000 C 
ATOM      4  C   UNL     1       2.047   8.074  18.806  0.00  0.00    +0.000 C 
ATOM      5  C   UNL     1       2.521   6.989  17.980  0.00  0.00    +0.000 C 
ATOM      6  C   UNL     1       2.665   5.718  18.398  0.00  0.00    +0.000 C 
ATOM      7  C   UNL     1       3.167   4.648  17.430  0.00  0.00    +0.000 C 
ATOM      8  C   UNL     1       2.153   3.492  17.386  0.00  0.00    +0.000 C 
ATOM      9  C   UNL     1       1.778   2.929  18.749  0.00  0.00    +0.000 C 
ATOM     10  C   UNL     1       1.353   4.003  19.758  0.00  0.00    +0.000 C 
ATOM     11  C   UNL     1       1.265   3.343  21.141  0.00  0.00    +0.000 C 
ATOM     12  C   UNL     1       2.273   5.264  19.789  0.00  0.00    +0.000 C 
ATOM     13  C   UNL     1       1.612   6.344  20.678  0.00  0.00    +0.000 C 
ATOM     14  C   UNL     1       1.688   7.803  20.234  0.00  0.00    +0.000 C 
ENDBRANCH   1   7
BRANCH   1  15
ATOM     15  C   UNL     1       5.663   5.164  16.870  0.00  0.00    +0.000 C 
BRANCH  15  16
ATOM     16  C   UNL     1       6.648   4.367  16.004  0.00  0.00    +0.000 C 
ATOM     17  O   UNL     1       7.853   4.368  16.232  0.00  0.00    +0.000 OA
BRANCH  16  18
ATOM     18  C   UNL     1       6.119   3.658  14.792  0.00  0.00    +0.000 C 
ATOM     19  C   UNL     1       6.428   3.996  13.526  0.00  0.00    +0.000 C 
ATOM     20  C   UNL     1       7.459   5.018  13.107  0.00  0.00    +0.000 C 
ATOM     21  C   UNL     1       5.710   3.370  12.359  0.00  0.00    +0.000 C 
ENDBRANCH  16  18
ENDBRANCH  15  16
BRANCH  15  22
ATOM     22  O   UNL     1       6.577   5.756  17.835  0.00  0.00    +0.000 OA
BRANCH  22  23
ATOM     23  C   UNL     1       7.051   7.005  17.611  0.00  0.00    +0.000 C 
ATOM     24  C   UNL     1       8.192   7.308  18.540  0.00  0.00    +0.000 C 
ATOM     25  O   UNL     1       6.617   7.788  16.779  0.00  0.00    +0.000 OA
ENDBRANCH  22  23
ENDBRANCH  15  22
ENDBRANCH   1  15
TORSDOF 6
ENDMDL
MODEL 2
REMARK VINA RESULT:      -9.2      0.869      1.273
REMARK  Name = 
REMARK  11 active torsions:
REMARK  status: ('A' for Active; 'I' for Inactive)
REMARK    1  A    between atoms: C_5  and  C_6
REMARK    2  A    between atoms: C_6  and  C_7
REMARK    3  A    between atoms: C_6  and  C_8
REMARK    4  A    between atoms: C_8  and  O_9
REMARK    5  A    between atoms: C_8  and  C_13
REMARK    6  A    between atoms: O_9  and  C_10
REMARK    7  A    between atoms: C_10  and  C_11
REMARK    8  A    between atoms: C_13  and  C_15
REMARK    9  A    between atoms: C_16  and  C_17
REMARK   10  A    between atoms: C_16  and  C_18
REMARK   11  A    between atoms: C_21  and  C_22
REMARK                            x       y       z     vdW  Elec       q    Type
REMARK                         _______ _______ _______ _____ _____    ______ ____
ROOT
ATOM      1  C   UNL     1       4.375   4.167  17.597  0.00  0.00    +0.000 C 
ATOM      2  C   UNL     1       4.781   3.197  18.711  0.00  0.00    +0.000 C 
ENDROOT
BRANCH   1   7
ATOM      3  C   UNL     1       1.686   9.297  18.505  0.00  0.00    +0.000 C 
ATOM      4  C   UNL     1       1.840   8.060  19.009  0.00  0.00    +0.000 C 
ATOM      5  C   UNL     1       2.247   6.964  18.162  0.00  0.00    +0.000 C 
ATOM      6  C   UNL     1       2.441   5.702  18.586  0.00  0.00    +0.000 C 
ATOM      7  C   UNL     1       2.865   4.620  17.595  0.00  0.00    +0.000 C 
ATOM      8  C   UNL     1       1.862   3.455  17.662  0.00  0.00    +0.000 C 
ATOM      9  C   UNL     1       1.618   2.912  19.063  0.00  0.00    +0.000 C 
ATOM     10  C   UNL     1       1.275   4.000  20.088  0.00  0.00    +0.000 C 
ATOM     11  C   UNL     1       1.318   3.363  21.484  0.00  0.00    +0.000 C 
ATOM     12  C   UNL     1       2.181   5.269  20.014  0.00  0.00    +0.000 C 
ATOM     13  C   UNL     1       1.592   6.359  20.942  0.00  0.00    +0.000 C 
ATOM     14  C   UNL     1       1.613   7.811  20.468  0.00  0.00    +0.000 C 
ENDBRANCH   1   7
BRANCH   1  15
ATOM     15  C   UNL     1       5.360   5.370  17.458  0.00  0.00    +0.000 C 
BRANCH  15  16
ATOM     16  C   UNL     1       5.551   5.703  15.971  0.00  0.00    +0.000 C 
ATOM     17  O   UNL     1       5.688   6.856  15.582  0.00  0.00    +0.000 OA
BRANCH  16  18
ATOM     18  C   UNL     1       5.461   4.584  14.974  0.00  0.00    +0.000 C 
ATOM     19  C   UNL     1       6.328   4.407  13.960  0.00  0.00    +0.000 C 
ATOM     20  C   UNL     1       7.605   5.184  13.739  0.00  0.00    +0.000 C 
ATOM     21  C   UNL     1       6.067   3.384  12.886  0.00  0.00    +0.000 C 
ENDBRANCH  16  18
ENDBRANCH  15  16
BRANCH  15  22
ATOM     22  O   UNL     1       6.717   4.988  17.820  0.00  0.00    +0.000 OA
BRANCH  22  23
ATOM     23  C   UNL     1       7.346   5.659  18.814  0.00  0.00    +0.000 C 
ATOM     24  C   UNL     1       7.925   6.943  18.296  0.00  0.00    +0.000 C 
ATOM     25  O   UNL     1       7.443   5.280  19.973  0.00  0.00    +0.000 OA
ENDBRANCH  22  23
ENDBRANCH  15  22
ENDBRANCH   1  15
TORSDOF 6
ENDMDL
MODEL 3
REMARK VINA RESULT:      -8.6      0.860      1.254
REMARK  Name = 
REMARK  11 active torsions:
REMARK  status: ('A' for Active; 'I' for Inactive)
REMARK    1  A    between atoms: C_5  and  C_6
REMARK    2  A    between atoms: C_6  and  C_7
REMARK    3  A    between atoms: C_6  and  C_8
REMARK    4  A    between atoms: C_8  and  O_9
REMARK    5  A    between atoms: C_8  and  C_13
REMARK    6  A    between atoms: O_9  and  C_10
REMARK    7  A    between atoms: C_10  and  C_11
REMARK    8  A    between atoms: C_13  and  C_15
REMARK    9  A    between atoms: C_16  and  C_17
REMARK   10  A    between atoms: C_16  and  C_18
REMARK   11  A    between atoms: C_21  and  C_22
REMARK                            x       y       z     vdW  Elec       q    Type
REMARK                         _______ _______ _______ _____ _____    ______ ____
ROOT
ATOM      1  C   UNL     1       4.812   4.051  17.775  0.00  0.00    +0.000 C 
ATOM      2  C   UNL     1       5.230   3.856  19.236  0.00  0.00    +0.000 C 
ENDROOT
BRANCH   1   7
ATOM      3  C   UNL     1       2.113   9.234  18.244  0.00  0.00    +0.000 C 
ATOM      4  C   UNL     1       2.165   7.998  18.771  0.00  0.00    +0.000 C 
ATOM      5  C   UNL     1       2.676   6.890  18.000  0.00  0.00    +0.000 C 
ATOM      6  C   UNL     1       2.780   5.628  18.454  0.00  0.00    +0.000 C 
ATOM      7  C   UNL     1       3.327   4.531  17.542  0.00  0.00    +0.000 C 
ATOM      8  C   UNL     1       2.305   3.385  17.462  0.00  0.00    +0.000 C 
ATOM      9  C   UNL     1       1.841   2.856  18.812  0.00  0.00    +0.000 C 
ATOM     10  C   UNL     1       1.368   3.957  19.769  0.00  0.00    +0.000 C 
ATOM     11  C   UNL     1       1.188   3.329  21.158  0.00  0.00    +0.000 C 
ATOM     12  C   UNL     1       2.299   5.209  19.828  0.00  0.00    +0.000 C 
ATOM     13  C   UNL     1       1.597   6.316  20.651  0.00  0.00    +0.000 C 
ATOM     14  C   UNL     1       1.716   7.764  20.180  0.00  0.00    +0.000 C 
ENDBRANCH   1   7
BRANCH   1  15
ATOM     15  C   UNL     1       5.845   4.889  16.959  0.00  0.00    +0.000 C 
BRANCH  15  16
ATOM     16  C   UNL     1       6.183   4.152  15.655  0.00  0.00    +0.000 C 
ATOM     17  O   UNL     1       5.926   2.963  15.502  0.00  0.00    +0.000 OA
BRANCH  16  18
ATOM     18  C   UNL     1       6.940   4.894  14.593  0.00  0.00    +0.000 C 
ATOM     19  C   UNL     1       6.879   4.603  13.281  0.00  0.00    +0.000 C 
ATOM     20  C   UNL     1       5.941   3.609  12.635  0.00  0.00    +0.000 C 
ATOM     21  C   UNL     1       7.812   5.259  12.297  0.00  0.00    +0.000 C 
ENDBRANCH  16  18
ENDBRANCH  15  16
BRANCH  15  22
ATOM     22  O   UNL     1       7.149   4.894  17.605  0.00  0.00    +0.000 OA
BRANCH  22  23
ATOM     23  C   UNL     1       7.542   5.998  18.284  0.00  0.00    +0.000 C 
ATOM     24  C   UNL     1       7.343   7.228  17.446  0.00  0.00    +0.000 C 
ATOM     25  O   UNL     1       8.003   6.006  19.416  0.00  0.00    +0.000 OA
ENDBRANCH  22  23
ENDBRANCH  15  22
ENDBRANCH   1  15
TORSDOF 6
ENDMDL
MODEL 4
REMARK VINA RESULT:      -8.5      0.806      1.020
REMARK  Name = 
REMARK  11 active torsions:
REMARK  status: ('A' for Active; 'I' for Inactive)
REMARK    1  A    between atoms: C_5  and  C_6
REMARK    2  A    between atoms: C_6  and  C_7
REMARK    3  A    between atoms: C_6  and  C_8
REMARK    4  A    between atoms: C_8  and  O_9
REMARK    5  A    between atoms: C_8  and  C_13
REMARK    6  A    between atoms: O_9  and  C_10
REMARK    7  A    between atoms: C_10  and  C_11
REMARK    8  A    between atoms: C_13  and  C_15
REMARK    9  A    between atoms: C_16  and  C_17
REMARK   10  A    between atoms: C_16  and  C_18
REMARK   11  A    between atoms: C_21  and  C_22
REMARK                            x       y       z     vdW  Elec       q    Type
REMARK                         _______ _______ _______ _____ _____    ______ ____
ROOT
ATOM      1  C   UNL     1       5.242   4.851  17.910  0.00  0.00    +0.000 C 
ATOM      2  C   UNL     1       5.572   4.799  19.405  0.00  0.00    +0.000 C 
ENDROOT
BRANCH   1   7
ATOM      3  C   UNL     1       1.935   9.691  18.011  0.00  0.00    +0.000 C 
ATOM      4  C   UNL     1       2.086   8.480  18.578  0.00  0.00    +0.000 C 
ATOM      5  C   UNL     1       2.781   7.424  17.882  0.00  0.00    +0.000 C 
ATOM      6  C   UNL     1       2.993   6.192  18.381  0.00  0.00    +0.000 C 
ATOM      7  C   UNL     1       3.736   5.148  17.548  0.00  0.00    +0.000 C 
ATOM      8  C   UNL     1       2.862   3.889  17.424  0.00  0.00    +0.000 C 
ATOM      9  C   UNL     1       2.354   3.338  18.749  0.00  0.00    +0.000 C 
ATOM     10  C   UNL     1       1.681   4.395  19.632  0.00  0.00    +0.000 C 
ATOM     11  C   UNL     1       1.464   3.781  21.022  0.00  0.00    +0.000 C 
ATOM     12  C   UNL     1       2.454   5.749  19.726  0.00  0.00    +0.000 C 
ATOM     13  C   UNL     1       1.565   6.783  20.458  0.00  0.00    +0.000 C 
ATOM     14  C   UNL     1       1.555   8.225  19.954  0.00  0.00    +0.000 C 
ENDBRANCH   1   7
BRANCH   1  15
ATOM     15  C   UNL     1       6.237   5.742  17.104  0.00  0.00    +0.000 C 
BRANCH  15  16
ATOM     16  C   UNL     1       7.253   4.845  16.382  0.00  0.00    +0.000 C 
ATOM     17  O   UNL     1       8.062   4.162  16.998  0.00  0.00    +0.000 OA
BRANCH  16  18
ATOM     18  C   UNL     1       7.311   4.900  14.883  0.00  0.00    +0.000 C 
ATOM     19  C   UNL     1       6.456   4.251  14.071  0.00  0.00    +0.000 C 
ATOM     20  C   UNL     1       5.218   3.501  14.505  0.00  0.00    +0.000 C 
ATOM     21  C   UNL     1       6.691   4.192  12.584  0.00  0.00    +0.000 C 
ENDBRANCH  16  18
ENDBRANCH  15  16
BRANCH  15  22
ATOM     22  O   UNL     1       7.122   6.483  17.991  0.00  0.00    +0.000 OA
BRANCH  22  23
ATOM     23  C   UNL     1       7.449   7.759  17.678  0.00  0.00    +0.000 C 
ATOM     24  C   UNL     1       8.536   8.260  18.583  0.00  0.00    +0.000 C 
ATOM     25  O   UNL     1       6.933   8.424  16.790  0.00  0.00    +0.000 OA
ENDBRANCH  22  23
ENDBRANCH  15  22
ENDBRANCH   1  15
TORSDOF 6
ENDMDL
MODEL 5
REMARK VINA RESULT:      -8.4      1.175      3.075
REMARK  Name = 
REMARK  11 active torsions:
REMARK  status: ('A' for Active; 'I' for Inactive)
REMARK    1  A    between atoms: C_5  and  C_6
REMARK    2  A    between atoms: C_6  and  C_7
REMARK    3  A    between atoms: C_6  and  C_8
REMARK    4  A    between atoms: C_8  and  O_9
REMARK    5  A    between atoms: C_8  and  C_13
REMARK    6  A    between atoms: O_9  and  C_10
REMARK    7  A    between atoms: C_10  and  C_11
REMARK    8  A    between atoms: C_13  and  C_15
REMARK    9  A    between atoms: C_16  and  C_17
REMARK   10  A    between atoms: C_16  and  C_18
REMARK   11  A    between atoms: C_21  and  C_22
REMARK                            x       y       z     vdW  Elec       q    Type
REMARK                         _______ _______ _______ _____ _____    ______ ____
ROOT
ATOM      1  C   UNL     1       5.031   3.769  17.704  0.00  0.00    +0.000 C 
ATOM      2  C   UNL     1       5.624   4.263  19.028  0.00  0.00    +0.000 C 
ENDROOT
BRANCH   1   7
ATOM      3  C   UNL     1       2.548   9.073  17.955  0.00  0.00    +0.000 C 
ATOM      4  C   UNL     1       2.496   7.837  18.481  0.00  0.00    +0.000 C 
ATOM      5  C   UNL     1       3.019   6.705  17.753  0.00  0.00    +0.000 C 
ATOM      6  C   UNL     1       3.024   5.440  18.211  0.00  0.00    +0.000 C 
ATOM      7  C   UNL     1       3.597   4.318  17.346  0.00  0.00    +0.000 C 
ATOM      8  C   UNL     1       2.532   3.221  17.175  0.00  0.00    +0.000 C 
ATOM      9  C   UNL     1       1.930   2.716  18.478  0.00  0.00    +0.000 C 
ATOM     10  C   UNL     1       1.428   3.838  19.394  0.00  0.00    +0.000 C 
ATOM     11  C   UNL     1       1.100   3.221  20.761  0.00  0.00    +0.000 C 
ATOM     12  C   UNL     1       2.408   5.046  19.537  0.00  0.00    +0.000 C 
ATOM     13  C   UNL     1       1.690   6.185  20.300  0.00  0.00    +0.000 C 
ATOM     14  C   UNL     1       1.917   7.625  19.846  0.00  0.00    +0.000 C 
ENDBRANCH   1   7
BRANCH   1  15
ATOM     15  C   UNL     1       6.032   3.891  16.513  0.00  0.00    +0.000 C 
BRANCH  15  16
ATOM     16  C   UNL     1       7.268   4.682  16.965  0.00  0.00    +0.000 C 
ATOM     17  O   UNL     1       8.221   4.135  17.505  0.00  0.00    +0.000 OA
BRANCH  16  18
ATOM     18  C   UNL     1       7.245   6.177  16.826  0.00  0.00    +0.000 C 
ATOM     19  C   UNL     1       7.604   7.029  17.804  0.00  0.00    +0.000 C 
ATOM     20  C   UNL     1       8.228   6.651  19.127  0.00  0.00    +0.000 C 
ATOM     21  C   UNL     1       7.371   8.511  17.665  0.00  0.00    +0.000 C 
ENDBRANCH  16  18
ENDBRANCH  15  16
BRANCH  15  22
ATOM     22  O   UNL     1       5.517   4.774  15.477  0.00  0.00    +0.000 OA
BRANCH  22  23
ATOM     23  C   UNL     1       6.003   4.663  14.217  0.00  0.00    +0.000 C 
ATOM     24  C   UNL     1       5.144   3.739  13.403  0.00  0.00    +0.000 C 
ATOM     25  O   UNL     1       7.002   5.224  13.792  0.00  0.00    +0.000 OA
ENDBRANCH  22  23
ENDBRANCH  15  22
ENDBRANCH   1  15
TORSDOF 6
ENDMDL
MODEL 6
REMARK VINA RESULT:      -7.5      1.109      3.335
REMARK  Name = 
REMARK  11 active torsions:
REMARK  status: ('A' for Active; 'I' for Inactive)
REMARK    1  A    between atoms: C_5  and  C_6
REMARK    2  A    between atoms: C_6  and  C_7
REMARK    3  A    between atoms: C_6  and  C_8
REMARK    4  A    between atoms: C_8  and  O_9
REMARK    5  A    between atoms: C_8  and  C_13
REMARK    6  A    between atoms: O_9  and  C_10
REMARK    7  A    between atoms: C_10  and  C_11
REMARK    8  A    between atoms: C_13  and  C_15
REMARK    9  A    between atoms: C_16  and  C_17
REMARK   10  A    between atoms: C_16  and  C_18
REMARK   11  A    between atoms: C_21  and  C_22
REMARK                            x       y       z     vdW  Elec       q    Type
REMARK                         _______ _______ _______ _____ _____    ______ ____
ROOT
ATOM      1  C   UNL     1       4.961   3.944  17.523  0.00  0.00    +0.000 C 
ATOM      2  C   UNL     1       5.604   4.338  18.857  0.00  0.00    +0.000 C 
ENDROOT
BRANCH   1   7
ATOM      3  C   UNL     1       2.249   9.114  18.051  0.00  0.00    +0.000 C 
ATOM      4  C   UNL     1       2.311   7.875  18.571  0.00  0.00    +0.000 C 
ATOM      5  C   UNL     1       2.817   6.773  17.787  0.00  0.00    +0.000 C 
ATOM      6  C   UNL     1       2.931   5.509  18.234  0.00  0.00    +0.000 C 
ATOM      7  C   UNL     1       3.473   4.419  17.310  0.00  0.00    +0.000 C 
ATOM      8  C   UNL     1       2.453   3.270  17.235  0.00  0.00    +0.000 C 
ATOM      9  C   UNL     1       2.007   2.732  18.587  0.00  0.00    +0.000 C 
ATOM     10  C   UNL     1       1.540   3.826  19.555  0.00  0.00    +0.000 C 
ATOM     11  C   UNL     1       1.378   3.190  20.943  0.00  0.00    +0.000 C 
ATOM     12  C   UNL     1       2.467   5.081  19.611  0.00  0.00    +0.000 C 
ATOM     13  C   UNL     1       1.770   6.180  20.448  0.00  0.00    +0.000 C 
ATOM     14  C   UNL     1       1.879   7.632  19.983  0.00  0.00    +0.000 C 
ENDBRANCH   1   7
BRANCH   1  15
ATOM     15  C   UNL     1       5.872   4.264  16.298  0.00  0.00    +0.000 C 
BRANCH  15  16
ATOM     16  C   UNL     1       6.109   5.779  16.221  0.00  0.00    +0.000 C 
ATOM     17  O   UNL     1       5.468   6.494  15.459  0.00  0.00    +0.000 OA
BRANCH  16  18
ATOM     18  C   UNL     1       7.229   6.367  17.030  0.00  0.00    +0.000 C 
ATOM     19  C   UNL     1       7.204   7.602  17.564  0.00  0.00    +0.000 C 
ATOM     20  C   UNL     1       6.018   8.537  17.584  0.00  0.00    +0.000 C 
ATOM     21  C   UNL     1       8.436   8.198  18.194  0.00  0.00    +0.000 C 
ENDBRANCH  16  18
ENDBRANCH  15  16
BRANCH  15  22
ATOM     22  O   UNL     1       5.169   4.043  15.043  0.00  0.00    +0.000 OA
BRANCH  22  23
ATOM     23  C   UNL     1       5.886   3.899  13.903  0.00  0.00    +0.000 C 
ATOM     24  C   UNL     1       4.983   3.557  12.754  0.00  0.00    +0.000 C 
ATOM     25  O   UNL     1       7.100   4.019  13.811  0.00  0.00    +0.000 OA
ENDBRANCH  22  23
ENDBRANCH  15  22
ENDBRANCH   1  15
TORSDOF 6
ENDMDL
MODEL 7
REMARK VINA RESULT:      -7.5      1.408      3.673
REMARK  Name = 
REMARK  11 active torsions:
REMARK  status: ('A' for Active; 'I' for Inactive)
REMARK    1  A    between atoms: C_5  and  C_6
REMARK    2  A    between atoms: C_6  and  C_7
REMARK    3  A    between atoms: C_6  and  C_8
REMARK    4  A    between atoms: C_8  and  O_9
REMARK    5  A    between atoms: C_8  and  C_13
REMARK    6  A    between atoms: O_9  and  C_10
REMARK    7  A    between atoms: C_10  and  C_11
REMARK    8  A    between atoms: C_13  and  C_15
REMARK    9  A    between atoms: C_16  and  C_17
REMARK   10  A    between atoms: C_16  and  C_18
REMARK   11  A    between atoms: C_21  and  C_22
REMARK                            x       y       z     vdW  Elec       q    Type
REMARK                         _______ _______ _______ _____ _____    ______ ____
ROOT
ATOM      1  C   UNL     1       5.966   4.938  17.827  0.00  0.00    +0.000 C 
ATOM      2  C   UNL     1       6.323   5.287  19.275  0.00  0.00    +0.000 C 
ENDROOT
BRANCH   1   7
ATOM      3  C   UNL     1       2.054   9.303  17.858  0.00  0.00    +0.000 C 
ATOM      4  C   UNL     1       2.358   8.129  18.438  0.00  0.00    +0.000 C 
ATOM      5  C   UNL     1       3.191   7.166  17.758  0.00  0.00    +0.000 C 
ATOM      6  C   UNL     1       3.558   5.977  18.271  0.00  0.00    +0.000 C 
ATOM      7  C   UNL     1       4.437   5.032  17.453  0.00  0.00    +0.000 C 
ATOM      8  C   UNL     1       3.737   3.667  17.337  0.00  0.00    +0.000 C 
ATOM      9  C   UNL     1       3.296   3.067  18.664  0.00  0.00    +0.000 C 
ATOM     10  C   UNL     1       2.484   4.036  19.533  0.00  0.00    +0.000 C 
ATOM     11  C   UNL     1       2.339   3.411  20.927  0.00  0.00    +0.000 C 
ATOM     12  C   UNL     1       3.073   5.480  19.617  0.00  0.00    +0.000 C 
ATOM     13  C   UNL     1       2.051   6.395  20.333  0.00  0.00    +0.000 C 
ATOM     14  C   UNL     1       1.855   7.819  19.814  0.00  0.00    +0.000 C 
ENDBRANCH   1   7
BRANCH   1  15
ATOM     15  C   UNL     1       6.881   5.662  16.790  0.00  0.00    +0.000 C 
BRANCH  15  16
ATOM     16  C   UNL     1       6.876   7.171  17.073  0.00  0.00    +0.000 C 
ATOM     17  O   UNL     1       6.135   7.937  16.469  0.00  0.00    +0.000 OA
BRANCH  16  18
ATOM     18  C   UNL     1       7.885   7.717  18.041  0.00  0.00    +0.000 C 
ATOM     19  C   UNL     1       8.189   9.022  18.157  0.00  0.00    +0.000 C 
ATOM     20  C   UNL     1       7.478  10.163  17.467  0.00  0.00    +0.000 C 
ATOM     21  C   UNL     1       9.347   9.477  19.007  0.00  0.00    +0.000 C 
ENDBRANCH  16  18
ENDBRANCH  15  16
BRANCH  15  22
ATOM     22  O   UNL     1       6.291   5.640  15.460  0.00  0.00    +0.000 OA
BRANCH  22  23
ATOM     23  C   UNL     1       6.980   5.065  14.445  0.00  0.00    +0.000 C 
ATOM     24  C   UNL     1       6.188   3.939  13.845  0.00  0.00    +0.000 C 
ATOM     25  O   UNL     1       8.092   5.400  14.065  0.00  0.00    +0.000 OA
ENDBRANCH  22  23
ENDBRANCH  15  22
ENDBRANCH   1  15
TORSDOF 6
ENDMDL
MODEL 8
REMARK VINA RESULT:      -7.4      1.147      3.216
REMARK  Name = 
REMARK  11 active torsions:
REMARK  status: ('A' for Active; 'I' for Inactive)
REMARK    1  A    between atoms: C_5  and  C_6
REMARK    2  A    between atoms: C_6  and  C_7
REMARK    3  A    between atoms: C_6  and  C_8
REMARK    4  A    between atoms: C_8  and  O_9
REMARK    5  A    between atoms: C_8  and  C_13
REMARK    6  A    between atoms: O_9  and  C_10
REMARK    7  A    between atoms: C_10  and  C_11
REMARK    8  A    between atoms: C_13  and  C_15
REMARK    9  A    between atoms: C_16  and  C_17
REMARK   10  A    between atoms: C_16  and  C_18
REMARK   11  A    between atoms: C_21  and  C_22
REMARK                            x       y       z     vdW  Elec       q    Type
REMARK                         _______ _______ _______ _____ _____    ______ ____
ROOT
ATOM      1  C   UNL     1       4.588   3.788  17.458  0.00  0.00    +0.000 C 
ATOM      2  C   UNL     1       5.179   3.815  18.871  0.00  0.00    +0.000 C 
ENDROOT
BRANCH   1   7
ATOM      3  C   UNL     1       2.245   9.104  18.242  0.00  0.00    +0.000 C 
ATOM      4  C   UNL     1       2.242   7.847  18.720  0.00  0.00    +0.000 C 
ATOM      5  C   UNL     1       2.647   6.741  17.885  0.00  0.00    +0.000 C 
ATOM      6  C   UNL     1       2.691   5.458  18.288  0.00  0.00    +0.000 C 
ATOM      7  C   UNL     1       3.128   4.366  17.312  0.00  0.00    +0.000 C 
ATOM      8  C   UNL     1       2.032   3.289  17.237  0.00  0.00    +0.000 C 
ATOM      9  C   UNL     1       1.595   2.738  18.586  0.00  0.00    +0.000 C 
ATOM     10  C   UNL     1       1.235   3.826  19.604  0.00  0.00    +0.000 C 
ATOM     11  C   UNL     1       1.077   3.157  20.976  0.00  0.00    +0.000 C 
ATOM     12  C   UNL     1       2.245   5.016  19.666  0.00  0.00    +0.000 C 
ATOM     13  C   UNL     1       1.651   6.130  20.561  0.00  0.00    +0.000 C 
ATOM     14  C   UNL     1       1.841   7.585  20.139  0.00  0.00    +0.000 C 
ENDBRANCH   1   7
BRANCH   1  15
ATOM     15  C   UNL     1       5.566   4.356  16.384  0.00  0.00    +0.000 C 
BRANCH  15  16
ATOM     16  C   UNL     1       5.624   5.885  16.506  0.00  0.00    +0.000 C 
ATOM     17  O   UNL     1       5.070   6.618  15.694  0.00  0.00    +0.000 OA
BRANCH  16  18
ATOM     18  C   UNL     1       6.472   6.481  17.592  0.00  0.00    +0.000 C 
ATOM     19  C   UNL     1       7.529   5.862  18.148  0.00  0.00    +0.000 C 
ATOM     20  C   UNL     1       8.138   4.558  17.686  0.00  0.00    +0.000 C 
ATOM     21  C   UNL     1       8.212   6.433  19.363  0.00  0.00    +0.000 C 
ENDBRANCH  16  18
ENDBRANCH  15  16
BRANCH  15  22
ATOM     22  O   UNL     1       5.017   4.219  15.043  0.00  0.00    +0.000 OA
BRANCH  22  23
ATOM     23  C   UNL     1       5.866   4.091  13.995  0.00  0.00    +0.000 C 
ATOM     24  C   UNL     1       5.156   3.496  12.813  0.00  0.00    +0.000 C 
ATOM     25  O   UNL     1       7.048   4.404  13.999  0.00  0.00    +0.000 OA
ENDBRANCH  22  23
ENDBRANCH  15  22
ENDBRANCH   1  15
TORSDOF 6
ENDMDL
MODEL 9
REMARK VINA RESULT:      -7.2      1.924      3.273
REMARK  Name = 
REMARK  11 active torsions:
REMARK  status: ('A' for Active; 'I' for Inactive)
REMARK    1  A    between atoms: C_5  and  C_6
REMARK    2  A    between atoms: C_6  and  C_7
REMARK    3  A    between atoms: C_6  and  C_8
REMARK    4  A    between atoms: C_8  and  O_9
REMARK    5  A    between atoms: C_8  and  C_13
REMARK    6  A    between atoms: O_9  and  C_10
REMARK    7  A    between atoms: C_10  and  C_11
REMARK    8  A    between atoms: C_13  and  C_15
REMARK    9  A    between atoms: C_16  and  C_17
REMARK   10  A    between atoms: C_16  and  C_18
REMARK   11  A    between atoms: C_21  and  C_22
REMARK                            x       y       z     vdW  Elec       q    Type
REMARK                         _______ _______ _______ _____ _____    ______ ____
ROOT
ATOM      1  C   UNL     1       4.052   3.354  17.722  0.00  0.00    +0.000 C 
ATOM      2  C   UNL     1       4.120   1.885  17.292  0.00  0.00    +0.000 C 
ENDROOT
BRANCH   1   7
ATOM      3  C   UNL     1       2.164   8.884  18.187  0.00  0.00    +0.000 C 
ATOM      4  C   UNL     1       2.119   7.680  18.783  0.00  0.00    +0.000 C 
ATOM      5  C   UNL     1       2.367   6.475  18.027  0.00  0.00    +0.000 C 
ATOM      6  C   UNL     1       2.360   5.234  18.547  0.00  0.00    +0.000 C 
ATOM      7  C   UNL     1       2.628   4.028  17.647  0.00  0.00    +0.000 C 
ATOM      8  C   UNL     1       1.458   3.037  17.771  0.00  0.00    +0.000 C 
ATOM      9  C   UNL     1       1.112   2.644  19.200  0.00  0.00    +0.000 C 
ATOM     10  C   UNL     1       0.923   3.845  20.135  0.00  0.00    +0.000 C 
ATOM     11  C   UNL     1       0.847   3.316  21.574  0.00  0.00    +0.000 C 
ATOM     12  C   UNL     1       2.014   4.953  19.995  0.00  0.00    +0.000 C 
ATOM     13  C   UNL     1       1.584   6.186  20.825  0.00  0.00    +0.000 C 
ATOM     14  C   UNL     1       1.834   7.579  20.249  0.00  0.00    +0.000 C 
ENDBRANCH   1   7
BRANCH   1  15
ATOM     15  C   UNL     1       4.766   3.616  19.085  0.00  0.00    +0.000 C 
BRANCH  15  16
ATOM     16  C   UNL     1       6.045   4.429  18.841  0.00  0.00    +0.000 C 
ATOM     17  O   UNL     1       6.510   5.170  19.699  0.00  0.00    +0.000 OA
BRANCH  16  18
ATOM     18  C   UNL     1       6.669   4.383  17.477  0.00  0.00    +0.000 C 
ATOM     19  C   UNL     1       6.474   5.316  16.527  0.00  0.00    +0.000 C 
ATOM     20  C   UNL     1       5.742   6.625  16.706  0.00  0.00    +0.000 C 
ATOM     21  C   UNL     1       6.972   5.106  15.121  0.00  0.00    +0.000 C 
ENDBRANCH  16  18
ENDBRANCH  15  16
BRANCH  15  22
ATOM     22  O   UNL     1       5.331   2.391  19.630  0.00  0.00    +0.000 OA
BRANCH  22  23
ATOM     23  C   UNL     1       4.795   1.863  20.757  0.00  0.00    +0.000 C 
ATOM     24  C   UNL     1       5.583   0.667  21.204  0.00  0.00    +0.000 C 
ATOM     25  O   UNL     1       3.804   2.287  21.334  0.00  0.00    +0.000 OA
ENDBRANCH  22  23
ENDBRANCH  15  22
ENDBRANCH   1  15
TORSDOF 6
ENDMDL
