MODEL 1
REMARK VINA RESULT:      -8.8      0.000      0.000
REMARK  Name = 
REMARK  3 active torsions:
REMARK  status: ('A' for Active; 'I' for Inactive)
REMARK    1  A    between atoms: N_5  and  C_6
REMARK    2  A    between atoms: C_13  and  C_14
REMARK    3  A    between atoms: C_16  and  C_17
REMARK                            x       y       z     vdW  Elec       q    Type
REMARK                         _______ _______ _______ _____ _____    ______ ____
ROOT
ATOM      1  C   UNL     1       7.207   7.133  17.838  0.00  0.00    +0.000 A 
ATOM      2  N   UNL     1       7.162   8.393  17.457  0.00  0.00    +0.000 NA
ATOM      3  C   UNL     1       8.220   8.957  18.133  0.00  0.00    +0.000 A 
ATOM      4  N   UNL     1       8.857   8.110  18.954  0.00  0.00    +0.000 NA
ATOM      5  O   UNL     1       8.183   6.902  18.765  0.00  0.00    +0.000 OA
ENDROOT
BRANCH   3   6
ATOM      6  C   UNL     1       8.656  10.312  17.836  0.00  0.00    +0.000 A 
ATOM      7  C   UNL     1       7.728  11.299  17.428  0.00  0.00    +0.000 A 
ATOM      8  C   UNL     1       8.104  12.645  17.337  0.00  0.00    +0.000 A 
ATOM      9  C   UNL     1       9.403  12.964  17.669  0.00  0.00    +0.000 A 
ATOM     10  C   UNL     1      10.322  12.001  18.016  0.00  0.00    +0.000 A 
ATOM     11  C   UNL     1       9.989  10.668  18.091  0.00  0.00    +0.000 A 
ATOM     12  O   UNL     1      11.533  12.533  18.336  0.00  0.00    +0.000 OA
ATOM     13  C   UNL     1      11.184  13.930  18.390  0.00  0.00    +0.000 C 
ATOM     14  O   UNL     1       9.923  14.218  17.750  0.00  0.00    +0.000 OA
ENDBRANCH   3   6
BRANCH   1  21
ATOM     15  O   UNL     1       7.724   5.873  15.313  0.00  0.00    +0.000 OA
ATOM     16  C   UNL     1       6.784   5.467  15.979  0.00  0.00    +0.000 A 
ATOM     17  C   UNL     1       5.971   4.343  15.500  0.00  0.00    +0.000 A 
ATOM     18  C   UNL     1       4.913   4.037  16.250  0.00  0.00    +0.000 A 
ATOM     19  N   UNL     1       4.555   4.683  17.416  0.00  0.00    +0.000 N 
ATOM     20  N   UNL     1       5.336   5.670  17.969  0.00  0.00    +0.000 NA
ATOM     21  C   UNL     1       6.391   6.072  17.315  0.00  0.00    +0.000 A 
BRANCH  19  22
ATOM     22  C   UNL     1       3.353   4.387  18.138  0.00  0.00    +0.000 A 
ATOM     23  C   UNL     1       3.013   5.107  19.299  0.00  0.00    +0.000 A 
ATOM     24  C   UNL     1       1.857   4.813  20.029  0.00  0.00    +0.000 A 
ATOM     25  C   UNL     1       1.002   3.802  19.602  0.00  0.00    +0.000 A 
ATOM     26  C   UNL     1       1.296   3.090  18.443  0.00  0.00    +0.000 A 
ATOM     27  C   UNL     1       2.458   3.384  17.719  0.00  0.00    +0.000 A 
ENDBRANCH  19  22
ENDBRANCH   1  21
TORSDOF 3
ENDMDL
MODEL 2
REMARK VINA RESULT:      -8.6      5.178      7.452
REMARK  Name = 
REMARK  3 active torsions:
REMARK  status: ('A' for Active; 'I' for Inactive)
REMARK    1  A    between atoms: N_5  and  C_6
REMARK    2  A    between atoms: C_13  and  C_14
REMARK    3  A    between atoms: C_16  and  C_17
REMARK                            x       y       z     vdW  Elec       q    Type
REMARK                         _______ _______ _______ _____ _____    ______ ____
ROOT
ATOM      1  C   UNL     1       3.993   5.772  18.202  0.00  0.00    +0.000 A 
ATOM      2  N   UNL     1       3.645   7.030  18.376  0.00  0.00    +0.000 NA
ATOM      3  C   UNL     1       2.446   6.928  19.044  0.00  0.00    +0.000 A 
ATOM      4  N   UNL     1       2.025   5.667  19.220  0.00  0.00    +0.000 NA
ATOM      5  O   UNL     1       3.046   4.900  18.657  0.00  0.00    +0.000 OA
ENDROOT
BRANCH   3   6
ATOM      6  C   UNL     1       1.810   8.104  19.615  0.00  0.00    +0.000 A 
ATOM      7  C   UNL     1       1.334   9.146  18.784  0.00  0.00    +0.000 A 
ATOM      8  C   UNL     1       0.545  10.177  19.308  0.00  0.00    +0.000 A 
ATOM      9  C   UNL     1       0.247  10.129  20.652  0.00  0.00    +0.000 A 
ATOM     10  C   UNL     1       0.750   9.146  21.473  0.00  0.00    +0.000 A 
ATOM     11  C   UNL     1       1.547   8.133  20.993  0.00  0.00    +0.000 A 
ATOM     12  O   UNL     1       0.308   9.266  22.754  0.00  0.00    +0.000 OA
ATOM     13  C   UNL     1      -0.711  10.269  22.573  0.00  0.00    +0.000 C 
ATOM     14  O   UNL     1      -0.589  10.971  21.317  0.00  0.00    +0.000 OA
ENDBRANCH   3   6
BRANCH   1  21
ATOM     15  O   UNL     1       6.370   5.528  19.791  0.00  0.00    +0.000 OA
ATOM     16  C   UNL     1       6.427   5.205  18.615  0.00  0.00    +0.000 A 
ATOM     17  C   UNL     1       7.677   4.679  18.053  0.00  0.00    +0.000 A 
ATOM     18  C   UNL     1       7.664   4.446  16.741  0.00  0.00    +0.000 A 
ATOM     19  N   UNL     1       6.583   4.651  15.909  0.00  0.00    +0.000 N 
ATOM     20  N   UNL     1       5.357   5.039  16.395  0.00  0.00    +0.000 NA
ATOM     21  C   UNL     1       5.247   5.318  17.665  0.00  0.00    +0.000 A 
BRANCH  19  22
ATOM     22  C   UNL     1       6.643   4.482  14.488  0.00  0.00    +0.000 A 
ATOM     23  C   UNL     1       5.757   3.611  13.826  0.00  0.00    +0.000 A 
ATOM     24  C   UNL     1       5.821   3.417  12.442  0.00  0.00    +0.000 A 
ATOM     25  C   UNL     1       6.763   4.106  11.684  0.00  0.00    +0.000 A 
ATOM     26  C   UNL     1       7.636   4.995  12.305  0.00  0.00    +0.000 A 
ATOM     27  C   UNL     1       7.572   5.181  13.692  0.00  0.00    +0.000 A 
ENDBRANCH  19  22
ENDBRANCH   1  21
TORSDOF 3
ENDMDL
MODEL 3
REMARK VINA RESULT:      -8.6      5.619      8.485
REMARK  Name = 
REMARK  3 active torsions:
REMARK  status: ('A' for Active; 'I' for Inactive)
REMARK    1  A    between atoms: N_5  and  C_6
REMARK    2  A    between atoms: C_13  and  C_14
REMARK    3  A    between atoms: C_16  and  C_17
REMARK                            x       y       z     vdW  Elec       q    Type
REMARK                         _______ _______ _______ _____ _____    ______ ____
ROOT
ATOM      1  C   UNL     1       1.440   7.857  20.324  0.00  0.00    +0.000 A 
ATOM      2  N   UNL     1       2.447   7.597  19.517  0.00  0.00    +0.000 NA
ATOM      3  C   UNL     1       2.728   6.277  19.788  0.00  0.00    +0.000 A 
ATOM      4  N   UNL     1       1.979   5.752  20.769  0.00  0.00    +0.000 NA
ATOM      5  O   UNL     1       1.130   6.799  21.130  0.00  0.00    +0.000 OA
ENDROOT
BRANCH   3   6
ATOM      6  C   UNL     1       3.655   5.527  18.957  0.00  0.00    +0.000 A 
ATOM      7  C   UNL     1       3.271   5.068  17.675  0.00  0.00    +0.000 A 
ATOM      8  C   UNL     1       4.215   4.526  16.795  0.00  0.00    +0.000 A 
ATOM      9  C   UNL     1       5.523   4.469  17.222  0.00  0.00    +0.000 A 
ATOM     10  C   UNL     1       5.892   4.867  18.487  0.00  0.00    +0.000 A 
ATOM     11  C   UNL     1       4.984   5.381  19.383  0.00  0.00    +0.000 A 
ATOM     12  O   UNL     1       7.233   4.758  18.694  0.00  0.00    +0.000 OA
ATOM     13  C   UNL     1       7.671   4.493  17.346  0.00  0.00    +0.000 C 
ATOM     14  O   UNL     1       6.593   4.083  16.477  0.00  0.00    +0.000 OA
ENDBRANCH   3   6
BRANCH   1  21
ATOM     15  O   UNL     1       1.565   9.736  22.489  0.00  0.00    +0.000 OA
ATOM     16  C   UNL     1       0.850  10.002  21.534  0.00  0.00    +0.000 A 
ATOM     17  C   UNL     1       0.107  11.267  21.498  0.00  0.00    +0.000 A 
ATOM     18  C   UNL     1      -0.717  11.421  20.462  0.00  0.00    +0.000 A 
ATOM     19  N   UNL     1      -0.899  10.500  19.450  0.00  0.00    +0.000 N 
ATOM     20  N   UNL     1      -0.153   9.347  19.374  0.00  0.00    +0.000 NA
ATOM     21  C   UNL     1       0.676   9.075  20.344  0.00  0.00    +0.000 A 
BRANCH  19  22
ATOM     22  C   UNL     1      -1.869  10.661  18.408  0.00  0.00    +0.000 A 
ATOM     23  C   UNL     1      -2.979  11.510  18.581  0.00  0.00    +0.000 A 
ATOM     24  C   UNL     1      -3.948  11.658  17.582  0.00  0.00    +0.000 A 
ATOM     25  C   UNL     1      -3.817  10.974  16.378  0.00  0.00    +0.000 A 
ATOM     26  C   UNL     1      -2.717  10.148  16.166  0.00  0.00    +0.000 A 
ATOM     27  C   UNL     1      -1.753   9.998  17.171  0.00  0.00    +0.000 A 
ENDBRANCH  19  22
ENDBRANCH   1  21
TORSDOF 3
ENDMDL
MODEL 4
REMARK VINA RESULT:      -8.6      5.823      8.698
REMARK  Name = 
REMARK  3 active torsions:
REMARK  status: ('A' for Active; 'I' for Inactive)
REMARK    1  A    between atoms: N_5  and  C_6
REMARK    2  A    between atoms: C_13  and  C_14
REMARK    3  A    between atoms: C_16  and  C_17
REMARK                            x       y       z     vdW  Elec       q    Type
REMARK                         _______ _______ _______ _____ _____    ______ ____
ROOT
ATOM      1  C   UNL     1       1.389   8.310  19.943  0.00  0.00    +0.000 A 
ATOM      2  N   UNL     1       2.277   8.026  19.013  0.00  0.00    +0.000 NA
ATOM      3  C   UNL     1       2.701   6.765  19.367  0.00  0.00    +0.000 A 
ATOM      4  N   UNL     1       2.157   6.306  20.503  0.00  0.00    +0.000 NA
ATOM      5  O   UNL     1       1.293   7.331  20.891  0.00  0.00    +0.000 OA
ENDROOT
BRANCH   3   6
ATOM      6  C   UNL     1       3.547   5.987  18.477  0.00  0.00    +0.000 A 
ATOM      7  C   UNL     1       3.484   4.573  18.470  0.00  0.00    +0.000 A 
ATOM      8  C   UNL     1       4.142   3.831  17.482  0.00  0.00    +0.000 A 
ATOM      9  C   UNL     1       4.838   4.529  16.520  0.00  0.00    +0.000 A 
ATOM     10  C   UNL     1       4.944   5.901  16.553  0.00  0.00    +0.000 A 
ATOM     11  C   UNL     1       4.329   6.657  17.524  0.00  0.00    +0.000 A 
ATOM     12  O   UNL     1       5.645   6.391  15.495  0.00  0.00    +0.000 OA
ATOM     13  C   UNL     1       5.739   5.202  14.686  0.00  0.00    +0.000 C 
ATOM     14  O   UNL     1       5.444   3.997  15.425  0.00  0.00    +0.000 OA
ENDBRANCH   3   6
BRANCH   1  21
ATOM     15  O   UNL     1       1.450  10.242  22.063  0.00  0.00    +0.000 OA
ATOM     16  C   UNL     1       0.688  10.435  21.128  0.00  0.00    +0.000 A 
ATOM     17  C   UNL     1      -0.143  11.644  21.091  0.00  0.00    +0.000 A 
ATOM     18  C   UNL     1      -1.009  11.716  20.081  0.00  0.00    +0.000 A 
ATOM     19  N   UNL     1      -1.158  10.762  19.095  0.00  0.00    +0.000 N 
ATOM     20  N   UNL     1      -0.336   9.664  19.017  0.00  0.00    +0.000 NA
ATOM     21  C   UNL     1       0.542   9.471  19.964  0.00  0.00    +0.000 A 
BRANCH  19  22
ATOM     22  C   UNL     1      -2.170  10.832  18.083  0.00  0.00    +0.000 A 
ATOM     23  C   UNL     1      -2.019  10.146  16.863  0.00  0.00    +0.000 A 
ATOM     24  C   UNL     1      -2.987  10.225  15.856  0.00  0.00    +0.000 A 
ATOM     25  C   UNL     1      -4.140  10.978  16.056  0.00  0.00    +0.000 A 
ATOM     26  C   UNL     1      -4.332  11.646  17.262  0.00  0.00    +0.000 A 
ATOM     27  C   UNL     1      -3.357  11.569  18.264  0.00  0.00    +0.000 A 
ENDBRANCH  19  22
ENDBRANCH   1  21
TORSDOF 3
ENDMDL
MODEL 5
REMARK VINA RESULT:      -8.6      5.145      7.140
REMARK  Name = 
REMARK  3 active torsions:
REMARK  status: ('A' for Active; 'I' for Inactive)
REMARK    1  A    between atoms: N_5  and  C_6
REMARK    2  A    between atoms: C_13  and  C_14
REMARK    3  A    between atoms: C_16  and  C_17
REMARK                            x       y       z     vdW  Elec       q    Type
REMARK                         _______ _______ _______ _____ _____    ______ ____
ROOT
ATOM      1  C   UNL     1       3.954   5.678  18.208  0.00  0.00    +0.000 A 
ATOM      2  N   UNL     1       3.592   6.918  18.464  0.00  0.00    +0.000 NA
ATOM      3  C   UNL     1       2.378   6.761  19.093  0.00  0.00    +0.000 A 
ATOM      4  N   UNL     1       1.963   5.488  19.167  0.00  0.00    +0.000 NA
ATOM      5  O   UNL     1       3.003   4.770  18.575  0.00  0.00    +0.000 OA
ENDROOT
BRANCH   3   6
ATOM      6  C   UNL     1       1.719   7.889  19.732  0.00  0.00    +0.000 A 
ATOM      7  C   UNL     1       1.398   7.854  21.110  0.00  0.00    +0.000 A 
ATOM      8  C   UNL     1       0.952   9.004  21.772  0.00  0.00    +0.000 A 
ATOM      9  C   UNL     1       0.850  10.162  21.034  0.00  0.00    +0.000 A 
ATOM     10  C   UNL     1       1.112  10.189  19.683  0.00  0.00    +0.000 A 
ATOM     11  C   UNL     1       1.529   9.070  19.000  0.00  0.00    +0.000 A 
ATOM     12  O   UNL     1       0.983  11.436  19.155  0.00  0.00    +0.000 OA
ATOM     13  C   UNL     1       0.861  12.207  20.366  0.00  0.00    +0.000 C 
ATOM     14  O   UNL     1       0.545  11.396  21.518  0.00  0.00    +0.000 OA
ENDBRANCH   3   6
BRANCH   1  21
ATOM     15  O   UNL     1       6.343   5.542  19.790  0.00  0.00    +0.000 OA
ATOM     16  C   UNL     1       6.409   5.213  18.616  0.00  0.00    +0.000 A 
ATOM     17  C   UNL     1       7.678   4.734  18.054  0.00  0.00    +0.000 A 
ATOM     18  C   UNL     1       7.671   4.492  16.743  0.00  0.00    +0.000 A 
ATOM     19  N   UNL     1       6.580   4.648  15.914  0.00  0.00    +0.000 N 
ATOM     20  N   UNL     1       5.340   4.989  16.401  0.00  0.00    +0.000 NA
ATOM     21  C   UNL     1       5.223   5.272  17.669  0.00  0.00    +0.000 A 
BRANCH  19  22
ATOM     22  C   UNL     1       6.643   4.472  14.493  0.00  0.00    +0.000 A 
ATOM     23  C   UNL     1       5.729   3.632  13.828  0.00  0.00    +0.000 A 
ATOM     24  C   UNL     1       5.795   3.431  12.445  0.00  0.00    +0.000 A 
ATOM     25  C   UNL     1       6.766   4.083  11.692  0.00  0.00    +0.000 A 
ATOM     26  C   UNL     1       7.667   4.941  12.316  0.00  0.00    +0.000 A 
ATOM     27  C   UNL     1       7.602   5.134  13.701  0.00  0.00    +0.000 A 
ENDBRANCH  19  22
ENDBRANCH   1  21
TORSDOF 3
ENDMDL
MODEL 6
REMARK VINA RESULT:      -8.5      2.177      4.033
REMARK  Name = 
REMARK  3 active torsions:
REMARK  status: ('A' for Active; 'I' for Inactive)
REMARK    1  A    between atoms: N_5  and  C_6
REMARK    2  A    between atoms: C_13  and  C_14
REMARK    3  A    between atoms: C_16  and  C_17
REMARK                            x       y       z     vdW  Elec       q    Type
REMARK                         _______ _______ _______ _____ _____    ______ ____
ROOT
ATOM      1  C   UNL     1       7.687   7.499  17.939  0.00  0.00    +0.000 A 
ATOM      2  N   UNL     1       7.597   8.722  17.461  0.00  0.00    +0.000 NA
ATOM      3  C   UNL     1       8.518   9.416  18.213  0.00  0.00    +0.000 A 
ATOM      4  N   UNL     1       9.108   8.680  19.166  0.00  0.00    +0.000 NA
ATOM      5  O   UNL     1       8.553   7.411  18.991  0.00  0.00    +0.000 OA
ENDROOT
BRANCH   3   6
ATOM      6  C   UNL     1       8.887  10.779  17.867  0.00  0.00    +0.000 A 
ATOM      7  C   UNL     1       7.896  11.756  17.612  0.00  0.00    +0.000 A 
ATOM      8  C   UNL     1       8.237  13.107  17.480  0.00  0.00    +0.000 A 
ATOM      9  C   UNL     1       9.566  13.442  17.617  0.00  0.00    +0.000 A 
ATOM     10  C   UNL     1      10.540  12.489  17.813  0.00  0.00    +0.000 A 
ATOM     11  C   UNL     1      10.238  11.152  17.924  0.00  0.00    +0.000 A 
ATOM     12  O   UNL     1      11.778  13.036  17.954  0.00  0.00    +0.000 OA
ATOM     13  C   UNL     1      11.423  14.428  18.074  0.00  0.00    +0.000 C 
ATOM     14  O   UNL     1      10.076  14.703  17.632  0.00  0.00    +0.000 OA
ENDBRANCH   3   6
BRANCH   1  21
ATOM     15  O   UNL     1       6.267   5.624  19.583  0.00  0.00    +0.000 OA
ATOM     16  C   UNL     1       6.281   5.439  18.375  0.00  0.00    +0.000 A 
ATOM     17  C   UNL     1       5.558   4.300  17.795  0.00  0.00    +0.000 A 
ATOM     18  C   UNL     1       5.713   4.129  16.483  0.00  0.00    +0.000 A 
ATOM     19  N   UNL     1       6.474   4.937  15.662  0.00  0.00    +0.000 N 
ATOM     20  N   UNL     1       7.085   6.076  16.129  0.00  0.00    +0.000 NA
ATOM     21  C   UNL     1       7.022   6.341  17.405  0.00  0.00    +0.000 A 
BRANCH  19  22
ATOM     22  C   UNL     1       6.694   4.659  14.274  0.00  0.00    +0.000 A 
ATOM     23  C   UNL     1       5.959   3.655  13.614  0.00  0.00    +0.000 A 
ATOM     24  C   UNL     1       6.180   3.356  12.265  0.00  0.00    +0.000 A 
ATOM     25  C   UNL     1       7.130   4.069  11.540  0.00  0.00    +0.000 A 
ATOM     26  C   UNL     1       7.853   5.085  12.156  0.00  0.00    +0.000 A 
ATOM     27  C   UNL     1       7.633   5.378  13.508  0.00  0.00    +0.000 A 
ENDBRANCH  19  22
ENDBRANCH   1  21
TORSDOF 3
ENDMDL
MODEL 7
REMARK VINA RESULT:      -8.3      6.051      8.584
REMARK  Name = 
REMARK  3 active torsions:
REMARK  status: ('A' for Active; 'I' for Inactive)
REMARK    1  A    between atoms: N_5  and  C_6
REMARK    2  A    between atoms: C_13  and  C_14
REMARK    3  A    between atoms: C_16  and  C_17
REMARK                            x       y       z     vdW  Elec       q    Type
REMARK                         _______ _______ _______ _____ _____    ______ ____
ROOT
ATOM      1  C   UNL     1       1.188   8.531  20.086  0.00  0.00    +0.000 A 
ATOM      2  N   UNL     1       2.189   8.411  19.240  0.00  0.00    +0.000 NA
ATOM      3  C   UNL     1       2.645   7.135  19.481  0.00  0.00    +0.000 A 
ATOM      4  N   UNL     1       2.006   6.507  20.479  0.00  0.00    +0.000 NA
ATOM      5  O   UNL     1       1.045   7.433  20.886  0.00  0.00    +0.000 OA
ENDROOT
BRANCH   3   6
ATOM      6  C   UNL     1       3.629   6.518  18.606  0.00  0.00    +0.000 A 
ATOM      7  C   UNL     1       3.788   6.958  17.270  0.00  0.00    +0.000 A 
ATOM      8  C   UNL     1       4.862   6.511  16.491  0.00  0.00    +0.000 A 
ATOM      9  C   UNL     1       5.754   5.642  17.078  0.00  0.00    +0.000 A 
ATOM     10  C   UNL     1       5.575   5.171  18.359  0.00  0.00    +0.000 A 
ATOM     11  C   UNL     1       4.517   5.573  19.141  0.00  0.00    +0.000 A 
ATOM     12  O   UNL     1       6.585   4.351  18.756  0.00  0.00    +0.000 OA
ATOM     13  C   UNL     1       7.520   4.571  17.681  0.00  0.00    +0.000 C 
ATOM     14  O   UNL     1       6.911   5.188  16.526  0.00  0.00    +0.000 OA
ENDBRANCH   3   6
BRANCH   1  21
ATOM     15  O   UNL     1       1.036  10.287  22.350  0.00  0.00    +0.000 OA
ATOM     16  C   UNL     1       0.311  10.514  21.394  0.00  0.00    +0.000 A 
ATOM     17  C   UNL     1      -0.584  11.678  21.407  0.00  0.00    +0.000 A 
ATOM     18  C   UNL     1      -1.402  11.785  20.360  0.00  0.00    +0.000 A 
ATOM     19  N   UNL     1      -1.449  10.907  19.297  0.00  0.00    +0.000 N 
ATOM     20  N   UNL     1      -0.563   9.862  19.178  0.00  0.00    +0.000 NA
ATOM     21  C   UNL     1       0.277   9.641  20.152  0.00  0.00    +0.000 A 
BRANCH  19  22
ATOM     22  C   UNL     1      -2.413  11.005  18.241  0.00  0.00    +0.000 A 
ATOM     23  C   UNL     1      -2.129  10.503  16.956  0.00  0.00    +0.000 A 
ATOM     24  C   UNL     1      -3.050  10.614  15.909  0.00  0.00    +0.000 A 
ATOM     25  C   UNL     1      -4.287  11.213  16.130  0.00  0.00    +0.000 A 
ATOM     26  C   UNL     1      -4.608  11.694  17.395  0.00  0.00    +0.000 A 
ATOM     27  C   UNL     1      -3.680  11.586  18.439  0.00  0.00    +0.000 A 
ENDBRANCH  19  22
ENDBRANCH   1  21
TORSDOF 3
ENDMDL
MODEL 8
REMARK VINA RESULT:      -8.3      7.577      9.600
REMARK  Name = 
REMARK  3 active torsions:
REMARK  status: ('A' for Active; 'I' for Inactive)
REMARK    1  A    between atoms: N_5  and  C_6
REMARK    2  A    between atoms: C_13  and  C_14
REMARK    3  A    between atoms: C_16  and  C_17
REMARK                            x       y       z     vdW  Elec       q    Type
REMARK                         _______ _______ _______ _____ _____    ______ ____
ROOT
ATOM      1  C   UNL     1       0.716   9.313  21.118  0.00  0.00    +0.000 A 
ATOM      2  N   UNL     1      -0.430   9.926  20.908  0.00  0.00    +0.000 NA
ATOM      3  C   UNL     1      -0.605  10.655  22.062  0.00  0.00    +0.000 A 
ATOM      4  N   UNL     1       0.349  10.456  22.983  0.00  0.00    +0.000 NA
ATOM      5  O   UNL     1       1.222   9.561  22.362  0.00  0.00    +0.000 OA
ENDROOT
BRANCH   3   6
ATOM      6  C   UNL     1      -1.663  11.647  22.162  0.00  0.00    +0.000 A 
ATOM      7  C   UNL     1      -2.079  12.381  21.025  0.00  0.00    +0.000 A 
ATOM      8  C   UNL     1      -3.224  13.184  21.070  0.00  0.00    +0.000 A 
ATOM      9  C   UNL     1      -3.928  13.222  22.254  0.00  0.00    +0.000 A 
ATOM     10  C   UNL     1      -3.499  12.552  23.376  0.00  0.00    +0.000 A 
ATOM     11  C   UNL     1      -2.365  11.773  23.371  0.00  0.00    +0.000 A 
ATOM     12  O   UNL     1      -4.355  12.696  24.424  0.00  0.00    +0.000 OA
ATOM     13  C   UNL     1      -5.470  13.313  23.751  0.00  0.00    +0.000 C 
ATOM     14  O   UNL     1      -5.117  13.851  22.459  0.00  0.00    +0.000 OA
ENDBRANCH   3   6
BRANCH   1  21
ATOM     15  O   UNL     1       1.268  10.223  18.454  0.00  0.00    +0.000 OA
ATOM     16  C   UNL     1       1.683   9.123  18.785  0.00  0.00    +0.000 A 
ATOM     17  C   UNL     1       2.467   8.315  17.843  0.00  0.00    +0.000 A 
ATOM     18  C   UNL     1       2.791   7.093  18.264  0.00  0.00    +0.000 A 
ATOM     19  N   UNL     1       2.456   6.564  19.494  0.00  0.00    +0.000 N 
ATOM     20  N   UNL     1       1.816   7.309  20.456  0.00  0.00    +0.000 NA
ATOM     21  C   UNL     1       1.429   8.518  20.155  0.00  0.00    +0.000 A 
BRANCH  19  22
ATOM     22  C   UNL     1       2.738   5.209  19.867  0.00  0.00    +0.000 A 
ATOM     23  C   UNL     1       1.993   4.569  20.876  0.00  0.00    +0.000 A 
ATOM     24  C   UNL     1       2.274   3.256  21.269  0.00  0.00    +0.000 A 
ATOM     25  C   UNL     1       3.295   2.546  20.646  0.00  0.00    +0.000 A 
ATOM     26  C   UNL     1       4.032   3.141  19.626  0.00  0.00    +0.000 A 
ATOM     27  C   UNL     1       3.751   4.458  19.241  0.00  0.00    +0.000 A 
ENDBRANCH  19  22
ENDBRANCH   1  21
TORSDOF 3
ENDMDL
MODEL 9
REMARK VINA RESULT:      -8.0      7.966      9.762
REMARK  Name = 
REMARK  3 active torsions:
REMARK  status: ('A' for Active; 'I' for Inactive)
REMARK    1  A    between atoms: N_5  and  C_6
REMARK    2  A    between atoms: C_13  and  C_14
REMARK    3  A    between atoms: C_16  and  C_17
REMARK                            x       y       z     vdW  Elec       q    Type
REMARK                         _______ _______ _______ _____ _____    ______ ____
ROOT
ATOM      1  C   UNL     1       0.411   9.604  21.442  0.00  0.00    +0.000 A 
ATOM      2  N   UNL     1      -0.456  10.590  21.347  0.00  0.00    +0.000 NA
ATOM      3  C   UNL     1      -0.713  10.904  22.662  0.00  0.00    +0.000 A 
ATOM      4  N   UNL     1      -0.091  10.107  23.543  0.00  0.00    +0.000 NA
ATOM      5  O   UNL     1       0.648   9.240  22.737  0.00  0.00    +0.000 OA
ENDROOT
BRANCH   3   6
ATOM      6  C   UNL     1      -1.475  12.092  23.009  0.00  0.00    +0.000 A 
ATOM      7  C   UNL     1      -0.940  13.384  22.797  0.00  0.00    +0.000 A 
ATOM      8  C   UNL     1      -1.740  14.524  22.938  0.00  0.00    +0.000 A 
ATOM      9  C   UNL     1      -3.061  14.335  23.279  0.00  0.00    +0.000 A 
ATOM     10  C   UNL     1      -3.573  13.083  23.537  0.00  0.00    +0.000 A 
ATOM     11  C   UNL     1      -2.806  11.946  23.430  0.00  0.00    +0.000 A 
ATOM     12  O   UNL     1      -4.902  13.117  23.825  0.00  0.00    +0.000 OA
ATOM     13  C   UNL     1      -5.199  14.482  23.469  0.00  0.00    +0.000 C 
ATOM     14  O   UNL     1      -4.015  15.301  23.354  0.00  0.00    +0.000 OA
ENDBRANCH   3   6
BRANCH   1  21
ATOM     15  O   UNL     1       0.601  10.822  18.852  0.00  0.00    +0.000 OA
ATOM     16  C   UNL     1       1.162   9.751  19.029  0.00  0.00    +0.000 A 
ATOM     17  C   UNL     1       1.933   9.134  17.943  0.00  0.00    +0.000 A 
ATOM     18  C   UNL     1       2.426   7.923  18.204  0.00  0.00    +0.000 A 
ATOM     19  N   UNL     1       2.270   7.243  19.394  0.00  0.00    +0.000 N 
ATOM     20  N   UNL     1       1.650   7.814  20.481  0.00  0.00    +0.000 NA
ATOM     21  C   UNL     1       1.108   8.993  20.343  0.00  0.00    +0.000 A 
BRANCH  19  22
ATOM     22  C   UNL     1       2.730   5.902  19.597  0.00  0.00    +0.000 A 
ATOM     23  C   UNL     1       3.910   5.443  18.981  0.00  0.00    +0.000 A 
ATOM     24  C   UNL     1       4.359   4.129  19.150  0.00  0.00    +0.000 A 
ATOM     25  C   UNL     1       3.646   3.247  19.956  0.00  0.00    +0.000 A 
ATOM     26  C   UNL     1       2.490   3.678  20.601  0.00  0.00    +0.000 A 
ATOM     27  C   UNL     1       2.041   4.994  20.424  0.00  0.00    +0.000 A 
ENDBRANCH  19  22
ENDBRANCH   1  21
TORSDOF 3
ENDMDL
