MODEL 1
REMARK VINA RESULT:      -7.6      0.000      0.000
REMARK  Name = 
REMARK  6 active torsions:
REMARK  status: ('A' for Active; 'I' for Inactive)
REMARK    1  A    between atoms: C_2  and  C_3
REMARK    2  A    between atoms: C_4  and  O_5
REMARK    3  A    between atoms: N_8  and  C_9
REMARK    4  A    between atoms: C_9  and  C_10
REMARK    5  A    between atoms: C_10  and  N_11
REMARK    6  A    between atoms: C_18  and  C_19
REMARK                            x       y       z     vdW  Elec       q    Type
REMARK                         _______ _______ _______ _____ _____    ______ ____
ROOT
ATOM      1  C   UNL     1       3.683   3.623  20.001  0.00  0.00    +0.000 A 
ATOM      2  C   UNL     1       2.730   3.871  20.963  0.00  0.00    +0.000 A 
ATOM      3  N   UNL     1       2.120   5.049  21.129  0.00  0.00    +0.000 NA
ATOM      4  C   UNL     1       2.465   6.038  20.310  0.00  0.00    +0.000 A 
ATOM      5  N   UNL     1       1.918   7.261  20.635  0.00  0.00    +0.000 N 
ATOM      6  N   UNL     1       3.332   5.894  19.299  0.00  0.00    +0.000 NA
ATOM      7  C   UNL     1       3.943   4.689  19.139  0.00  0.00    +0.000 A 
ATOM      8  H   UNL     1       1.154   7.092  21.277  0.00  0.00    +0.000 HD
ENDROOT
BRANCH   7   9
ATOM      9  C   UNL     1       4.927   4.642  18.020  0.00  0.00    +0.000 A 
ATOM     10  C   UNL     1       4.520   4.275  16.724  0.00  0.00    +0.000 A 
ATOM     11  C   UNL     1       5.413   4.282  15.646  0.00  0.00    +0.000 A 
ATOM     12  C   UNL     1       6.731   4.668  15.847  0.00  0.00    +0.000 A 
ATOM     13  F   UNL     1       7.578   4.700  14.811  0.00  0.00    +0.000 F 
ATOM     14  C   UNL     1       7.178   5.010  17.109  0.00  0.00    +0.000 A 
ATOM     15  C   UNL     1       6.293   4.972  18.188  0.00  0.00    +0.000 A 
ENDBRANCH   7   9
BRANCH   1  17
ATOM     16  N   UNL     1       4.853   1.323  19.959  0.00  0.00    +0.000 NA
ATOM     17  C   UNL     1       4.354   2.371  19.954  0.00  0.00    +0.000 C 
ENDBRANCH   1  17
BRANCH   2  18
ATOM     18  O   UNL     1       2.317   2.929  21.868  0.00  0.00    +0.000 OA
ATOM     19  H   UNL     1       1.359   2.777  21.818  0.00  0.00    +0.000 HD
ENDBRANCH   2  18
BRANCH   5  20
ATOM     20  C   UNL     1       1.669   8.230  19.590  0.00  0.00    +0.000 C 
BRANCH  20  21
ATOM     21  C   UNL     1       0.675   9.314  20.079  0.00  0.00    +0.000 C 
BRANCH  21  22
ATOM     22  N   UNL     1       0.995  10.163  21.232  0.00  0.00    +0.000 NA
ATOM     23  C   UNL     1       0.619   9.633  22.546  0.00  0.00    +0.000 C 
ATOM     24  C   UNL     1      -0.713  10.164  23.094  0.00  0.00    +0.000 C 
ATOM     25  O   UNL     1      -0.705  11.595  23.136  0.00  0.00    +0.000 OA
ATOM     26  C   UNL     1      -0.564  12.116  21.810  0.00  0.00    +0.000 C 
ATOM     27  C   UNL     1       0.710  11.598  21.113  0.00  0.00    +0.000 C 
ENDBRANCH  21  22
ENDBRANCH  20  21
ENDBRANCH   5  20
TORSDOF 6
ENDMDL
MODEL 2
REMARK VINA RESULT:      -7.5      1.675      1.968
REMARK  Name = 
REMARK  6 active torsions:
REMARK  status: ('A' for Active; 'I' for Inactive)
REMARK    1  A    between atoms: C_2  and  C_3
REMARK    2  A    between atoms: C_4  and  O_5
REMARK    3  A    between atoms: N_8  and  C_9
REMARK    4  A    between atoms: C_9  and  C_10
REMARK    5  A    between atoms: C_10  and  N_11
REMARK    6  A    between atoms: C_18  and  C_19
REMARK                            x       y       z     vdW  Elec       q    Type
REMARK                         _______ _______ _______ _____ _____    ______ ____
ROOT
ATOM      1  C   UNL     1       3.507   4.500  19.622  0.00  0.00    +0.000 A 
ATOM      2  C   UNL     1       2.510   4.915  20.476  0.00  0.00    +0.000 A 
ATOM      3  N   UNL     1       1.926   6.116  20.420  0.00  0.00    +0.000 NA
ATOM      4  C   UNL     1       2.343   6.957  19.478  0.00  0.00    +0.000 A 
ATOM      5  N   UNL     1       1.814   8.226  19.575  0.00  0.00    +0.000 N 
ATOM      6  N   UNL     1       3.260   6.639  18.554  0.00  0.00    +0.000 NA
ATOM      7  C   UNL     1       3.844   5.412  18.621  0.00  0.00    +0.000 A 
ATOM      8  H   UNL     1       1.010   8.175  20.191  0.00  0.00    +0.000 HD
ENDROOT
BRANCH   7   9
ATOM      9  C   UNL     1       4.886   5.171  17.582  0.00  0.00    +0.000 A 
ATOM     10  C   UNL     1       4.620   4.335  16.482  0.00  0.00    +0.000 A 
ATOM     11  C   UNL     1       5.562   4.141  15.464  0.00  0.00    +0.000 A 
ATOM     12  C   UNL     1       6.786   4.793  15.526  0.00  0.00    +0.000 A 
ATOM     13  F   UNL     1       7.675   4.628  14.540  0.00  0.00    +0.000 F 
ATOM     14  C   UNL     1       7.097   5.601  16.603  0.00  0.00    +0.000 A 
ATOM     15  C   UNL     1       6.169   5.768  17.633  0.00  0.00    +0.000 A 
ENDBRANCH   7   9
BRANCH   1  17
ATOM     16  N   UNL     1       4.722   2.253  19.986  0.00  0.00    +0.000 NA
ATOM     17  C   UNL     1       4.145   3.244  19.810  0.00  0.00    +0.000 C 
ENDBRANCH   1  17
BRANCH   2  18
ATOM     18  O   UNL     1       2.022   4.136  21.491  0.00  0.00    +0.000 OA
ATOM     19  H   UNL     1       2.728   3.641  21.938  0.00  0.00    +0.000 HD
ENDBRANCH   2  18
BRANCH   5  20
ATOM     20  C   UNL     1       1.650   9.024  18.379  0.00  0.00    +0.000 C 
BRANCH  20  21
ATOM     21  C   UNL     1       0.816  10.294  18.683  0.00  0.00    +0.000 C 
BRANCH  21  22
ATOM     22  N   UNL     1      -0.492  10.197  19.339  0.00  0.00    +0.000 NA
ATOM     23  C   UNL     1      -1.662  10.276  18.459  0.00  0.00    +0.000 C 
ATOM     24  C   UNL     1      -2.309  11.665  18.377  0.00  0.00    +0.000 C 
ATOM     25  O   UNL     1      -2.656  12.137  19.684  0.00  0.00    +0.000 OA
ATOM     26  C   UNL     1      -1.473  12.275  20.477  0.00  0.00    +0.000 C 
ATOM     27  C   UNL     1      -0.683  10.956  20.581  0.00  0.00    +0.000 C 
ENDBRANCH  21  22
ENDBRANCH  20  21
ENDBRANCH   5  20
TORSDOF 6
ENDMDL
MODEL 3
REMARK VINA RESULT:      -7.5      0.587      1.123
REMARK  Name = 
REMARK  6 active torsions:
REMARK  status: ('A' for Active; 'I' for Inactive)
REMARK    1  A    between atoms: C_2  and  C_3
REMARK    2  A    between atoms: C_4  and  O_5
REMARK    3  A    between atoms: N_8  and  C_9
REMARK    4  A    between atoms: C_9  and  C_10
REMARK    5  A    between atoms: C_10  and  N_11
REMARK    6  A    between atoms: C_18  and  C_19
REMARK                            x       y       z     vdW  Elec       q    Type
REMARK                         _______ _______ _______ _____ _____    ______ ____
ROOT
ATOM      1  C   UNL     1       3.101   3.508  19.454  0.00  0.00    +0.000 A 
ATOM      2  C   UNL     1       2.104   3.673  20.389  0.00  0.00    +0.000 A 
ATOM      3  N   UNL     1       1.639   4.861  20.789  0.00  0.00    +0.000 NA
ATOM      4  C   UNL     1       2.183   5.946  20.244  0.00  0.00    +0.000 A 
ATOM      5  N   UNL     1       1.772   7.133  20.813  0.00  0.00    +0.000 N 
ATOM      6  N   UNL     1       3.112   5.905  19.281  0.00  0.00    +0.000 NA
ATOM      7  C   UNL     1       3.573   4.689  18.881  0.00  0.00    +0.000 A 
ATOM      8  H   UNL     1       0.936   6.938  21.352  0.00  0.00    +0.000 HD
ENDROOT
BRANCH   7   9
ATOM      9  C   UNL     1       4.641   4.749  17.841  0.00  0.00    +0.000 A 
ATOM     10  C   UNL     1       5.940   5.177  18.174  0.00  0.00    +0.000 A 
ATOM     11  C   UNL     1       6.973   5.184  17.229  0.00  0.00    +0.000 A 
ATOM     12  C   UNL     1       6.724   4.751  15.934  0.00  0.00    +0.000 A 
ATOM     13  F   UNL     1       7.719   4.734  15.039  0.00  0.00    +0.000 F 
ATOM     14  C   UNL     1       5.457   4.349  15.560  0.00  0.00    +0.000 A 
ATOM     15  C   UNL     1       4.420   4.372  16.495  0.00  0.00    +0.000 A 
ENDBRANCH   7   9
BRANCH   1  17
ATOM     16  N   UNL     1       4.077   1.174  18.946  0.00  0.00    +0.000 NA
ATOM     17  C   UNL     1       3.605   2.214  19.155  0.00  0.00    +0.000 C 
ENDBRANCH   1  17
BRANCH   2  18
ATOM     18  O   UNL     1       1.492   2.625  21.023  0.00  0.00    +0.000 OA
ATOM     19  H   UNL     1       1.985   2.342  21.812  0.00  0.00    +0.000 HD
ENDBRANCH   2  18
BRANCH   5  20
ATOM     20  C   UNL     1       1.746   8.336  20.010  0.00  0.00    +0.000 C 
BRANCH  20  21
ATOM     21  C   UNL     1       0.631   9.294  20.501  0.00  0.00    +0.000 C 
BRANCH  21  22
ATOM     22  N   UNL     1       0.854  10.186  21.644  0.00  0.00    +0.000 NA
ATOM     23  C   UNL     1       0.207   9.798  22.901  0.00  0.00    +0.000 C 
ATOM     24  C   UNL     1      -1.124  10.508  23.182  0.00  0.00    +0.000 C 
ATOM     25  O   UNL     1      -0.955  11.929  23.146  0.00  0.00    +0.000 OA
ATOM     26  C   UNL     1      -0.536  12.332  21.838  0.00  0.00    +0.000 C 
ATOM     27  C   UNL     1       0.764  11.631  21.400  0.00  0.00    +0.000 C 
ENDBRANCH  21  22
ENDBRANCH  20  21
ENDBRANCH   5  20
TORSDOF 6
ENDMDL
MODEL 4
REMARK VINA RESULT:      -7.5      1.377      1.689
REMARK  Name = 
REMARK  6 active torsions:
REMARK  status: ('A' for Active; 'I' for Inactive)
REMARK    1  A    between atoms: C_2  and  C_3
REMARK    2  A    between atoms: C_4  and  O_5
REMARK    3  A    between atoms: N_8  and  C_9
REMARK    4  A    between atoms: C_9  and  C_10
REMARK    5  A    between atoms: C_10  and  N_11
REMARK    6  A    between atoms: C_18  and  C_19
REMARK                            x       y       z     vdW  Elec       q    Type
REMARK                         _______ _______ _______ _____ _____    ______ ____
ROOT
ATOM      1  C   UNL     1       3.012   3.316  19.383  0.00  0.00    +0.000 A 
ATOM      2  C   UNL     1       1.993   3.511  20.288  0.00  0.00    +0.000 A 
ATOM      3  N   UNL     1       1.578   4.713  20.703  0.00  0.00    +0.000 NA
ATOM      4  C   UNL     1       2.195   5.780  20.203  0.00  0.00    +0.000 A 
ATOM      5  N   UNL     1       1.827   6.974  20.787  0.00  0.00    +0.000 N 
ATOM      6  N   UNL     1       3.154   5.712  19.271  0.00  0.00    +0.000 NA
ATOM      7  C   UNL     1       3.565   4.483  18.856  0.00  0.00    +0.000 A 
ATOM      8  H   UNL     1       0.965   6.811  21.294  0.00  0.00    +0.000 HD
ENDROOT
BRANCH   7   9
ATOM      9  C   UNL     1       4.669   4.510  17.854  0.00  0.00    +0.000 A 
ATOM     10  C   UNL     1       4.390   4.421  16.478  0.00  0.00    +0.000 A 
ATOM     11  C   UNL     1       5.405   4.505  15.517  0.00  0.00    +0.000 A 
ATOM     12  C   UNL     1       6.720   4.690  15.920  0.00  0.00    +0.000 A 
ATOM     13  F   UNL     1       7.686   4.796  15.000  0.00  0.00    +0.000 F 
ATOM     14  C   UNL     1       7.041   4.755  17.263  0.00  0.00    +0.000 A 
ATOM     15  C   UNL     1       6.031   4.640  18.220  0.00  0.00    +0.000 A 
ENDBRANCH   7   9
BRANCH   1  17
ATOM     16  N   UNL     1       3.822   0.950  18.745  0.00  0.00    +0.000 NA
ATOM     17  C   UNL     1       3.459   2.004  19.070  0.00  0.00    +0.000 C 
ENDBRANCH   1  17
BRANCH   2  18
ATOM     18  O   UNL     1       1.306   2.483  20.876  0.00  0.00    +0.000 OA
ATOM     19  H   UNL     1       0.715   2.799  21.579  0.00  0.00    +0.000 HD
ENDBRANCH   2  18
BRANCH   5  20
ATOM     20  C   UNL     1       1.892   8.195  20.014  0.00  0.00    +0.000 C 
BRANCH  20  21
ATOM     21  C   UNL     1       0.823   9.204  20.502  0.00  0.00    +0.000 C 
BRANCH  21  22
ATOM     22  N   UNL     1       0.554  10.436  19.752  0.00  0.00    +0.000 NA
ATOM     23  C   UNL     1       0.109  11.588  20.542  0.00  0.00    +0.000 C 
ATOM     24  C   UNL     1      -1.411  11.802  20.562  0.00  0.00    +0.000 C 
ATOM     25  O   UNL     1      -1.923  11.906  19.229  0.00  0.00    +0.000 OA
ATOM     26  C   UNL     1      -1.684  10.683  18.524  0.00  0.00    +0.000 C 
ATOM     27  C   UNL     1      -0.189  10.311  18.492  0.00  0.00    +0.000 C 
ENDBRANCH  21  22
ENDBRANCH  20  21
ENDBRANCH   5  20
TORSDOF 6
ENDMDL
MODEL 5
REMARK VINA RESULT:      -7.4      2.039      2.580
REMARK  Name = 
REMARK  6 active torsions:
REMARK  status: ('A' for Active; 'I' for Inactive)
REMARK    1  A    between atoms: C_2  and  C_3
REMARK    2  A    between atoms: C_4  and  O_5
REMARK    3  A    between atoms: N_8  and  C_9
REMARK    4  A    between atoms: C_9  and  C_10
REMARK    5  A    between atoms: C_10  and  N_11
REMARK    6  A    between atoms: C_18  and  C_19
REMARK                            x       y       z     vdW  Elec       q    Type
REMARK                         _______ _______ _______ _____ _____    ______ ____
ROOT
ATOM      1  C   UNL     1       3.349   4.360  19.723  0.00  0.00    +0.000 A 
ATOM      2  C   UNL     1       2.394   4.673  20.663  0.00  0.00    +0.000 A 
ATOM      3  N   UNL     1       1.807   5.871  20.767  0.00  0.00    +0.000 NA
ATOM      4  C   UNL     1       2.180   6.812  19.905  0.00  0.00    +0.000 A 
ATOM      5  N   UNL     1       1.656   8.060  20.166  0.00  0.00    +0.000 N 
ATOM      6  N   UNL     1       3.052   6.602  18.910  0.00  0.00    +0.000 NA
ATOM      7  C   UNL     1       3.638   5.378  18.814  0.00  0.00    +0.000 A 
ATOM      8  H   UNL     1       0.882   7.937  20.809  0.00  0.00    +0.000 HD
ENDROOT
BRANCH   7   9
ATOM      9  C   UNL     1       4.631   5.258  17.707  0.00  0.00    +0.000 A 
ATOM     10  C   UNL     1       5.823   6.005  17.732  0.00  0.00    +0.000 A 
ATOM     11  C   UNL     1       6.797   5.864  16.735  0.00  0.00    +0.000 A 
ATOM     12  C   UNL     1       6.595   4.962  15.699  0.00  0.00    +0.000 A 
ATOM     13  F   UNL     1       7.538   4.809  14.761  0.00  0.00    +0.000 F 
ATOM     14  C   UNL     1       5.426   4.230  15.623  0.00  0.00    +0.000 A 
ATOM     15  C   UNL     1       4.443   4.395  16.602  0.00  0.00    +0.000 A 
ENDBRANCH   7   9
BRANCH   1  17
ATOM     16  N   UNL     1       4.458   2.030  19.764  0.00  0.00    +0.000 NA
ATOM     17  C   UNL     1       3.995   3.095  19.742  0.00  0.00    +0.000 C 
ENDBRANCH   1  17
BRANCH   2  18
ATOM     18  O   UNL     1       1.953   3.785  21.608  0.00  0.00    +0.000 OA
ATOM     19  H   UNL     1       1.164   4.112  22.070  0.00  0.00    +0.000 HD
ENDBRANCH   2  18
BRANCH   5  20
ATOM     20  C   UNL     1       1.436   8.983  19.074  0.00  0.00    +0.000 C 
BRANCH  20  21
ATOM     21  C   UNL     1       0.302   9.980  19.425  0.00  0.00    +0.000 C 
BRANCH  21  22
ATOM     22  N   UNL     1      -0.394  10.728  18.372  0.00  0.00    +0.000 NA
ATOM     23  C   UNL     1      -0.946  12.029  18.762  0.00  0.00    +0.000 C 
ATOM     24  C   UNL     1      -2.439  12.011  19.114  0.00  0.00    +0.000 C 
ATOM     25  O   UNL     1      -3.206  11.469  18.033  0.00  0.00    +0.000 OA
ATOM     26  C   UNL     1      -2.817  10.111  17.801  0.00  0.00    +0.000 C 
ATOM     27  C   UNL     1      -1.311   9.978  17.504  0.00  0.00    +0.000 C 
ENDBRANCH  21  22
ENDBRANCH  20  21
ENDBRANCH   5  20
TORSDOF 6
ENDMDL
MODEL 6
REMARK VINA RESULT:      -7.4      1.720      2.237
REMARK  Name = 
REMARK  6 active torsions:
REMARK  status: ('A' for Active; 'I' for Inactive)
REMARK    1  A    between atoms: C_2  and  C_3
REMARK    2  A    between atoms: C_4  and  O_5
REMARK    3  A    between atoms: N_8  and  C_9
REMARK    4  A    between atoms: C_9  and  C_10
REMARK    5  A    between atoms: C_10  and  N_11
REMARK    6  A    between atoms: C_18  and  C_19
REMARK                            x       y       z     vdW  Elec       q    Type
REMARK                         _______ _______ _______ _____ _____    ______ ____
ROOT
ATOM      1  C   UNL     1       2.659   3.615  19.368  0.00  0.00    +0.000 A 
ATOM      2  C   UNL     1       1.594   3.817  20.217  0.00  0.00    +0.000 A 
ATOM      3  N   UNL     1       1.228   5.013  20.690  0.00  0.00    +0.000 NA
ATOM      4  C   UNL     1       1.945   6.067  20.311  0.00  0.00    +0.000 A 
ATOM      5  N   UNL     1       1.614   7.240  20.956  0.00  0.00    +0.000 N 
ATOM      6  N   UNL     1       2.961   5.998  19.441  0.00  0.00    +0.000 NA
ATOM      7  C   UNL     1       3.320   4.776  18.964  0.00  0.00    +0.000 A 
ATOM      8  H   UNL     1       0.710   7.103  21.392  0.00  0.00    +0.000 HD
ENDROOT
BRANCH   7   9
ATOM      9  C   UNL     1       4.491   4.796  18.041  0.00  0.00    +0.000 A 
ATOM     10  C   UNL     1       5.803   4.773  18.550  0.00  0.00    +0.000 A 
ATOM     11  C   UNL     1       6.917   4.731  17.702  0.00  0.00    +0.000 A 
ATOM     12  C   UNL     1       6.734   4.701  16.327  0.00  0.00    +0.000 A 
ATOM     13  F   UNL     1       7.798   4.635  15.517  0.00  0.00    +0.000 F 
ATOM     14  C   UNL     1       5.463   4.750  15.786  0.00  0.00    +0.000 A 
ATOM     15  C   UNL     1       4.355   4.824  16.633  0.00  0.00    +0.000 A 
ENDBRANCH   7   9
BRANCH   1  17
ATOM     16  N   UNL     1       3.390   1.255  18.624  0.00  0.00    +0.000 NA
ATOM     17  C   UNL     1       3.042   2.301  18.988  0.00  0.00    +0.000 C 
ENDBRANCH   1  17
BRANCH   2  18
ATOM     18  O   UNL     1       0.804   2.800  20.682  0.00  0.00    +0.000 OA
ATOM     19  H   UNL     1      -0.030   3.132  21.054  0.00  0.00    +0.000 HD
ENDBRANCH   2  18
BRANCH   5  20
ATOM     20  C   UNL     1       1.810   8.504  20.281  0.00  0.00    +0.000 C 
BRANCH  20  21
ATOM     21  C   UNL     1       0.481   9.299  20.219  0.00  0.00    +0.000 C 
BRANCH  21  22
ATOM     22  N   UNL     1       0.132  10.089  19.033  0.00  0.00    +0.000 NA
ATOM     23  C   UNL     1       1.048  11.183  18.694  0.00  0.00    +0.000 C 
ATOM     24  C   UNL     1       0.605  12.566  19.191  0.00  0.00    +0.000 C 
ATOM     25  O   UNL     1      -0.710  12.875  18.717  0.00  0.00    +0.000 OA
ATOM     26  C   UNL     1      -1.646  11.926  19.240  0.00  0.00    +0.000 C 
ATOM     27  C   UNL     1      -1.275  10.476  18.870  0.00  0.00    +0.000 C 
ENDBRANCH  21  22
ENDBRANCH  20  21
ENDBRANCH   5  20
TORSDOF 6
ENDMDL
MODEL 7
REMARK VINA RESULT:      -7.4      1.499      1.815
REMARK  Name = 
REMARK  6 active torsions:
REMARK  status: ('A' for Active; 'I' for Inactive)
REMARK    1  A    between atoms: C_2  and  C_3
REMARK    2  A    between atoms: C_4  and  O_5
REMARK    3  A    between atoms: N_8  and  C_9
REMARK    4  A    between atoms: C_9  and  C_10
REMARK    5  A    between atoms: C_10  and  N_11
REMARK    6  A    between atoms: C_18  and  C_19
REMARK                            x       y       z     vdW  Elec       q    Type
REMARK                         _______ _______ _______ _____ _____    ______ ____
ROOT
ATOM      1  C   UNL     1       3.588   3.743  20.014  0.00  0.00    +0.000 A 
ATOM      2  C   UNL     1       2.619   4.058  20.940  0.00  0.00    +0.000 A 
ATOM      3  N   UNL     1       2.031   5.256  21.032  0.00  0.00    +0.000 NA
ATOM      4  C   UNL     1       2.414   6.194  20.171  0.00  0.00    +0.000 A 
ATOM      5  N   UNL     1       1.886   7.443  20.420  0.00  0.00    +0.000 N 
ATOM      6  N   UNL     1       3.299   5.981  19.189  0.00  0.00    +0.000 NA
ATOM      7  C   UNL     1       3.888   4.758  19.105  0.00  0.00    +0.000 A 
ATOM      8  H   UNL     1       1.104   7.322  21.054  0.00  0.00    +0.000 HD
ENDROOT
BRANCH   7   9
ATOM      9  C   UNL     1       4.895   4.634  18.012  0.00  0.00    +0.000 A 
ATOM     10  C   UNL     1       4.494   4.305  16.703  0.00  0.00    +0.000 A 
ATOM     11  C   UNL     1       5.414   4.242  15.649  0.00  0.00    +0.000 A 
ATOM     12  C   UNL     1       6.752   4.519  15.887  0.00  0.00    +0.000 A 
ATOM     13  F   UNL     1       7.627   4.484  14.874  0.00  0.00    +0.000 F 
ATOM     14  C   UNL     1       7.192   4.819  17.163  0.00  0.00    +0.000 A 
ATOM     15  C   UNL     1       6.278   4.850  18.218  0.00  0.00    +0.000 A 
ENDBRANCH   7   9
BRANCH   1  17
ATOM     16  N   UNL     1       4.823   1.477  20.066  0.00  0.00    +0.000 NA
ATOM     17  C   UNL     1       4.233   2.478  20.046  0.00  0.00    +0.000 C 
ENDBRANCH   1  17
BRANCH   2  18
ATOM     18  O   UNL     1       2.167   3.173  21.882  0.00  0.00    +0.000 OA
ATOM     19  H   UNL     1       2.430   2.261  21.676  0.00  0.00    +0.000 HD
ENDBRANCH   2  18
BRANCH   5  20
ATOM     20  C   UNL     1       1.679   8.362  19.322  0.00  0.00    +0.000 C 
BRANCH  20  21
ATOM     21  C   UNL     1       0.773   9.540  19.761  0.00  0.00    +0.000 C 
BRANCH  21  22
ATOM     22  N   UNL     1       0.382  10.584  18.808  0.00  0.00    +0.000 NA
ATOM     23  C   UNL     1       1.010  11.896  18.995  0.00  0.00    +0.000 C 
ATOM     24  C   UNL     1       0.155  12.910  19.768  0.00  0.00    +0.000 C 
ATOM     25  O   UNL     1      -1.122  13.073  19.143  0.00  0.00    +0.000 OA
ATOM     26  C   UNL     1      -1.832  11.829  19.165  0.00  0.00    +0.000 C 
ATOM     27  C   UNL     1      -1.044  10.697  18.478  0.00  0.00    +0.000 C 
ENDBRANCH  21  22
ENDBRANCH  20  21
ENDBRANCH   5  20
TORSDOF 6
ENDMDL
MODEL 8
REMARK VINA RESULT:      -7.4      1.262      1.776
REMARK  Name = 
REMARK  6 active torsions:
REMARK  status: ('A' for Active; 'I' for Inactive)
REMARK    1  A    between atoms: C_2  and  C_3
REMARK    2  A    between atoms: C_4  and  O_5
REMARK    3  A    between atoms: N_8  and  C_9
REMARK    4  A    between atoms: C_9  and  C_10
REMARK    5  A    between atoms: C_10  and  N_11
REMARK    6  A    between atoms: C_18  and  C_19
REMARK                            x       y       z     vdW  Elec       q    Type
REMARK                         _______ _______ _______ _____ _____    ______ ____
ROOT
ATOM      1  C   UNL     1       3.043   3.340  19.325  0.00  0.00    +0.000 A 
ATOM      2  C   UNL     1       2.037   3.482  20.253  0.00  0.00    +0.000 A 
ATOM      3  N   UNL     1       1.596   4.660  20.708  0.00  0.00    +0.000 NA
ATOM      4  C   UNL     1       2.175   5.757  20.228  0.00  0.00    +0.000 A 
ATOM      5  N   UNL     1       1.785   6.923  20.852  0.00  0.00    +0.000 N 
ATOM      6  N   UNL     1       3.118   5.742  19.278  0.00  0.00    +0.000 NA
ATOM      7  C   UNL     1       3.554   4.537  18.821  0.00  0.00    +0.000 A 
ATOM      8  H   UNL     1       0.936   6.723  21.368  0.00  0.00    +0.000 HD
ENDROOT
BRANCH   7   9
ATOM      9  C   UNL     1       4.640   4.622  17.802  0.00  0.00    +0.000 A 
ATOM     10  C   UNL     1       5.987   4.722  18.198  0.00  0.00    +0.000 A 
ATOM     11  C   UNL     1       7.026   4.742  17.260  0.00  0.00    +0.000 A 
ATOM     12  C   UNL     1       6.733   4.654  15.906  0.00  0.00    +0.000 A 
ATOM     13  F   UNL     1       7.729   4.648  15.012  0.00  0.00    +0.000 F 
ATOM     14  C   UNL     1       5.423   4.583  15.474  0.00  0.00    +0.000 A 
ATOM     15  C   UNL     1       4.386   4.594  16.410  0.00  0.00    +0.000 A 
ENDBRANCH   7   9
BRANCH   1  17
ATOM     16  N   UNL     1       3.844   0.979  18.660  0.00  0.00    +0.000 NA
ATOM     17  C   UNL     1       3.520   2.051  18.967  0.00  0.00    +0.000 C 
ENDBRANCH   1  17
BRANCH   2  18
ATOM     18  O   UNL     1       1.388   2.419  20.824  0.00  0.00    +0.000 OA
ATOM     19  H   UNL     1       0.946   2.668  21.652  0.00  0.00    +0.000 HD
ENDBRANCH   2  18
BRANCH   5  20
ATOM     20  C   UNL     1       1.802   8.167  20.112  0.00  0.00    +0.000 C 
BRANCH  20  21
ATOM     21  C   UNL     1       0.920   9.230  20.816  0.00  0.00    +0.000 C 
BRANCH  21  22
ATOM     22  N   UNL     1       0.718  10.554  20.217  0.00  0.00    +0.000 NA
ATOM     23  C   UNL     1       0.214  11.597  21.116  0.00  0.00    +0.000 C 
ATOM     24  C   UNL     1      -1.302  11.828  21.042  0.00  0.00    +0.000 C 
ATOM     25  O   UNL     1      -1.703  12.115  19.698  0.00  0.00    +0.000 OA
ATOM     26  C   UNL     1      -1.412  10.993  18.857  0.00  0.00    +0.000 C 
ATOM     27  C   UNL     1       0.080  10.608  18.896  0.00  0.00    +0.000 C 
ENDBRANCH  21  22
ENDBRANCH  20  21
ENDBRANCH   5  20
TORSDOF 6
ENDMDL
MODEL 9
REMARK VINA RESULT:      -7.4      1.646      2.156
REMARK  Name = 
REMARK  6 active torsions:
REMARK  status: ('A' for Active; 'I' for Inactive)
REMARK    1  A    between atoms: C_2  and  C_3
REMARK    2  A    between atoms: C_4  and  O_5
REMARK    3  A    between atoms: N_8  and  C_9
REMARK    4  A    between atoms: C_9  and  C_10
REMARK    5  A    between atoms: C_10  and  N_11
REMARK    6  A    between atoms: C_18  and  C_19
REMARK                            x       y       z     vdW  Elec       q    Type
REMARK                         _______ _______ _______ _____ _____    ______ ____
ROOT
ATOM      1  C   UNL     1       3.482   4.369  19.719  0.00  0.00    +0.000 A 
ATOM      2  C   UNL     1       2.518   4.727  20.634  0.00  0.00    +0.000 A 
ATOM      3  N   UNL     1       1.922   5.924  20.666  0.00  0.00    +0.000 NA
ATOM      4  C   UNL     1       2.294   6.818  19.754  0.00  0.00    +0.000 A 
ATOM      5  N   UNL     1       1.759   8.075  19.941  0.00  0.00    +0.000 N 
ATOM      6  N   UNL     1       3.174   6.559  18.778  0.00  0.00    +0.000 NA
ATOM      7  C   UNL     1       3.770   5.336  18.755  0.00  0.00    +0.000 A 
ATOM      8  H   UNL     1       0.982   7.983  20.585  0.00  0.00    +0.000 HD
ENDROOT
BRANCH   7   9
ATOM      9  C   UNL     1       4.770   5.161  17.663  0.00  0.00    +0.000 A 
ATOM     10  C   UNL     1       6.012   5.821  17.719  0.00  0.00    +0.000 A 
ATOM     11  C   UNL     1       6.991   5.624  16.736  0.00  0.00    +0.000 A 
ATOM     12  C   UNL     1       6.744   4.754  15.684  0.00  0.00    +0.000 A 
ATOM     13  F   UNL     1       7.689   4.546  14.760  0.00  0.00    +0.000 F 
ATOM     14  C   UNL     1       5.527   4.107  15.578  0.00  0.00    +0.000 A 
ATOM     15  C   UNL     1       4.542   4.328  16.542  0.00  0.00    +0.000 A 
ENDBRANCH   7   9
BRANCH   1  17
ATOM     16  N   UNL     1       4.707   2.100  19.832  0.00  0.00    +0.000 NA
ATOM     17  C   UNL     1       4.136   3.111  19.813  0.00  0.00    +0.000 C 
ENDBRANCH   1  17
BRANCH   2  18
ATOM     18  O   UNL     1       2.078   3.891  21.625  0.00  0.00    +0.000 OA
ATOM     19  H   UNL     1       1.411   3.264  21.298  0.00  0.00    +0.000 HD
ENDBRANCH   2  18
BRANCH   5  20
ATOM     20  C   UNL     1       1.540   8.933  18.797  0.00  0.00    +0.000 C 
BRANCH  20  21
ATOM     21  C   UNL     1       0.868  10.260  19.233  0.00  0.00    +0.000 C 
BRANCH  21  22
ATOM     22  N   UNL     1      -0.551  10.298  19.604  0.00  0.00    +0.000 NA
ATOM     23  C   UNL     1      -1.508  10.304  18.494  0.00  0.00    +0.000 C 
ATOM     24  C   UNL     1      -2.034  11.694  18.110  0.00  0.00    +0.000 C 
ATOM     25  O   UNL     1      -2.611  12.346  19.246  0.00  0.00    +0.000 OA
ATOM     26  C   UNL     1      -1.609  12.543  20.249  0.00  0.00    +0.000 C 
ATOM     27  C   UNL     1      -0.944  11.221  20.677  0.00  0.00    +0.000 C 
ENDBRANCH  21  22
ENDBRANCH  20  21
ENDBRANCH   5  20
TORSDOF 6
ENDMDL
