MODEL 1
REMARK VINA RESULT:      -6.6      0.000      0.000
REMARK  Name = 
REMARK  7 active torsions:
REMARK  status: ('A' for Active; 'I' for Inactive)
REMARK    1  A    between atoms: C_1  and  O_2
REMARK    2  A    between atoms: O_2  and  C_3
REMARK    3  A    between atoms: C_7  and  O_8
REMARK    4  A    between atoms: O_8  and  C_9
REMARK    5  A    between atoms: C_10  and  C_11
REMARK    6  A    between atoms: N_13  and  C_14
REMARK    7  A    between atoms: C_18  and  O_19
REMARK                            x       y       z     vdW  Elec       q    Type
REMARK                         _______ _______ _______ _____ _____    ______ ____
ROOT
ATOM      1  C   UNL     1       2.526   6.699  18.856  0.00  0.00    +0.000 C 
ATOM      2  O   UNL     1       2.638   6.436  20.049  0.00  0.00    +0.000 OA
ATOM      3  N   UNL     1       1.998   7.878  18.347  0.00  0.00    +0.000 N 
ATOM      4  H   UNL     1       2.096   8.023  17.347  0.00  0.00    +0.000 HD
ENDROOT
BRANCH   3   5
ATOM      5  C   UNL     1       1.544   8.980  19.128  0.00  0.00    +0.000 A 
ATOM      6  C   UNL     1       1.016   8.835  20.415  0.00  0.00    +0.000 A 
ATOM      7  C   UNL     1       0.657   9.947  21.179  0.00  0.00    +0.000 A 
ATOM      8 BR   UNL     1      -0.015   9.667  22.931  0.00  0.00    +0.000 Br
ATOM      9  C   UNL     1       0.800  11.231  20.658  0.00  0.00    +0.000 A 
ATOM     10  C   UNL     1       1.280  11.389  19.359  0.00  0.00    +0.000 A 
ATOM     11 BR   UNL     1       1.454  13.116  18.587  0.00  0.00    +0.000 Br
ATOM     12  C   UNL     1       1.653  10.272  18.594  0.00  0.00    +0.000 A 
BRANCH   9  13
ATOM     13  O   UNL     1       0.481  12.328  21.417  0.00  0.00    +0.000 OA
ATOM     14  H   UNL     1      -0.431  12.590  21.190  0.00  0.00    +0.000 HD
ENDBRANCH   9  13
ENDBRANCH   3   5
BRANCH   1  20
ATOM     15  C   UNL     1       4.367   5.855  17.366  0.00  0.00    +0.000 A 
ATOM     16  C   UNL     1       5.016   4.762  16.767  0.00  0.00    +0.000 A 
ATOM     17  C   UNL     1       4.394   3.518  16.699  0.00  0.00    +0.000 A 
ATOM     18  C   UNL     1       3.100   3.365  17.179  0.00  0.00    +0.000 A 
ATOM     19  C   UNL     1       2.420   4.439  17.765  0.00  0.00    +0.000 A 
ATOM     20  C   UNL     1       3.066   5.689  17.900  0.00  0.00    +0.000 A 
BRANCH  15  22
ATOM     21  C   UNL     1       6.364   7.151  17.259  0.00  0.00    +0.000 C 
ATOM     22  O   UNL     1       4.951   7.096  17.455  0.00  0.00    +0.000 OA
ENDBRANCH  15  22
BRANCH  19  23
ATOM     23  O   UNL     1       1.196   4.066  18.262  0.00  0.00    +0.000 OA
ATOM     24  C   UNL     1       1.189   3.125  19.332  0.00  0.00    +0.000 C 
ENDBRANCH  19  23
ENDBRANCH   1  20
TORSDOF 5
ENDMDL
MODEL 2
REMARK VINA RESULT:      -6.5      0.166      2.018
REMARK  Name = 
REMARK  7 active torsions:
REMARK  status: ('A' for Active; 'I' for Inactive)
REMARK    1  A    between atoms: C_1  and  O_2
REMARK    2  A    between atoms: O_2  and  C_3
REMARK    3  A    between atoms: C_7  and  O_8
REMARK    4  A    between atoms: O_8  and  C_9
REMARK    5  A    between atoms: C_10  and  C_11
REMARK    6  A    between atoms: N_13  and  C_14
REMARK    7  A    between atoms: C_18  and  O_19
REMARK                            x       y       z     vdW  Elec       q    Type
REMARK                         _______ _______ _______ _____ _____    ______ ____
ROOT
ATOM      1  C   UNL     1       2.526   6.730  18.882  0.00  0.00    +0.000 C 
ATOM      2  O   UNL     1       2.697   6.528  20.080  0.00  0.00    +0.000 OA
ATOM      3  N   UNL     1       1.980   7.887  18.341  0.00  0.00    +0.000 N 
ATOM      4  H   UNL     1       2.028   7.980  17.331  0.00  0.00    +0.000 HD
ENDROOT
BRANCH   3   5
ATOM      5  C   UNL     1       1.573   9.031  19.086  0.00  0.00    +0.000 A 
ATOM      6  C   UNL     1       1.645  10.333  18.581  0.00  0.00    +0.000 A 
ATOM      7  C   UNL     1       1.163  11.421  19.312  0.00  0.00    +0.000 A 
ATOM      8 BR   UNL     1       1.263  13.150  18.539  0.00  0.00    +0.000 Br
ATOM      9  C   UNL     1       0.614  11.226  20.577  0.00  0.00    +0.000 A 
ATOM     10  C   UNL     1       0.579   9.940  21.114  0.00  0.00    +0.000 A 
ATOM     11 BR   UNL     1      -0.120   9.628  22.852  0.00  0.00    +0.000 Br
ATOM     12  C   UNL     1       1.053   8.844  20.375  0.00  0.00    +0.000 A 
BRANCH   9  13
ATOM     13  O   UNL     1       0.107  12.287  21.284  0.00  0.00    +0.000 OA
ATOM     14  H   UNL     1       0.813  12.957  21.360  0.00  0.00    +0.000 HD
ENDBRANCH   9  13
ENDBRANCH   3   5
BRANCH   1  20
ATOM     15  C   UNL     1       4.275   5.807  17.330  0.00  0.00    +0.000 A 
ATOM     16  C   UNL     1       4.891   4.683  16.754  0.00  0.00    +0.000 A 
ATOM     17  C   UNL     1       4.273   3.436  16.796  0.00  0.00    +0.000 A 
ATOM     18  C   UNL     1       3.012   3.308  17.363  0.00  0.00    +0.000 A 
ATOM     19  C   UNL     1       2.364   4.412  17.929  0.00  0.00    +0.000 A 
ATOM     20  C   UNL     1       3.011   5.669  17.953  0.00  0.00    +0.000 A 
BRANCH  15  22
ATOM     21  C   UNL     1       6.281   7.088  17.222  0.00  0.00    +0.000 C 
ATOM     22  O   UNL     1       4.857   7.052  17.313  0.00  0.00    +0.000 OA
ENDBRANCH  15  22
BRANCH  19  23
ATOM     23  O   UNL     1       1.175   4.066  18.522  0.00  0.00    +0.000 OA
ATOM     24  C   UNL     1       1.212   3.021  19.488  0.00  0.00    +0.000 C 
ENDBRANCH  19  23
ENDBRANCH   1  20
TORSDOF 5
ENDMDL
MODEL 3
REMARK VINA RESULT:      -6.3      1.803      3.557
REMARK  Name = 
REMARK  7 active torsions:
REMARK  status: ('A' for Active; 'I' for Inactive)
REMARK    1  A    between atoms: C_1  and  O_2
REMARK    2  A    between atoms: O_2  and  C_3
REMARK    3  A    between atoms: C_7  and  O_8
REMARK    4  A    between atoms: O_8  and  C_9
REMARK    5  A    between atoms: C_10  and  C_11
REMARK    6  A    between atoms: N_13  and  C_14
REMARK    7  A    between atoms: C_18  and  O_19
REMARK                            x       y       z     vdW  Elec       q    Type
REMARK                         _______ _______ _______ _____ _____    ______ ____
ROOT
ATOM      1  C   UNL     1       2.344   7.357  18.823  0.00  0.00    +0.000 C 
ATOM      2  O   UNL     1       2.225   7.525  20.033  0.00  0.00    +0.000 OA
ATOM      3  N   UNL     1       1.973   8.277  17.852  0.00  0.00    +0.000 N 
ATOM      4  H   UNL     1       2.258   8.070  16.900  0.00  0.00    +0.000 HD
ENDROOT
BRANCH   3   5
ATOM      5  C   UNL     1       1.436   9.572  18.108  0.00  0.00    +0.000 A 
ATOM      6  C   UNL     1       2.234  10.711  18.258  0.00  0.00    +0.000 A 
ATOM      7  C   UNL     1       1.666  11.975  18.428  0.00  0.00    +0.000 A 
ATOM      8 BR   UNL     1       2.818  13.474  18.585  0.00  0.00    +0.000 Br
ATOM      9  C   UNL     1       0.282  12.120  18.472  0.00  0.00    +0.000 A 
ATOM     10  C   UNL     1      -0.526  10.989  18.372  0.00  0.00    +0.000 A 
ATOM     11 BR   UNL     1      -2.417  11.129  18.469  0.00  0.00    +0.000 Br
ATOM     12  C   UNL     1       0.044   9.718  18.189  0.00  0.00    +0.000 A 
BRANCH   9  13
ATOM     13  O   UNL     1      -0.281  13.364  18.604  0.00  0.00    +0.000 OA
ATOM     14  H   UNL     1      -1.160  13.250  19.014  0.00  0.00    +0.000 HD
ENDBRANCH   9  13
ENDBRANCH   3   5
BRANCH   1  20
ATOM     15  C   UNL     1       2.321   4.858  18.545  0.00  0.00    +0.000 A 
ATOM     16  C   UNL     1       2.758   3.730  17.832  0.00  0.00    +0.000 A 
ATOM     17  C   UNL     1       3.851   3.813  16.972  0.00  0.00    +0.000 A 
ATOM     18  C   UNL     1       4.551   5.007  16.857  0.00  0.00    +0.000 A 
ATOM     19  C   UNL     1       4.151   6.145  17.568  0.00  0.00    +0.000 A 
ATOM     20  C   UNL     1       3.002   6.091  18.391  0.00  0.00    +0.000 A 
BRANCH  15  22
ATOM     21  C   UNL     1       0.988   3.566  20.038  0.00  0.00    +0.000 C 
ATOM     22  O   UNL     1       1.243   4.816  19.397  0.00  0.00    +0.000 OA
ENDBRANCH  15  22
BRANCH  19  23
ATOM     23  O   UNL     1       4.906   7.245  17.248  0.00  0.00    +0.000 OA
ATOM     24  C   UNL     1       6.319   7.074  17.207  0.00  0.00    +0.000 C 
ENDBRANCH  19  23
ENDBRANCH   1  20
TORSDOF 5
ENDMDL
MODEL 4
REMARK VINA RESULT:      -6.3      1.777      3.258
REMARK  Name = 
REMARK  7 active torsions:
REMARK  status: ('A' for Active; 'I' for Inactive)
REMARK    1  A    between atoms: C_1  and  O_2
REMARK    2  A    between atoms: O_2  and  C_3
REMARK    3  A    between atoms: C_7  and  O_8
REMARK    4  A    between atoms: O_8  and  C_9
REMARK    5  A    between atoms: C_10  and  C_11
REMARK    6  A    between atoms: N_13  and  C_14
REMARK    7  A    between atoms: C_18  and  O_19
REMARK                            x       y       z     vdW  Elec       q    Type
REMARK                         _______ _______ _______ _____ _____    ______ ____
ROOT
ATOM      1  C   UNL     1       2.303   7.399  18.830  0.00  0.00    +0.000 C 
ATOM      2  O   UNL     1       2.206   7.611  20.035  0.00  0.00    +0.000 OA
ATOM      3  N   UNL     1       1.900   8.278  17.834  0.00  0.00    +0.000 N 
ATOM      4  H   UNL     1       2.168   8.039  16.884  0.00  0.00    +0.000 HD
ENDROOT
BRANCH   3   5
ATOM      5  C   UNL     1       1.353   9.575  18.053  0.00  0.00    +0.000 A 
ATOM      6  C   UNL     1      -0.020   9.809  18.192  0.00  0.00    +0.000 A 
ATOM      7  C   UNL     1      -0.511  11.083  18.485  0.00  0.00    +0.000 A 
ATOM      8 BR   UNL     1      -2.383  11.307  18.697  0.00  0.00    +0.000 Br
ATOM      9  C   UNL     1       0.365  12.156  18.624  0.00  0.00    +0.000 A 
ATOM     10  C   UNL     1       1.731  11.948  18.441  0.00  0.00    +0.000 A 
ATOM     11 BR   UNL     1       2.964  13.387  18.578  0.00  0.00    +0.000 Br
ATOM     12  C   UNL     1       2.228  10.665  18.158  0.00  0.00    +0.000 A 
BRANCH   9  13
ATOM     13  O   UNL     1      -0.109  13.402  18.946  0.00  0.00    +0.000 OA
ATOM     14  H   UNL     1       0.605  14.045  18.772  0.00  0.00    +0.000 HD
ENDBRANCH   9  13
ENDBRANCH   3   5
BRANCH   1  20
ATOM     15  C   UNL     1       2.300   4.893  18.636  0.00  0.00    +0.000 A 
ATOM     16  C   UNL     1       2.738   3.745  17.955  0.00  0.00    +0.000 A 
ATOM     17  C   UNL     1       3.818   3.809  17.078  0.00  0.00    +0.000 A 
ATOM     18  C   UNL     1       4.504   5.005  16.912  0.00  0.00    +0.000 A 
ATOM     19  C   UNL     1       4.103   6.163  17.590  0.00  0.00    +0.000 A 
ATOM     20  C   UNL     1       2.967   6.125  18.431  0.00  0.00    +0.000 A 
BRANCH  15  22
ATOM     21  C   UNL     1       1.031   3.655  20.228  0.00  0.00    +0.000 C 
ATOM     22  O   UNL     1       1.235   4.869  19.505  0.00  0.00    +0.000 OA
ENDBRANCH  15  22
BRANCH  19  23
ATOM     23  O   UNL     1       4.842   7.258  17.222  0.00  0.00    +0.000 OA
ATOM     24  C   UNL     1       6.257   7.104  17.183  0.00  0.00    +0.000 C 
ENDBRANCH  19  23
ENDBRANCH   1  20
TORSDOF 5
ENDMDL
MODEL 5
REMARK VINA RESULT:      -6.3      1.255      3.601
REMARK  Name = 
REMARK  7 active torsions:
REMARK  status: ('A' for Active; 'I' for Inactive)
REMARK    1  A    between atoms: C_1  and  O_2
REMARK    2  A    between atoms: O_2  and  C_3
REMARK    3  A    between atoms: C_7  and  O_8
REMARK    4  A    between atoms: O_8  and  C_9
REMARK    5  A    between atoms: C_10  and  C_11
REMARK    6  A    between atoms: N_13  and  C_14
REMARK    7  A    between atoms: C_18  and  O_19
REMARK                            x       y       z     vdW  Elec       q    Type
REMARK                         _______ _______ _______ _____ _____    ______ ____
ROOT
ATOM      1  C   UNL     1       2.986   7.343  18.102  0.00  0.00    +0.000 C 
ATOM      2  O   UNL     1       2.890   8.191  17.220  0.00  0.00    +0.000 OA
ATOM      3  N   UNL     1       2.382   7.423  19.350  0.00  0.00    +0.000 N 
ATOM      4  H   UNL     1       2.426   6.590  19.928  0.00  0.00    +0.000 HD
ENDROOT
BRANCH   3   5
ATOM      5  C   UNL     1       1.526   8.476  19.784  0.00  0.00    +0.000 A 
ATOM      6  C   UNL     1       0.993   9.433  18.913  0.00  0.00    +0.000 A 
ATOM      7  C   UNL     1       0.095  10.401  19.363  0.00  0.00    +0.000 A 
ATOM      8 BR   UNL     1      -0.612  11.637  18.110  0.00  0.00    +0.000 Br
ATOM      9  C   UNL     1      -0.274  10.444  20.705  0.00  0.00    +0.000 A 
ATOM     10  C   UNL     1       0.285   9.528  21.595  0.00  0.00    +0.000 A 
ATOM     11 BR   UNL     1      -0.154   9.571  23.443  0.00  0.00    +0.000 Br
ATOM     12  C   UNL     1       1.180   8.545  21.141  0.00  0.00    +0.000 A 
BRANCH   9  13
ATOM     13  O   UNL     1      -1.184  11.371  21.146  0.00  0.00    +0.000 OA
ATOM     14  H   UNL     1      -2.043  10.918  21.250  0.00  0.00    +0.000 HD
ENDBRANCH   9  13
ENDBRANCH   3   5
BRANCH   1  20
ATOM     15  C   UNL     1       3.086   4.873  17.649  0.00  0.00    +0.000 A 
ATOM     16  C   UNL     1       3.714   3.801  16.992  0.00  0.00    +0.000 A 
ATOM     17  C   UNL     1       4.988   3.951  16.447  0.00  0.00    +0.000 A 
ATOM     18  C   UNL     1       5.668   5.152  16.599  0.00  0.00    +0.000 A 
ATOM     19  C   UNL     1       5.077   6.233  17.265  0.00  0.00    +0.000 A 
ATOM     20  C   UNL     1       3.758   6.114  17.762  0.00  0.00    +0.000 A 
BRANCH  15  22
ATOM     21  C   UNL     1       1.349   3.440  18.427  0.00  0.00    +0.000 C 
ATOM     22  O   UNL     1       1.829   4.764  18.194  0.00  0.00    +0.000 OA
ENDBRANCH  15  22
BRANCH  19  23
ATOM     23  O   UNL     1       5.864   7.356  17.227  0.00  0.00    +0.000 OA
ATOM     24  C   UNL     1       7.253   7.184  17.493  0.00  0.00    +0.000 C 
ENDBRANCH  19  23
ENDBRANCH   1  20
TORSDOF 5
ENDMDL
MODEL 6
REMARK VINA RESULT:      -6.2      1.791      2.264
REMARK  Name = 
REMARK  7 active torsions:
REMARK  status: ('A' for Active; 'I' for Inactive)
REMARK    1  A    between atoms: C_1  and  O_2
REMARK    2  A    between atoms: O_2  and  C_3
REMARK    3  A    between atoms: C_7  and  O_8
REMARK    4  A    between atoms: O_8  and  C_9
REMARK    5  A    between atoms: C_10  and  C_11
REMARK    6  A    between atoms: N_13  and  C_14
REMARK    7  A    between atoms: C_18  and  O_19
REMARK                            x       y       z     vdW  Elec       q    Type
REMARK                         _______ _______ _______ _____ _____    ______ ____
ROOT
ATOM      1  C   UNL     1       2.358   7.253  18.621  0.00  0.00    +0.000 C 
ATOM      2  O   UNL     1       2.376   7.411  19.838  0.00  0.00    +0.000 OA
ATOM      3  N   UNL     1       1.901   8.190  17.704  0.00  0.00    +0.000 N 
ATOM      4  H   UNL     1       2.075   7.987  16.725  0.00  0.00    +0.000 HD
ENDROOT
BRANCH   3   5
ATOM      5  C   UNL     1       1.423   9.493  18.028  0.00  0.00    +0.000 A 
ATOM      6  C   UNL     1       2.268  10.596  18.186  0.00  0.00    +0.000 A 
ATOM      7  C   UNL     1       1.755  11.873  18.424  0.00  0.00    +0.000 A 
ATOM      8 BR   UNL     1       2.968  13.322  18.587  0.00  0.00    +0.000 Br
ATOM      9  C   UNL     1       0.380  12.066  18.530  0.00  0.00    +0.000 A 
ATOM     10  C   UNL     1      -0.472  10.968  18.423  0.00  0.00    +0.000 A 
ATOM     11 BR   UNL     1      -2.352  11.172  18.602  0.00  0.00    +0.000 Br
ATOM     12  C   UNL     1       0.042   9.686  18.171  0.00  0.00    +0.000 A 
BRANCH   9  13
ATOM     13  O   UNL     1      -0.130  13.323  18.730  0.00  0.00    +0.000 OA
ATOM     14  H   UNL     1       0.623  13.939  18.817  0.00  0.00    +0.000 HD
ENDBRANCH   9  13
ENDBRANCH   3   5
BRANCH   1  20
ATOM     15  C   UNL     1       4.234   5.975  17.541  0.00  0.00    +0.000 A 
ATOM     16  C   UNL     1       4.923   4.760  17.390  0.00  0.00    +0.000 A 
ATOM     17  C   UNL     1       4.344   3.560  17.797  0.00  0.00    +0.000 A 
ATOM     18  C   UNL     1       3.053   3.555  18.308  0.00  0.00    +0.000 A 
ATOM     19  C   UNL     1       2.334   4.747  18.455  0.00  0.00    +0.000 A 
ATOM     20  C   UNL     1       2.937   5.978  18.108  0.00  0.00    +0.000 A 
BRANCH  15  22
ATOM     21  C   UNL     1       6.199   7.277  17.194  0.00  0.00    +0.000 C 
ATOM     22  O   UNL     1       4.776   7.179  17.156  0.00  0.00    +0.000 OA
ENDBRANCH  15  22
BRANCH  19  23
ATOM     23  O   UNL     1       1.121   4.546  19.064  0.00  0.00    +0.000 OA
ATOM     24  C   UNL     1       1.134   3.959  20.361  0.00  0.00    +0.000 C 
ENDBRANCH  19  23
ENDBRANCH   1  20
TORSDOF 5
ENDMDL
MODEL 7
REMARK VINA RESULT:      -6.1      1.565      3.671
REMARK  Name = 
REMARK  7 active torsions:
REMARK  status: ('A' for Active; 'I' for Inactive)
REMARK    1  A    between atoms: C_1  and  O_2
REMARK    2  A    between atoms: O_2  and  C_3
REMARK    3  A    between atoms: C_7  and  O_8
REMARK    4  A    between atoms: O_8  and  C_9
REMARK    5  A    between atoms: C_10  and  C_11
REMARK    6  A    between atoms: N_13  and  C_14
REMARK    7  A    between atoms: C_18  and  O_19
REMARK                            x       y       z     vdW  Elec       q    Type
REMARK                         _______ _______ _______ _____ _____    ______ ____
ROOT
ATOM      1  C   UNL     1       2.354   5.802  18.763  0.00  0.00    +0.000 C 
ATOM      2  O   UNL     1       1.841   6.213  17.727  0.00  0.00    +0.000 OA
ATOM      3  N   UNL     1       2.411   6.509  19.957  0.00  0.00    +0.000 N 
ATOM      4  H   UNL     1       2.735   5.996  20.771  0.00  0.00    +0.000 HD
ENDROOT
BRANCH   3   5
ATOM      5  C   UNL     1       1.849   7.799  20.177  0.00  0.00    +0.000 A 
ATOM      6  C   UNL     1       1.943   8.839  19.246  0.00  0.00    +0.000 A 
ATOM      7  C   UNL     1       1.310  10.065  19.464  0.00  0.00    +0.000 A 
ATOM      8 BR   UNL     1       1.453  11.410  18.135  0.00  0.00    +0.000 Br
ATOM      9  C   UNL     1       0.584  10.280  20.633  0.00  0.00    +0.000 A 
ATOM     10  C   UNL     1       0.521   9.269  21.592  0.00  0.00    +0.000 A 
ATOM     11 BR   UNL     1      -0.420   9.528  23.221  0.00  0.00    +0.000 Br
ATOM     12  C   UNL     1       1.148   8.032  21.368  0.00  0.00    +0.000 A 
BRANCH   9  13
ATOM     13  O   UNL     1      -0.069  11.469  20.836  0.00  0.00    +0.000 OA
ATOM     14  H   UNL     1       0.565  12.189  20.652  0.00  0.00    +0.000 HD
ENDBRANCH   9  13
ENDBRANCH   3   5
BRANCH   1  20
ATOM     15  C   UNL     1       2.206   3.380  19.423  0.00  0.00    +0.000 A 
ATOM     16  C   UNL     1       2.482   2.038  19.116  0.00  0.00    +0.000 A 
ATOM     17  C   UNL     1       3.416   1.711  18.136  0.00  0.00    +0.000 A 
ATOM     18  C   UNL     1       4.123   2.718  17.492  0.00  0.00    +0.000 A 
ATOM     19  C   UNL     1       3.884   4.065  17.788  0.00  0.00    +0.000 A 
ATOM     20  C   UNL     1       2.890   4.411  18.732  0.00  0.00    +0.000 A 
BRANCH  15  22
ATOM     21  C   UNL     1       1.353   3.040  21.621  0.00  0.00    +0.000 C 
ATOM     22  O   UNL     1       1.287   3.741  20.379  0.00  0.00    +0.000 OA
ENDBRANCH  15  22
BRANCH  19  23
ATOM     23  O   UNL     1       4.608   4.907  16.982  0.00  0.00    +0.000 OA
ATOM     24  C   UNL     1       5.306   4.319  15.889  0.00  0.00    +0.000 C 
ENDBRANCH  19  23
ENDBRANCH   1  20
TORSDOF 5
ENDMDL
MODEL 8
REMARK VINA RESULT:      -6.1      3.115      7.210
REMARK  Name = 
REMARK  7 active torsions:
REMARK  status: ('A' for Active; 'I' for Inactive)
REMARK    1  A    between atoms: C_1  and  O_2
REMARK    2  A    between atoms: O_2  and  C_3
REMARK    3  A    between atoms: C_7  and  O_8
REMARK    4  A    between atoms: O_8  and  C_9
REMARK    5  A    between atoms: C_10  and  C_11
REMARK    6  A    between atoms: N_13  and  C_14
REMARK    7  A    between atoms: C_18  and  O_19
REMARK                            x       y       z     vdW  Elec       q    Type
REMARK                         _______ _______ _______ _____ _____    ______ ____
ROOT
ATOM      1  C   UNL     1       1.115   9.312  19.506  0.00  0.00    +0.000 C 
ATOM      2  O   UNL     1       0.893   9.212  18.303  0.00  0.00    +0.000 OA
ATOM      3  N   UNL     1       1.689   8.324  20.294  0.00  0.00    +0.000 N 
ATOM      4  H   UNL     1       1.947   8.591  21.239  0.00  0.00    +0.000 HD
ENDROOT
BRANCH   3   5
ATOM      5  C   UNL     1       2.147   7.059  19.823  0.00  0.00    +0.000 A 
ATOM      6  C   UNL     1       3.003   6.920  18.725  0.00  0.00    +0.000 A 
ATOM      7  C   UNL     1       3.493   5.669  18.344  0.00  0.00    +0.000 A 
ATOM      8 BR   UNL     1       4.680   5.571  16.868  0.00  0.00    +0.000 Br
ATOM      9  C   UNL     1       3.117   4.526  19.046  0.00  0.00    +0.000 A 
ATOM     10  C   UNL     1       2.228   4.644  20.112  0.00  0.00    +0.000 A 
ATOM     11 BR   UNL     1       1.652   3.111  21.075  0.00  0.00    +0.000 Br
ATOM     12  C   UNL     1       1.743   5.902  20.504  0.00  0.00    +0.000 A 
BRANCH   9  13
ATOM     13  O   UNL     1       3.624   3.300  18.697  0.00  0.00    +0.000 OA
ATOM     14  H   UNL     1       4.049   3.393  17.823  0.00  0.00    +0.000 HD
ENDBRANCH   9  13
ENDBRANCH   3   5
BRANCH   1  20
ATOM     15  C   UNL     1       1.123  11.826  19.449  0.00  0.00    +0.000 A 
ATOM     16  C   UNL     1       0.523  13.034  19.843  0.00  0.00    +0.000 A 
ATOM     17  C   UNL     1      -0.392  13.063  20.893  0.00  0.00    +0.000 A 
ATOM     18  C   UNL     1      -0.675  11.899  21.594  0.00  0.00    +0.000 A 
ATOM     19  C   UNL     1      -0.080  10.682  21.239  0.00  0.00    +0.000 A 
ATOM     20  C   UNL     1       0.798  10.628  20.132  0.00  0.00    +0.000 A 
BRANCH  15  22
ATOM     21  C   UNL     1       2.728  12.961  18.103  0.00  0.00    +0.000 C 
ATOM     22  O   UNL     1       2.026  11.758  18.415  0.00  0.00    +0.000 OA
ENDBRANCH  15  22
BRANCH  19  23
ATOM     23  O   UNL     1      -0.559   9.635  21.985  0.00  0.00    +0.000 OA
ATOM     24  C   UNL     1      -0.079   9.517  23.321  0.00  0.00    +0.000 C 
ENDBRANCH  19  23
ENDBRANCH   1  20
TORSDOF 5
ENDMDL
MODEL 9
REMARK VINA RESULT:      -6.1      3.155      7.542
REMARK  Name = 
REMARK  7 active torsions:
REMARK  status: ('A' for Active; 'I' for Inactive)
REMARK    1  A    between atoms: C_1  and  O_2
REMARK    2  A    between atoms: O_2  and  C_3
REMARK    3  A    between atoms: C_7  and  O_8
REMARK    4  A    between atoms: O_8  and  C_9
REMARK    5  A    between atoms: C_10  and  C_11
REMARK    6  A    between atoms: N_13  and  C_14
REMARK    7  A    between atoms: C_18  and  O_19
REMARK                            x       y       z     vdW  Elec       q    Type
REMARK                         _______ _______ _______ _____ _____    ______ ____
ROOT
ATOM      1  C   UNL     1       1.503   9.231  18.717  0.00  0.00    +0.000 C 
ATOM      2  O   UNL     1       1.530   9.235  17.490  0.00  0.00    +0.000 OA
ATOM      3  N   UNL     1       1.988   8.207  19.519  0.00  0.00    +0.000 N 
ATOM      4  H   UNL     1       2.034   8.396  20.516  0.00  0.00    +0.000 HD
ENDROOT
BRANCH   3   5
ATOM      5  C   UNL     1       2.628   7.024  19.047  0.00  0.00    +0.000 A 
ATOM      6  C   UNL     1       3.461   7.006  17.923  0.00  0.00    +0.000 A 
ATOM      7  C   UNL     1       4.132   5.844  17.539  0.00  0.00    +0.000 A 
ATOM      8 BR   UNL     1       5.274   5.914  16.026  0.00  0.00    +0.000 Br
ATOM      9  C   UNL     1       3.966   4.667  18.264  0.00  0.00    +0.000 A 
ATOM     10  C   UNL     1       3.101   4.657  19.358  0.00  0.00    +0.000 A 
ATOM     11 BR   UNL     1       2.807   3.067  20.354  0.00  0.00    +0.000 Br
ATOM     12  C   UNL     1       2.434   5.829  19.752  0.00  0.00    +0.000 A 
BRANCH   9  13
ATOM     13  O   UNL     1       4.650   3.532  17.912  0.00  0.00    +0.000 OA
ATOM     14  H   UNL     1       5.137   3.724  17.086  0.00  0.00    +0.000 HD
ENDBRANCH   9  13
ENDBRANCH   3   5
BRANCH   1  20
ATOM     15  C   UNL     1       0.143  10.337  20.519  0.00  0.00    +0.000 A 
ATOM     16  C   UNL     1      -0.067  11.454  21.344  0.00  0.00    +0.000 A 
ATOM     17  C   UNL     1       0.530  12.677  21.049  0.00  0.00    +0.000 A 
ATOM     18  C   UNL     1       1.299  12.811  19.900  0.00  0.00    +0.000 A 
ATOM     19  C   UNL     1       1.513  11.721  19.048  0.00  0.00    +0.000 A 
ATOM     20  C   UNL     1       0.967  10.458  19.374  0.00  0.00    +0.000 A 
BRANCH  15  22
ATOM     21  C   UNL     1      -0.482   8.719  22.153  0.00  0.00    +0.000 C 
ATOM     22  O   UNL     1      -0.426   9.113  20.782  0.00  0.00    +0.000 OA
ENDBRANCH  15  22
BRANCH  19  23
ATOM     23  O   UNL     1       2.374  12.027  18.024  0.00  0.00    +0.000 OA
ATOM     24  C   UNL     1       3.042  13.283  18.091  0.00  0.00    +0.000 C 
ENDBRANCH  19  23
ENDBRANCH   1  20
TORSDOF 5
ENDMDL
