MODEL 1
REMARK VINA RESULT:      -7.1      0.000      0.000
REMARK  Name = 
REMARK  4 active torsions:
REMARK  status: ('A' for Active; 'I' for Inactive)
REMARK    1  A    between atoms: C_1  and  C_2
REMARK    2  A    between atoms: N_11  and  C_12
REMARK    3  A    between atoms: N_11  and  C_19
REMARK    4  A    between atoms: C_12  and  C_13
REMARK                            x       y       z     vdW  Elec       q    Type
REMARK                         _______ _______ _______ _____ _____    ______ ____
ROOT
ATOM      1  C   UNL     1      -2.887  10.058  15.506  0.00  0.00    +0.000 C 
ATOM      2  C   UNL     1      -3.366  10.840  16.692  0.00  0.00    +0.000 A 
ATOM      3  C   UNL     1      -4.691  11.328  16.663  0.00  0.00    +0.000 A 
ATOM      4  C   UNL     1      -5.231  12.032  17.738  0.00  0.00    +0.000 A 
ATOM      5  C   UNL     1      -4.458  12.244  18.871  0.00  0.00    +0.000 A 
ATOM      6  C   UNL     1      -3.132  11.795  18.891  0.00  0.00    +0.000 A 
ATOM      7  C   UNL     1      -2.299  12.000  20.075  0.00  0.00    +0.000 A 
ATOM      8  O   UNL     1      -2.836  12.292  21.135  0.00  0.00    +0.000 OA
ATOM      9  N   UNL     1      -0.953  11.901  19.927  0.00  0.00    +0.000 NA
ATOM     10  C   UNL     1      -0.434  11.359  18.871  0.00  0.00    +0.000 A 
ATOM     11  N   UNL     1       0.952  11.326  18.693  0.00  0.00    +0.000 N 
ATOM     12  O   UNL     1      -1.192  10.804  17.831  0.00  0.00    +0.000 OA
ATOM     13  C   UNL     1      -2.564  11.137  17.807  0.00  0.00    +0.000 A 
ENDROOT
BRANCH  11  14
ATOM     14  C   UNL     1       1.752  12.406  19.165  0.00  0.00    +0.000 A 
ATOM     15  C   UNL     1       2.383  13.332  18.325  0.00  0.00    +0.000 A 
ATOM     16  C   UNL     1       3.144  14.380  18.853  0.00  0.00    +0.000 A 
ATOM     17  C   UNL     1       3.258  14.491  20.226  0.00  0.00    +0.000 A 
ATOM     18  N   UNL     1       2.677  13.637  21.085  0.00  0.00    +0.000 NA
ATOM     19  C   UNL     1       1.963  12.619  20.537  0.00  0.00    +0.000 A 
ENDBRANCH  11  14
BRANCH  11  20
ATOM     20  C   UNL     1       1.649  10.273  17.949  0.00  0.00    +0.000 C 
BRANCH  20  21
ATOM     21  C   UNL     1       1.772   8.963  18.701  0.00  0.00    +0.000 A 
ATOM     22  C   UNL     1       2.364   7.819  18.156  0.00  0.00    +0.000 A 
ATOM     23  C   UNL     1       2.512   6.672  18.933  0.00  0.00    +0.000 A 
ATOM     24  C   UNL     1       2.060   6.698  20.241  0.00  0.00    +0.000 A 
ATOM     25  N   UNL     1       1.469   7.772  20.802  0.00  0.00    +0.000 NA
ATOM     26  C   UNL     1       1.342   8.872  20.026  0.00  0.00    +0.000 A 
ENDBRANCH  20  21
ENDBRANCH  11  20
TORSDOF 3
ENDMDL
MODEL 2
REMARK VINA RESULT:      -7.1      1.808      4.702
REMARK  Name = 
REMARK  4 active torsions:
REMARK  status: ('A' for Active; 'I' for Inactive)
REMARK    1  A    between atoms: C_1  and  C_2
REMARK    2  A    between atoms: N_11  and  C_12
REMARK    3  A    between atoms: N_11  and  C_19
REMARK    4  A    between atoms: C_12  and  C_13
REMARK                            x       y       z     vdW  Elec       q    Type
REMARK                         _______ _______ _______ _____ _____    ______ ____
ROOT
ATOM      1  C   UNL     1      -3.976  13.254  20.614  0.00  0.00    +0.000 C 
ATOM      2  C   UNL     1      -4.185  12.322  19.457  0.00  0.00    +0.000 A 
ATOM      3  C   UNL     1      -5.515  12.035  19.079  0.00  0.00    +0.000 A 
ATOM      4  C   UNL     1      -5.800  11.210  17.992  0.00  0.00    +0.000 A 
ATOM      5  C   UNL     1      -4.756  10.673  17.252  0.00  0.00    +0.000 A 
ATOM      6  C   UNL     1      -3.436  10.924  17.645  0.00  0.00    +0.000 A 
ATOM      7  C   UNL     1      -2.319  10.376  16.878  0.00  0.00    +0.000 A 
ATOM      8  O   UNL     1      -2.525   9.953  15.748  0.00  0.00    +0.000 OA
ATOM      9  N   UNL     1      -1.104  10.319  17.481  0.00  0.00    +0.000 NA
ATOM     10  C   UNL     1      -0.864  10.984  18.566  0.00  0.00    +0.000 A 
ATOM     11  N   UNL     1       0.365  10.864  19.221  0.00  0.00    +0.000 N 
ATOM     12  O   UNL     1      -1.796  11.834  19.177  0.00  0.00    +0.000 OA
ATOM     13  C   UNL     1      -3.137  11.702  18.756  0.00  0.00    +0.000 A 
ENDROOT
BRANCH  11  14
ATOM     14  C   UNL     1       1.047   9.614  19.223  0.00  0.00    +0.000 A 
ATOM     15  C   UNL     1       1.752   9.109  18.123  0.00  0.00    +0.000 A 
ATOM     16  C   UNL     1       2.415   7.880  18.195  0.00  0.00    +0.000 A 
ATOM     17  C   UNL     1       2.368   7.170  19.380  0.00  0.00    +0.000 A 
ATOM     18  N   UNL     1       1.710   7.598  20.470  0.00  0.00    +0.000 NA
ATOM     19  C   UNL     1       1.061   8.786  20.358  0.00  0.00    +0.000 A 
ENDBRANCH  11  14
BRANCH  11  20
ATOM     20  C   UNL     1       0.973  11.940  20.009  0.00  0.00    +0.000 C 
BRANCH  20  21
ATOM     21  C   UNL     1       0.115  12.425  21.159  0.00  0.00    +0.000 A 
ATOM     22  C   UNL     1      -0.570  11.562  22.021  0.00  0.00    +0.000 A 
ATOM     23  C   UNL     1      -1.278  12.076  23.106  0.00  0.00    +0.000 A 
ATOM     24  C   UNL     1      -1.283  13.447  23.301  0.00  0.00    +0.000 A 
ATOM     25  N   UNL     1      -0.651  14.316  22.487  0.00  0.00    +0.000 NA
ATOM     26  C   UNL     1       0.031  13.789  21.445  0.00  0.00    +0.000 A 
ENDBRANCH  20  21
ENDBRANCH  11  20
TORSDOF 3
ENDMDL
MODEL 3
REMARK VINA RESULT:      -7.1      1.344      4.638
REMARK  Name = 
REMARK  4 active torsions:
REMARK  status: ('A' for Active; 'I' for Inactive)
REMARK    1  A    between atoms: C_1  and  C_2
REMARK    2  A    between atoms: N_11  and  C_12
REMARK    3  A    between atoms: N_11  and  C_19
REMARK    4  A    between atoms: C_12  and  C_13
REMARK                            x       y       z     vdW  Elec       q    Type
REMARK                         _______ _______ _______ _____ _____    ______ ____
ROOT
ATOM      1  C   UNL     1      -4.336  13.138  20.991  0.00  0.00    +0.000 C 
ATOM      2  C   UNL     1      -4.446  12.421  19.678  0.00  0.00    +0.000 A 
ATOM      3  C   UNL     1      -5.742  12.168  19.178  0.00  0.00    +0.000 A 
ATOM      4  C   UNL     1      -5.938  11.541  17.948  0.00  0.00    +0.000 A 
ATOM      5  C   UNL     1      -4.836  11.174  17.188  0.00  0.00    +0.000 A 
ATOM      6  C   UNL     1      -3.549  11.389  17.696  0.00  0.00    +0.000 A 
ATOM      7  C   UNL     1      -2.373  11.018  16.911  0.00  0.00    +0.000 A 
ATOM      8  O   UNL     1      -2.502  10.798  15.715  0.00  0.00    +0.000 OA
ATOM      9  N   UNL     1      -1.190  10.890  17.565  0.00  0.00    +0.000 NA
ATOM     10  C   UNL     1      -1.034  11.359  18.763  0.00  0.00    +0.000 A 
ATOM     11  N   UNL     1       0.162  11.159  19.457  0.00  0.00    +0.000 N 
ATOM     12  O   UNL     1      -2.029  12.059  19.458  0.00  0.00    +0.000 OA
ATOM     13  C   UNL     1      -3.339  11.966  18.942  0.00  0.00    +0.000 A 
ENDROOT
BRANCH  11  14
ATOM     14  C   UNL     1       0.891   9.948  19.279  0.00  0.00    +0.000 A 
ATOM     15  C   UNL     1       1.542   9.599  18.090  0.00  0.00    +0.000 A 
ATOM     16  C   UNL     1       2.256   8.400  17.986  0.00  0.00    +0.000 A 
ATOM     17  C   UNL     1       2.313   7.565  19.084  0.00  0.00    +0.000 A 
ATOM     18  N   UNL     1       1.712   7.842  20.254  0.00  0.00    +0.000 NA
ATOM     19  C   UNL     1       1.011   9.004  20.313  0.00  0.00    +0.000 A 
ENDBRANCH  11  14
BRANCH  11  20
ATOM     20  C   UNL     1       0.686  12.095  20.457  0.00  0.00    +0.000 C 
BRANCH  20  21
ATOM     21  C   UNL     1       1.727  13.055  19.919  0.00  0.00    +0.000 A 
ATOM     22  C   UNL     1       2.671  13.695  20.729  0.00  0.00    +0.000 A 
ATOM     23  C   UNL     1       3.649  14.506  20.155  0.00  0.00    +0.000 A 
ATOM     24  C   UNL     1       3.656  14.657  18.779  0.00  0.00    +0.000 A 
ATOM     25  N   UNL     1       2.757  14.073  17.962  0.00  0.00    +0.000 NA
ATOM     26  C   UNL     1       1.822  13.289  18.545  0.00  0.00    +0.000 A 
ENDBRANCH  20  21
ENDBRANCH  11  20
TORSDOF 3
ENDMDL
MODEL 4
REMARK VINA RESULT:      -7.0      3.215      6.549
REMARK  Name = 
REMARK  4 active torsions:
REMARK  status: ('A' for Active; 'I' for Inactive)
REMARK    1  A    between atoms: C_1  and  C_2
REMARK    2  A    between atoms: N_11  and  C_12
REMARK    3  A    between atoms: N_11  and  C_19
REMARK    4  A    between atoms: C_12  and  C_13
REMARK                            x       y       z     vdW  Elec       q    Type
REMARK                         _______ _______ _______ _____ _____    ______ ____
ROOT
ATOM      1  C   UNL     1      -2.931   9.865  17.123  0.00  0.00    +0.000 C 
ATOM      2  C   UNL     1      -1.671  10.275  17.826  0.00  0.00    +0.000 A 
ATOM      3  C   UNL     1      -0.510   9.507  17.591  0.00  0.00    +0.000 A 
ATOM      4  C   UNL     1       0.712   9.840  18.173  0.00  0.00    +0.000 A 
ATOM      5  C   UNL     1       0.797  10.960  18.987  0.00  0.00    +0.000 A 
ATOM      6  C   UNL     1      -0.359  11.704  19.253  0.00  0.00    +0.000 A 
ATOM      7  C   UNL     1      -0.294  12.893  20.101  0.00  0.00    +0.000 A 
ATOM      8  O   UNL     1       0.795  13.399  20.333  0.00  0.00    +0.000 OA
ATOM      9  N   UNL     1      -1.455  13.355  20.634  0.00  0.00    +0.000 NA
ATOM     10  C   UNL     1      -2.603  12.956  20.184  0.00  0.00    +0.000 A 
ATOM     11  N   UNL     1      -3.791  13.380  20.784  0.00  0.00    +0.000 N 
ATOM     12  O   UNL     1      -2.749  12.070  19.109  0.00  0.00    +0.000 OA
ATOM     13  C   UNL     1      -1.594  11.355  18.722  0.00  0.00    +0.000 A 
ENDROOT
BRANCH  11  14
ATOM     14  C   UNL     1      -3.836  13.595  22.192  0.00  0.00    +0.000 A 
ATOM     15  C   UNL     1      -3.762  12.567  23.139  0.00  0.00    +0.000 A 
ATOM     16  C   UNL     1      -3.796  12.847  24.509  0.00  0.00    +0.000 A 
ATOM     17  C   UNL     1      -3.898  14.164  24.915  0.00  0.00    +0.000 A 
ATOM     18  N   UNL     1      -3.972  15.195  24.057  0.00  0.00    +0.000 NA
ATOM     19  C   UNL     1      -3.957  14.885  22.735  0.00  0.00    +0.000 A 
ENDBRANCH  11  14
BRANCH  11  20
ATOM     20  C   UNL     1      -5.057  13.532  20.060  0.00  0.00    +0.000 C 
BRANCH  20  21
ATOM     21  C   UNL     1      -5.925  12.291  20.066  0.00  0.00    +0.000 A 
ATOM     22  C   UNL     1      -5.926  11.351  19.030  0.00  0.00    +0.000 A 
ATOM     23  C   UNL     1      -6.694  10.193  19.139  0.00  0.00    +0.000 A 
ATOM     24  C   UNL     1      -7.444  10.004  20.287  0.00  0.00    +0.000 A 
ATOM     25  N   UNL     1      -7.486  10.890  21.302  0.00  0.00    +0.000 NA
ATOM     26  C   UNL     1      -6.729  12.003  21.171  0.00  0.00    +0.000 A 
ENDBRANCH  20  21
ENDBRANCH  11  20
TORSDOF 3
ENDMDL
MODEL 5
REMARK VINA RESULT:      -6.8      1.591      4.889
REMARK  Name = 
REMARK  4 active torsions:
REMARK  status: ('A' for Active; 'I' for Inactive)
REMARK    1  A    between atoms: C_1  and  C_2
REMARK    2  A    between atoms: N_11  and  C_12
REMARK    3  A    between atoms: N_11  and  C_19
REMARK    4  A    between atoms: C_12  and  C_13
REMARK                            x       y       z     vdW  Elec       q    Type
REMARK                         _______ _______ _______ _____ _____    ______ ____
ROOT
ATOM      1  C   UNL     1      -4.499  13.654  20.875  0.00  0.00    +0.000 C 
ATOM      2  C   UNL     1      -4.652  12.668  19.755  0.00  0.00    +0.000 A 
ATOM      3  C   UNL     1      -5.963  12.344  19.343  0.00  0.00    +0.000 A 
ATOM      4  C   UNL     1      -6.197  11.467  18.284  0.00  0.00    +0.000 A 
ATOM      5  C   UNL     1      -5.119  10.913  17.608  0.00  0.00    +0.000 A 
ATOM      6  C   UNL     1      -3.818  11.202  18.037  0.00  0.00    +0.000 A 
ATOM      7  C   UNL     1      -2.666  10.637  17.336  0.00  0.00    +0.000 A 
ATOM      8  O   UNL     1      -2.824  10.161  16.220  0.00  0.00    +0.000 OA
ATOM      9  N   UNL     1      -1.473  10.625  17.985  0.00  0.00    +0.000 NA
ATOM     10  C   UNL     1      -1.282  11.343  19.047  0.00  0.00    +0.000 A 
ATOM     11  N   UNL     1      -0.077  11.271  19.750  0.00  0.00    +0.000 N 
ATOM     12  O   UNL     1      -2.248  12.205  19.584  0.00  0.00    +0.000 OA
ATOM     13  C   UNL     1      -3.570  12.034  19.122  0.00  0.00    +0.000 A 
ENDROOT
BRANCH  11  14
ATOM     14  C   UNL     1       0.621  10.032  19.834  0.00  0.00    +0.000 A 
ATOM     15  C   UNL     1       0.626   9.216  20.972  0.00  0.00    +0.000 A 
ATOM     16  C   UNL     1       1.320   8.002  20.984  0.00  0.00    +0.000 A 
ATOM     17  C   UNL     1       2.000   7.615  19.845  0.00  0.00    +0.000 A 
ATOM     18  N   UNL     1       2.034   8.352  18.721  0.00  0.00    +0.000 NA
ATOM     19  C   UNL     1       1.366   9.535  18.752  0.00  0.00    +0.000 A 
ENDBRANCH  11  14
BRANCH  11  20
ATOM     20  C   UNL     1       0.487  12.391  20.510  0.00  0.00    +0.000 C 
BRANCH  20  21
ATOM     21  C   UNL     1       1.214  13.412  19.659  0.00  0.00    +0.000 A 
ATOM     22  C   UNL     1       0.744  14.713  19.455  0.00  0.00    +0.000 A 
ATOM     23  C   UNL     1       1.505  15.623  18.723  0.00  0.00    +0.000 A 
ATOM     24  C   UNL     1       2.722  15.205  18.211  0.00  0.00    +0.000 A 
ATOM     25  N   UNL     1       3.205  13.957  18.369  0.00  0.00    +0.000 NA
ATOM     26  C   UNL     1       2.448  13.096  19.086  0.00  0.00    +0.000 A 
ENDBRANCH  20  21
ENDBRANCH  11  20
TORSDOF 3
ENDMDL
MODEL 6
REMARK VINA RESULT:      -6.8      0.841      1.356
REMARK  Name = 
REMARK  4 active torsions:
REMARK  status: ('A' for Active; 'I' for Inactive)
REMARK    1  A    between atoms: C_1  and  C_2
REMARK    2  A    between atoms: N_11  and  C_12
REMARK    3  A    between atoms: N_11  and  C_19
REMARK    4  A    between atoms: C_12  and  C_13
REMARK                            x       y       z     vdW  Elec       q    Type
REMARK                         _______ _______ _______ _____ _____    ______ ____
ROOT
ATOM      1  C   UNL     1      -2.908   9.947  15.648  0.00  0.00    +0.000 C 
ATOM      2  C   UNL     1      -3.447  10.792  16.763  0.00  0.00    +0.000 A 
ATOM      3  C   UNL     1      -4.786  11.229  16.665  0.00  0.00    +0.000 A 
ATOM      4  C   UNL     1      -5.380  11.986  17.674  0.00  0.00    +0.000 A 
ATOM      5  C   UNL     1      -4.648  12.303  18.809  0.00  0.00    +0.000 A 
ATOM      6  C   UNL     1      -3.308  11.904  18.895  0.00  0.00    +0.000 A 
ATOM      7  C   UNL     1      -2.518  12.220  20.084  0.00  0.00    +0.000 A 
ATOM      8  O   UNL     1      -3.094  12.564  21.106  0.00  0.00    +0.000 OA
ATOM      9  N   UNL     1      -1.165  12.159  19.979  0.00  0.00    +0.000 NA
ATOM     10  C   UNL     1      -0.598  11.565  18.977  0.00  0.00    +0.000 A 
ATOM     11  N   UNL     1       0.792  11.569  18.839  0.00  0.00    +0.000 N 
ATOM     12  O   UNL     1      -1.307  10.912  17.959  0.00  0.00    +0.000 OA
ATOM     13  C   UNL     1      -2.688  11.194  17.875  0.00  0.00    +0.000 A 
ENDROOT
BRANCH  11  14
ATOM     14  C   UNL     1       1.542  12.706  19.255  0.00  0.00    +0.000 A 
ATOM     15  C   UNL     1       2.153  12.820  20.510  0.00  0.00    +0.000 A 
ATOM     16  C   UNL     1       2.890  13.958  20.851  0.00  0.00    +0.000 A 
ATOM     17  C   UNL     1       3.013  14.972  19.921  0.00  0.00    +0.000 A 
ATOM     18  N   UNL     1       2.453  14.925  18.700  0.00  0.00    +0.000 NA
ATOM     19  C   UNL     1       1.727  13.813  18.410  0.00  0.00    +0.000 A 
ENDBRANCH  11  14
BRANCH  11  20
ATOM     20  C   UNL     1       1.546  10.492  18.189  0.00  0.00    +0.000 C 
BRANCH  20  21
ATOM     21  C   UNL     1       1.675   9.236  19.026  0.00  0.00    +0.000 A 
ATOM     22  C   UNL     1       1.116   9.103  20.301  0.00  0.00    +0.000 A 
ATOM     23  C   UNL     1       1.209   7.890  20.981  0.00  0.00    +0.000 A 
ATOM     24  C   UNL     1       1.862   6.836  20.365  0.00  0.00    +0.000 A 
ATOM     25  N   UNL     1       2.429   6.924  19.145  0.00  0.00    +0.000 NA
ATOM     26  C   UNL     1       2.321   8.111  18.507  0.00  0.00    +0.000 A 
ENDBRANCH  20  21
ENDBRANCH  11  20
TORSDOF 3
ENDMDL
MODEL 7
REMARK VINA RESULT:      -6.8      2.198      6.376
REMARK  Name = 
REMARK  4 active torsions:
REMARK  status: ('A' for Active; 'I' for Inactive)
REMARK    1  A    between atoms: C_1  and  C_2
REMARK    2  A    between atoms: N_11  and  C_12
REMARK    3  A    between atoms: N_11  and  C_19
REMARK    4  A    between atoms: C_12  and  C_13
REMARK                            x       y       z     vdW  Elec       q    Type
REMARK                         _______ _______ _______ _____ _____    ______ ____
ROOT
ATOM      1  C   UNL     1       2.147   8.920  17.638  0.00  0.00    +0.000 C 
ATOM      2  C   UNL     1       1.725   8.631  19.047  0.00  0.00    +0.000 A 
ATOM      3  C   UNL     1       2.052   7.365  19.582  0.00  0.00    +0.000 A 
ATOM      4  C   UNL     1       1.732   7.026  20.896  0.00  0.00    +0.000 A 
ATOM      5  C   UNL     1       1.095   7.957  21.704  0.00  0.00    +0.000 A 
ATOM      6  C   UNL     1       0.737   9.200  21.169  0.00  0.00    +0.000 A 
ATOM      7  C   UNL     1       0.073  10.201  22.002  0.00  0.00    +0.000 A 
ATOM      8  O   UNL     1       0.095  10.071  23.218  0.00  0.00    +0.000 OA
ATOM      9  N   UNL     1      -0.584  11.211  21.376  0.00  0.00    +0.000 NA
ATOM     10  C   UNL     1      -0.389  11.458  20.119  0.00  0.00    +0.000 A 
ATOM     11  N   UNL     1      -1.121  12.453  19.466  0.00  0.00    +0.000 N 
ATOM     12  O   UNL     1       0.522  10.753  19.322  0.00  0.00    +0.000 OA
ATOM     13  C   UNL     1       1.003   9.533  19.846  0.00  0.00    +0.000 A 
ENDROOT
BRANCH  11  14
ATOM     14  C   UNL     1      -2.476  12.692  19.833  0.00  0.00    +0.000 A 
ATOM     15  C   UNL     1      -2.864  13.585  20.840  0.00  0.00    +0.000 A 
ATOM     16  C   UNL     1      -4.215  13.787  21.142  0.00  0.00    +0.000 A 
ATOM     17  C   UNL     1      -5.167  13.092  20.421  0.00  0.00    +0.000 A 
ATOM     18  N   UNL     1      -4.861  12.222  19.443  0.00  0.00    +0.000 NA
ATOM     19  C   UNL     1      -3.539  12.035  19.191  0.00  0.00    +0.000 A 
ENDBRANCH  11  14
BRANCH  11  20
ATOM     20  C   UNL     1      -0.607  13.225  18.330  0.00  0.00    +0.000 C 
BRANCH  20  21
ATOM     21  C   UNL     1       0.230  14.424  18.726  0.00  0.00    +0.000 A 
ATOM     22  C   UNL     1      -0.322  15.655  19.095  0.00  0.00    +0.000 A 
ATOM     23  C   UNL     1       0.507  16.691  19.522  0.00  0.00    +0.000 A 
ATOM     24  C   UNL     1       1.872  16.468  19.568  0.00  0.00    +0.000 A 
ATOM     25  N   UNL     1       2.448  15.304  19.206  0.00  0.00    +0.000 NA
ATOM     26  C   UNL     1       1.620  14.315  18.799  0.00  0.00    +0.000 A 
ENDBRANCH  20  21
ENDBRANCH  11  20
TORSDOF 3
ENDMDL
MODEL 8
REMARK VINA RESULT:      -6.7      3.319      5.804
REMARK  Name = 
REMARK  4 active torsions:
REMARK  status: ('A' for Active; 'I' for Inactive)
REMARK    1  A    between atoms: C_1  and  C_2
REMARK    2  A    between atoms: N_11  and  C_12
REMARK    3  A    between atoms: N_11  and  C_19
REMARK    4  A    between atoms: C_12  and  C_13
REMARK                            x       y       z     vdW  Elec       q    Type
REMARK                         _______ _______ _______ _____ _____    ______ ____
ROOT
ATOM      1  C   UNL     1      -4.215  12.492  24.537  0.00  0.00    +0.000 C 
ATOM      2  C   UNL     1      -5.380  12.686  23.613  0.00  0.00    +0.000 A 
ATOM      3  C   UNL     1      -6.675  12.642  24.175  0.00  0.00    +0.000 A 
ATOM      4  C   UNL     1      -7.813  12.850  23.396  0.00  0.00    +0.000 A 
ATOM      5  C   UNL     1      -7.672  13.124  22.043  0.00  0.00    +0.000 A 
ATOM      6  C   UNL     1      -6.393  13.131  21.474  0.00  0.00    +0.000 A 
ATOM      7  C   UNL     1      -6.217  13.424  20.052  0.00  0.00    +0.000 A 
ATOM      8  O   UNL     1      -7.137  13.943  19.435  0.00  0.00    +0.000 OA
ATOM      9  N   UNL     1      -5.046  13.060  19.471  0.00  0.00    +0.000 NA
ATOM     10  C   UNL     1      -4.014  12.741  20.186  0.00  0.00    +0.000 A 
ATOM     11  N   UNL     1      -2.835  12.297  19.582  0.00  0.00    +0.000 N 
ATOM     12  O   UNL     1      -3.998  12.784  21.587  0.00  0.00    +0.000 OA
ATOM     13  C   UNL     1      -5.253  12.876  22.227  0.00  0.00    +0.000 A 
ENDROOT
BRANCH  11  14
ATOM     14  C   UNL     1      -2.900  11.513  18.395  0.00  0.00    +0.000 A 
ATOM     15  C   UNL     1      -1.880  10.649  17.975  0.00  0.00    +0.000 A 
ATOM     16  C   UNL     1      -2.013   9.893  16.806  0.00  0.00    +0.000 A 
ATOM     17  C   UNL     1      -3.177  10.008  16.070  0.00  0.00    +0.000 A 
ATOM     18  N   UNL     1      -4.192  10.817  16.418  0.00  0.00    +0.000 NA
ATOM     19  C   UNL     1      -4.020  11.552  17.548  0.00  0.00    +0.000 A 
ENDBRANCH  11  14
BRANCH  11  20
ATOM     20  C   UNL     1      -1.501  12.508  20.153  0.00  0.00    +0.000 C 
BRANCH  20  21
ATOM     21  C   UNL     1      -1.053  11.413  21.098  0.00  0.00    +0.000 A 
ATOM     22  C   UNL     1      -0.383  10.261  20.675  0.00  0.00    +0.000 A 
ATOM     23  C   UNL     1       0.068   9.331  21.610  0.00  0.00    +0.000 A 
ATOM     24  C   UNL     1      -0.165   9.579  22.952  0.00  0.00    +0.000 A 
ATOM     25  N   UNL     1      -0.821  10.667  23.404  0.00  0.00    +0.000 NA
ATOM     26  C   UNL     1      -1.244  11.553  22.475  0.00  0.00    +0.000 A 
ENDBRANCH  20  21
ENDBRANCH  11  20
TORSDOF 3
ENDMDL
MODEL 9
REMARK VINA RESULT:      -6.7      3.209      4.362
REMARK  Name = 
REMARK  4 active torsions:
REMARK  status: ('A' for Active; 'I' for Inactive)
REMARK    1  A    between atoms: C_1  and  C_2
REMARK    2  A    between atoms: N_11  and  C_12
REMARK    3  A    between atoms: N_11  and  C_19
REMARK    4  A    between atoms: C_12  and  C_13
REMARK                            x       y       z     vdW  Elec       q    Type
REMARK                         _______ _______ _______ _____ _____    ______ ____
ROOT
ATOM      1  C   UNL     1      -4.078  11.611  17.087  0.00  0.00    +0.000 C 
ATOM      2  C   UNL     1      -5.111  11.909  18.132  0.00  0.00    +0.000 A 
ATOM      3  C   UNL     1      -6.463  11.939  17.727  0.00  0.00    +0.000 A 
ATOM      4  C   UNL     1      -7.492  12.170  18.640  0.00  0.00    +0.000 A 
ATOM      5  C   UNL     1      -7.184  12.357  19.980  0.00  0.00    +0.000 A 
ATOM      6  C   UNL     1      -5.842  12.365  20.381  0.00  0.00    +0.000 A 
ATOM      7  C   UNL     1      -5.492  12.552  21.788  0.00  0.00    +0.000 A 
ATOM      8  O   UNL     1      -6.359  12.408  22.640  0.00  0.00    +0.000 OA
ATOM      9  N   UNL     1      -4.220  12.926  22.080  0.00  0.00    +0.000 NA
ATOM     10  C   UNL     1      -3.276  12.833  21.197  0.00  0.00    +0.000 A 
ATOM     11  N   UNL     1      -1.986  13.287  21.481  0.00  0.00    +0.000 N 
ATOM     12  O   UNL     1      -3.467  12.315  19.909  0.00  0.00    +0.000 OA
ATOM     13  C   UNL     1      -4.804  12.187  19.475  0.00  0.00    +0.000 A 
ENDROOT
BRANCH  11  14
ATOM     14  C   UNL     1      -1.804  14.430  22.311  0.00  0.00    +0.000 A 
ATOM     15  C   UNL     1      -1.346  14.367  23.633  0.00  0.00    +0.000 A 
ATOM     16  C   UNL     1      -1.173  15.530  24.391  0.00  0.00    +0.000 A 
ATOM     17  C   UNL     1      -1.456  16.750  23.808  0.00  0.00    +0.000 A 
ATOM     18  N   UNL     1      -1.897  16.879  22.545  0.00  0.00    +0.000 NA
ATOM     19  C   UNL     1      -2.073  15.728  21.845  0.00  0.00    +0.000 A 
ENDBRANCH  11  14
BRANCH  11  20
ATOM     20  C   UNL     1      -0.774  12.710  20.890  0.00  0.00    +0.000 C 
BRANCH  20  21
ATOM     21  C   UNL     1      -0.455  11.311  21.377  0.00  0.00    +0.000 A 
ATOM     22  C   UNL     1      -0.638  10.900  22.701  0.00  0.00    +0.000 A 
ATOM     23  C   UNL     1      -0.396   9.575  23.060  0.00  0.00    +0.000 A 
ATOM     24  C   UNL     1       0.025   8.692  22.080  0.00  0.00    +0.000 A 
ATOM     25  N   UNL     1       0.230   9.048  20.796  0.00  0.00    +0.000 NA
ATOM     26  C   UNL     1      -0.016  10.339  20.475  0.00  0.00    +0.000 A 
ENDBRANCH  20  21
ENDBRANCH  11  20
TORSDOF 3
ENDMDL
