MODEL 1
REMARK VINA RESULT:      -8.1      0.000      0.000
REMARK  Name = 
REMARK  2 active torsions:
REMARK  status: ('A' for Active; 'I' for Inactive)
REMARK    1  A    between atoms: C_4  and  C_5
REMARK    2  A    between atoms: C_10  and  N_11
REMARK                            x       y       z     vdW  Elec       q    Type
REMARK                         _______ _______ _______ _____ _____    ______ ____
ROOT
ATOM      1  O   UNL     1       7.424   5.681  18.012  0.00  0.00    +0.000 OA
ATOM      2  C   UNL     1       6.521   5.158  17.391  0.00  0.00    +0.000 C 
ATOM      3  C   UNL     1       5.195   4.715  17.935  0.00  0.00    +0.000 C 
ATOM      4  C   UNL     1       4.894   4.792  19.240  0.00  0.00    +0.000 C 
ATOM      5  C   UNL     1       4.368   4.189  16.789  0.00  0.00    +0.000 C 
ATOM      6  C   UNL     1       5.280   4.305  15.607  0.00  0.00    +0.000 A 
ATOM      7  C   UNL     1       5.027   3.932  14.298  0.00  0.00    +0.000 A 
ATOM      8  C   UNL     1       6.033   4.113  13.348  0.00  0.00    +0.000 A 
ATOM      9  C   UNL     1       7.278   4.658  13.713  0.00  0.00    +0.000 A 
ATOM     10  C   UNL     1       7.529   5.039  15.034  0.00  0.00    +0.000 A 
ATOM     11  C   UNL     1       6.513   4.855  15.956  0.00  0.00    +0.000 A 
ENDROOT
BRANCH   4  12
ATOM     12  C   UNL     1       3.604   4.336  19.771  0.00  0.00    +0.000 A 
ATOM     13  C   UNL     1       2.642   5.312  20.067  0.00  0.00    +0.000 A 
ATOM     14  C   UNL     1       1.356   4.950  20.486  0.00  0.00    +0.000 A 
ATOM     15  C   UNL     1       1.006   3.605  20.603  0.00  0.00    +0.000 A 
ATOM     16  C   UNL     1       1.947   2.616  20.329  0.00  0.00    +0.000 A 
ATOM     17  C   UNL     1       3.242   2.988  19.932  0.00  0.00    +0.000 A 
BRANCH  17  18
ATOM     18  N   UNL     1       4.202   1.925  19.700  0.00  0.00    +0.000 N 
ATOM     19  O   UNL     1       5.100   1.773  20.538  0.00  0.00    +0.000 OA
ATOM     20  O   UNL     1       4.023   1.216  18.698  0.00  0.00    +0.000 OA
ENDBRANCH  17  18
ENDBRANCH   4  12
TORSDOF 2
ENDMDL
MODEL 2
REMARK VINA RESULT:      -8.1      2.716      6.213
REMARK  Name = 
REMARK  2 active torsions:
REMARK  status: ('A' for Active; 'I' for Inactive)
REMARK    1  A    between atoms: C_4  and  C_5
REMARK    2  A    between atoms: C_10  and  N_11
REMARK                            x       y       z     vdW  Elec       q    Type
REMARK                         _______ _______ _______ _____ _____    ______ ____
ROOT
ATOM      1  O   UNL     1       2.876   5.226  20.452  0.00  0.00    +0.000 OA
ATOM      2  C   UNL     1       2.977   6.034  19.552  0.00  0.00    +0.000 C 
ATOM      3  C   UNL     1       3.805   5.894  18.308  0.00  0.00    +0.000 C 
ATOM      4  C   UNL     1       4.609   4.842  18.097  0.00  0.00    +0.000 C 
ATOM      5  C   UNL     1       3.567   7.109  17.445  0.00  0.00    +0.000 C 
ATOM      6  C   UNL     1       2.628   7.946  18.257  0.00  0.00    +0.000 A 
ATOM      7  C   UNL     1       2.107   9.189  17.941  0.00  0.00    +0.000 A 
ATOM      8  C   UNL     1       1.255   9.807  18.858  0.00  0.00    +0.000 A 
ATOM      9  C   UNL     1       0.937   9.183  20.079  0.00  0.00    +0.000 A 
ATOM     10  C   UNL     1       1.460   7.925  20.393  0.00  0.00    +0.000 A 
ATOM     11  C   UNL     1       2.296   7.331  19.464  0.00  0.00    +0.000 A 
ENDROOT
BRANCH   4  12
ATOM     12  C   UNL     1       5.434   4.721  16.890  0.00  0.00    +0.000 A 
ATOM     13  C   UNL     1       4.810   4.273  15.717  0.00  0.00    +0.000 A 
ATOM     14  C   UNL     1       5.507   4.223  14.504  0.00  0.00    +0.000 A 
ATOM     15  C   UNL     1       6.838   4.633  14.440  0.00  0.00    +0.000 A 
ATOM     16  C   UNL     1       7.488   5.068  15.593  0.00  0.00    +0.000 A 
ATOM     17  C   UNL     1       6.787   5.093  16.809  0.00  0.00    +0.000 A 
BRANCH  17  18
ATOM     18  N   UNL     1       7.516   5.513  17.993  0.00  0.00    +0.000 N 
ATOM     19  O   UNL     1       7.596   6.728  18.214  0.00  0.00    +0.000 OA
ATOM     20  O   UNL     1       7.967   4.615  18.721  0.00  0.00    +0.000 OA
ENDBRANCH  17  18
ENDBRANCH   4  12
TORSDOF 2
ENDMDL
MODEL 3
REMARK VINA RESULT:      -7.8      2.389      6.362
REMARK  Name = 
REMARK  2 active torsions:
REMARK  status: ('A' for Active; 'I' for Inactive)
REMARK    1  A    between atoms: C_4  and  C_5
REMARK    2  A    between atoms: C_10  and  N_11
REMARK                            x       y       z     vdW  Elec       q    Type
REMARK                         _______ _______ _______ _____ _____    ______ ____
ROOT
ATOM      1  O   UNL     1       2.482   6.812  18.871  0.00  0.00    +0.000 OA
ATOM      2  C   UNL     1       3.002   5.715  18.893  0.00  0.00    +0.000 C 
ATOM      3  C   UNL     1       4.018   5.183  17.926  0.00  0.00    +0.000 C 
ATOM      4  C   UNL     1       4.414   5.877  16.850  0.00  0.00    +0.000 C 
ATOM      5  C   UNL     1       4.431   3.807  18.387  0.00  0.00    +0.000 C 
ATOM      6  C   UNL     1       3.588   3.568  19.601  0.00  0.00    +0.000 A 
ATOM      7  C   UNL     1       3.549   2.438  20.401  0.00  0.00    +0.000 A 
ATOM      8  C   UNL     1       2.669   2.419  21.484  0.00  0.00    +0.000 A 
ATOM      9  C   UNL     1       1.836   3.522  21.755  0.00  0.00    +0.000 A 
ATOM     10  C   UNL     1       1.882   4.663  20.949  0.00  0.00    +0.000 A 
ATOM     11  C   UNL     1       2.768   4.660  19.885  0.00  0.00    +0.000 A 
ENDROOT
BRANCH   4  12
ATOM     12  C   UNL     1       5.392   5.343  15.894  0.00  0.00    +0.000 A 
ATOM     13  C   UNL     1       4.903   4.595  14.813  0.00  0.00    +0.000 A 
ATOM     14  C   UNL     1       5.763   4.135  13.809  0.00  0.00    +0.000 A 
ATOM     15  C   UNL     1       7.126   4.425  13.861  0.00  0.00    +0.000 A 
ATOM     16  C   UNL     1       7.641   5.153  14.932  0.00  0.00    +0.000 A 
ATOM     17  C   UNL     1       6.774   5.591  15.946  0.00  0.00    +0.000 A 
BRANCH  17  18
ATOM     18  N   UNL     1       7.361   6.308  17.064  0.00  0.00    +0.000 N 
ATOM     19  O   UNL     1       7.661   5.651  18.069  0.00  0.00    +0.000 OA
ATOM     20  O   UNL     1       7.559   7.523  16.909  0.00  0.00    +0.000 OA
ENDBRANCH  17  18
ENDBRANCH   4  12
TORSDOF 2
ENDMDL
MODEL 4
REMARK VINA RESULT:      -7.7      2.010      6.165
REMARK  Name = 
REMARK  2 active torsions:
REMARK  status: ('A' for Active; 'I' for Inactive)
REMARK    1  A    between atoms: C_4  and  C_5
REMARK    2  A    between atoms: C_10  and  N_11
REMARK                            x       y       z     vdW  Elec       q    Type
REMARK                         _______ _______ _______ _____ _____    ______ ____
ROOT
ATOM      1  O   UNL     1       3.371   3.641  20.003  0.00  0.00    +0.000 OA
ATOM      2  C   UNL     1       3.383   4.648  19.324  0.00  0.00    +0.000 C 
ATOM      3  C   UNL     1       4.103   4.847  18.024  0.00  0.00    +0.000 C 
ATOM      4  C   UNL     1       4.903   3.908  17.497  0.00  0.00    +0.000 C 
ATOM      5  C   UNL     1       3.773   6.226  17.509  0.00  0.00    +0.000 C 
ATOM      6  C   UNL     1       2.894   6.804  18.573  0.00  0.00    +0.000 A 
ATOM      7  C   UNL     1       2.328   8.068  18.616  0.00  0.00    +0.000 A 
ATOM      8  C   UNL     1       1.549   8.411  19.722  0.00  0.00    +0.000 A 
ATOM      9  C   UNL     1       1.345   7.496  20.772  0.00  0.00    +0.000 A 
ATOM     10  C   UNL     1       1.913   6.219  20.723  0.00  0.00    +0.000 A 
ATOM     11  C   UNL     1       2.677   5.901  19.614  0.00  0.00    +0.000 A 
ENDROOT
BRANCH   4  12
ATOM     12  C   UNL     1       5.624   4.116  16.235  0.00  0.00    +0.000 A 
ATOM     13  C   UNL     1       4.969   3.765  15.046  0.00  0.00    +0.000 A 
ATOM     14  C   UNL     1       5.553   4.022  13.800  0.00  0.00    +0.000 A 
ATOM     15  C   UNL     1       6.797   4.647  13.721  0.00  0.00    +0.000 A 
ATOM     16  C   UNL     1       7.476   4.993  14.887  0.00  0.00    +0.000 A 
ATOM     17  C   UNL     1       6.893   4.710  16.133  0.00  0.00    +0.000 A 
BRANCH  17  18
ATOM     18  N   UNL     1       7.656   5.048  17.321  0.00  0.00    +0.000 N 
ATOM     19  O   UNL     1       8.370   4.164  17.812  0.00  0.00    +0.000 OA
ATOM     20  O   UNL     1       7.570   6.216  17.729  0.00  0.00    +0.000 OA
ENDBRANCH  17  18
ENDBRANCH   4  12
TORSDOF 2
ENDMDL
MODEL 5
REMARK VINA RESULT:      -7.5      2.132      2.572
REMARK  Name = 
REMARK  2 active torsions:
REMARK  status: ('A' for Active; 'I' for Inactive)
REMARK    1  A    between atoms: C_4  and  C_5
REMARK    2  A    between atoms: C_10  and  N_11
REMARK                            x       y       z     vdW  Elec       q    Type
REMARK                         _______ _______ _______ _____ _____    ______ ____
ROOT
ATOM      1  O   UNL     1       7.303   6.037  17.894  0.00  0.00    +0.000 OA
ATOM      2  C   UNL     1       6.465   5.390  17.299  0.00  0.00    +0.000 C 
ATOM      3  C   UNL     1       5.172   4.869  17.854  0.00  0.00    +0.000 C 
ATOM      4  C   UNL     1       4.836   5.014  19.144  0.00  0.00    +0.000 C 
ATOM      5  C   UNL     1       4.422   4.186  16.737  0.00  0.00    +0.000 C 
ATOM      6  C   UNL     1       5.346   4.298  15.565  0.00  0.00    +0.000 A 
ATOM      7  C   UNL     1       5.158   3.808  14.283  0.00  0.00    +0.000 A 
ATOM      8  C   UNL     1       6.165   4.010  13.339  0.00  0.00    +0.000 A 
ATOM      9  C   UNL     1       7.348   4.692  13.681  0.00  0.00    +0.000 A 
ATOM     10  C   UNL     1       7.533   5.190  14.974  0.00  0.00    +0.000 A 
ATOM     11  C   UNL     1       6.517   4.983  15.891  0.00  0.00    +0.000 A 
ENDROOT
BRANCH   4  12
ATOM     12  C   UNL     1       3.580   4.482  19.687  0.00  0.00    +0.000 A 
ATOM     13  C   UNL     1       3.584   3.163  20.162  0.00  0.00    +0.000 A 
ATOM     14  C   UNL     1       2.453   2.618  20.781  0.00  0.00    +0.000 A 
ATOM     15  C   UNL     1       1.302   3.387  20.948  0.00  0.00    +0.000 A 
ATOM     16  C   UNL     1       1.266   4.696  20.473  0.00  0.00    +0.000 A 
ATOM     17  C   UNL     1       2.398   5.227  19.832  0.00  0.00    +0.000 A 
BRANCH  17  18
ATOM     18  N   UNL     1       2.300   6.580  19.314  0.00  0.00    +0.000 N 
ATOM     19  O   UNL     1       2.229   6.716  18.086  0.00  0.00    +0.000 OA
ATOM     20  O   UNL     1       2.249   7.497  20.147  0.00  0.00    +0.000 OA
ENDBRANCH  17  18
ENDBRANCH   4  12
TORSDOF 2
ENDMDL
MODEL 6
REMARK VINA RESULT:      -7.5      2.308      2.700
REMARK  Name = 
REMARK  2 active torsions:
REMARK  status: ('A' for Active; 'I' for Inactive)
REMARK    1  A    between atoms: C_4  and  C_5
REMARK    2  A    between atoms: C_10  and  N_11
REMARK                            x       y       z     vdW  Elec       q    Type
REMARK                         _______ _______ _______ _____ _____    ______ ____
ROOT
ATOM      1  O   UNL     1       7.545   6.471  16.686  0.00  0.00    +0.000 OA
ATOM      2  C   UNL     1       6.788   5.627  16.254  0.00  0.00    +0.000 C 
ATOM      3  C   UNL     1       5.674   4.953  16.999  0.00  0.00    +0.000 C 
ATOM      4  C   UNL     1       5.443   5.178  18.300  0.00  0.00    +0.000 C 
ATOM      5  C   UNL     1       4.958   4.030  16.042  0.00  0.00    +0.000 C 
ATOM      6  C   UNL     1       5.728   4.172  14.766  0.00  0.00    +0.000 A 
ATOM      7  C   UNL     1       5.511   3.518  13.565  0.00  0.00    +0.000 A 
ATOM      8  C   UNL     1       6.367   3.788  12.496  0.00  0.00    +0.000 A 
ATOM      9  C   UNL     1       7.430   4.699  12.637  0.00  0.00    +0.000 A 
ATOM     10  C   UNL     1       7.644   5.361  13.849  0.00  0.00    +0.000 A 
ATOM     11  C   UNL     1       6.778   5.082  14.892  0.00  0.00    +0.000 A 
ENDROOT
BRANCH   4  12
ATOM     12  C   UNL     1       4.366   4.498  19.030  0.00  0.00    +0.000 A 
ATOM     13  C   UNL     1       4.612   3.196  19.489  0.00  0.00    +0.000 A 
ATOM     14  C   UNL     1       3.671   2.521  20.274  0.00  0.00    +0.000 A 
ATOM     15  C   UNL     1       2.472   3.140  20.626  0.00  0.00    +0.000 A 
ATOM     16  C   UNL     1       2.196   4.428  20.172  0.00  0.00    +0.000 A 
ATOM     17  C   UNL     1       3.136   5.089  19.366  0.00  0.00    +0.000 A 
BRANCH  17  18
ATOM     18  N   UNL     1       2.787   6.412  18.879  0.00  0.00    +0.000 N 
ATOM     19  O   UNL     1       2.629   6.548  17.659  0.00  0.00    +0.000 OA
ATOM     20  O   UNL     1       2.629   7.299  19.732  0.00  0.00    +0.000 OA
ENDBRANCH  17  18
ENDBRANCH   4  12
TORSDOF 2
ENDMDL
MODEL 7
REMARK VINA RESULT:      -7.5      3.609      6.442
REMARK  Name = 
REMARK  2 active torsions:
REMARK  status: ('A' for Active; 'I' for Inactive)
REMARK    1  A    between atoms: C_4  and  C_5
REMARK    2  A    between atoms: C_10  and  N_11
REMARK                            x       y       z     vdW  Elec       q    Type
REMARK                         _______ _______ _______ _____ _____    ______ ____
ROOT
ATOM      1  O   UNL     1       2.117   9.323  17.406  0.00  0.00    +0.000 OA
ATOM      2  C   UNL     1       1.900   8.734  18.445  0.00  0.00    +0.000 C 
ATOM      3  C   UNL     1       2.154   7.282  18.725  0.00  0.00    +0.000 C 
ATOM      4  C   UNL     1       2.599   6.438  17.782  0.00  0.00    +0.000 C 
ATOM      5  C   UNL     1       1.801   7.011  20.166  0.00  0.00    +0.000 C 
ATOM      6  C   UNL     1       1.301   8.331  20.666  0.00  0.00    +0.000 A 
ATOM      7  C   UNL     1       0.818   8.636  21.927  0.00  0.00    +0.000 A 
ATOM      8  C   UNL     1       0.383   9.938  22.177  0.00  0.00    +0.000 A 
ATOM      9  C   UNL     1       0.429  10.919  21.168  0.00  0.00    +0.000 A 
ATOM     10  C   UNL     1       0.923  10.610  19.898  0.00  0.00    +0.000 A 
ATOM     11  C   UNL     1       1.354   9.314  19.677  0.00  0.00    +0.000 A 
ENDROOT
BRANCH   4  12
ATOM     12  C   UNL     1       2.825   5.014  18.055  0.00  0.00    +0.000 A 
ATOM     13  C   UNL     1       1.724   4.151  17.956  0.00  0.00    +0.000 A 
ATOM     14  C   UNL     1       1.878   2.768  18.107  0.00  0.00    +0.000 A 
ATOM     15  C   UNL     1       3.139   2.221  18.346  0.00  0.00    +0.000 A 
ATOM     16  C   UNL     1       4.247   3.057  18.463  0.00  0.00    +0.000 A 
ATOM     17  C   UNL     1       4.079   4.445  18.333  0.00  0.00    +0.000 A 
BRANCH  17  18
ATOM     18  N   UNL     1       5.254   5.280  18.506  0.00  0.00    +0.000 N 
ATOM     19  O   UNL     1       5.656   5.468  19.662  0.00  0.00    +0.000 OA
ATOM     20  O   UNL     1       5.795   5.707  17.475  0.00  0.00    +0.000 OA
ENDBRANCH  17  18
ENDBRANCH   4  12
TORSDOF 2
ENDMDL
MODEL 8
REMARK VINA RESULT:      -7.3      2.011      6.355
REMARK  Name = 
REMARK  2 active torsions:
REMARK  status: ('A' for Active; 'I' for Inactive)
REMARK    1  A    between atoms: C_4  and  C_5
REMARK    2  A    between atoms: C_10  and  N_11
REMARK                            x       y       z     vdW  Elec       q    Type
REMARK                         _______ _______ _______ _____ _____    ______ ____
ROOT
ATOM      1  O   UNL     1       3.678   2.517  18.317  0.00  0.00    +0.000 OA
ATOM      2  C   UNL     1       3.784   3.670  17.953  0.00  0.00    +0.000 C 
ATOM      3  C   UNL     1       4.550   4.170  16.764  0.00  0.00    +0.000 C 
ATOM      4  C   UNL     1       5.286   3.357  15.993  0.00  0.00    +0.000 C 
ATOM      5  C   UNL     1       4.342   5.661  16.662  0.00  0.00    +0.000 C 
ATOM      6  C   UNL     1       3.485   5.983  17.847  0.00  0.00    +0.000 A 
ATOM      7  C   UNL     1       3.019   7.225  18.246  0.00  0.00    +0.000 A 
ATOM      8  C   UNL     1       2.241   7.303  19.403  0.00  0.00    +0.000 A 
ATOM      9  C   UNL     1       1.941   6.148  20.149  0.00  0.00    +0.000 A 
ATOM     10  C   UNL     1       2.409   4.895  19.740  0.00  0.00    +0.000 A 
ATOM     11  C   UNL     1       3.172   4.843  18.587  0.00  0.00    +0.000 A 
ENDROOT
BRANCH   4  12
ATOM     12  C   UNL     1       6.052   3.854  14.843  0.00  0.00    +0.000 A 
ATOM     13  C   UNL     1       5.637   3.457  13.564  0.00  0.00    +0.000 A 
ATOM     14  C   UNL     1       6.256   3.965  12.417  0.00  0.00    +0.000 A 
ATOM     15  C   UNL     1       7.294   4.890  12.527  0.00  0.00    +0.000 A 
ATOM     16  C   UNL     1       7.736   5.291  13.786  0.00  0.00    +0.000 A 
ATOM     17  C   UNL     1       7.124   4.758  14.932  0.00  0.00    +0.000 A 
BRANCH  17  18
ATOM     18  N   UNL     1       7.646   5.171  16.223  0.00  0.00    +0.000 N 
ATOM     19  O   UNL     1       7.575   6.373  16.510  0.00  0.00    +0.000 OA
ATOM     20  O   UNL     1       8.084   4.277  16.962  0.00  0.00    +0.000 OA
ENDBRANCH  17  18
ENDBRANCH   4  12
TORSDOF 2
ENDMDL
MODEL 9
REMARK VINA RESULT:      -7.3      1.399      1.745
REMARK  Name = 
REMARK  2 active torsions:
REMARK  status: ('A' for Active; 'I' for Inactive)
REMARK    1  A    between atoms: C_4  and  C_5
REMARK    2  A    between atoms: C_10  and  N_11
REMARK                            x       y       z     vdW  Elec       q    Type
REMARK                         _______ _______ _______ _____ _____    ______ ____
ROOT
ATOM      1  O   UNL     1       7.089   6.379  16.394  0.00  0.00    +0.000 OA
ATOM      2  C   UNL     1       6.425   5.535  15.828  0.00  0.00    +0.000 C 
ATOM      3  C   UNL     1       5.200   4.851  16.359  0.00  0.00    +0.000 C 
ATOM      4  C   UNL     1       4.741   5.065  17.600  0.00  0.00    +0.000 C 
ATOM      5  C   UNL     1       4.670   3.934  15.285  0.00  0.00    +0.000 C 
ATOM      6  C   UNL     1       5.653   4.087  14.166  0.00  0.00    +0.000 A 
ATOM      7  C   UNL     1       5.655   3.442  12.941  0.00  0.00    +0.000 A 
ATOM      8  C   UNL     1       6.686   3.723  12.043  0.00  0.00    +0.000 A 
ATOM      9  C   UNL     1       7.703   4.637  12.376  0.00  0.00    +0.000 A 
ATOM     10  C   UNL     1       7.695   5.290  13.612  0.00  0.00    +0.000 A 
ATOM     11  C   UNL     1       6.660   5.001  14.482  0.00  0.00    +0.000 A 
ENDROOT
BRANCH   4  12
ATOM     12  C   UNL     1       3.555   4.377  18.123  0.00  0.00    +0.000 A 
ATOM     13  C   UNL     1       2.308   4.734  17.592  0.00  0.00    +0.000 A 
ATOM     14  C   UNL     1       1.143   4.057  17.970  0.00  0.00    +0.000 A 
ATOM     15  C   UNL     1       1.206   2.999  18.877  0.00  0.00    +0.000 A 
ATOM     16  C   UNL     1       2.431   2.633  19.432  0.00  0.00    +0.000 A 
ATOM     17  C   UNL     1       3.590   3.334  19.064  0.00  0.00    +0.000 A 
BRANCH  17  18
ATOM     18  N   UNL     1       4.837   2.946  19.700  0.00  0.00    +0.000 N 
ATOM     19  O   UNL     1       4.907   1.801  20.167  0.00  0.00    +0.000 OA
ATOM     20  O   UNL     1       5.756   3.778  19.687  0.00  0.00    +0.000 OA
ENDBRANCH  17  18
ENDBRANCH   4  12
TORSDOF 2
ENDMDL
