MODEL 1
REMARK VINA RESULT:      -8.1      0.000      0.000
REMARK  Name = 
REMARK  9 active torsions:
REMARK  status: ('A' for Active; 'I' for Inactive)
REMARK    1  A    between atoms: C_1  and  O_2
REMARK    2  A    between atoms: O_2  and  C_3
REMARK    3  A    between atoms: C_8  and  C_9
REMARK    4  A    between atoms: C_13  and  O_14
REMARK    5  A    between atoms: O_14  and  C_15
REMARK    6  A    between atoms: C_15  and  C_16
REMARK    7  A    between atoms: C_16  and  O_17
REMARK    8  A    between atoms: C_16  and  C_18
REMARK    9  A    between atoms: C_18  and  N_19
REMARK                            x       y       z     vdW  Elec       q    Type
REMARK                         _______ _______ _______ _____ _____    ______ ____
ROOT
ATOM      1  O   UNL     1       3.020   6.662  17.715  0.00  0.00    +0.000 OA
ENDROOT
BRANCH   1   6
ATOM      2  C   UNL     1       1.209   9.584  19.232  0.00  0.00    +0.000 A 
ATOM      3  C   UNL     1       1.037   9.035  20.516  0.00  0.00    +0.000 A 
ATOM      4  C   UNL     1       1.497   7.751  20.831  0.00  0.00    +0.000 A 
ATOM      5  C   UNL     1       2.159   6.987  19.868  0.00  0.00    +0.000 A 
ATOM      6  C   UNL     1       2.358   7.500  18.586  0.00  0.00    +0.000 A 
ATOM      7  C   UNL     1       1.882   8.785  18.284  0.00  0.00    +0.000 A 
BRANCH   2  13
ATOM      8  C   UNL     1      -0.711  11.135  18.496  0.00  0.00    +0.000 A 
ATOM      9  C   UNL     1      -1.178  12.437  18.242  0.00  0.00    +0.000 A 
ATOM     10  C   UNL     1      -0.320  13.531  18.301  0.00  0.00    +0.000 A 
ATOM     11  C   UNL     1       1.011  13.339  18.637  0.00  0.00    +0.000 A 
ATOM     12  C   UNL     1       1.476  12.055  18.932  0.00  0.00    +0.000 A 
ATOM     13  C   UNL     1       0.639  10.918  18.877  0.00  0.00    +0.000 A 
BRANCH   8  15
ATOM     14  C   UNL     1      -2.279   9.888  17.217  0.00  0.00    +0.000 C 
ATOM     15  O   UNL     1      -1.546  10.042  18.429  0.00  0.00    +0.000 OA
ENDBRANCH   8  15
ENDBRANCH   2  13
ENDBRANCH   1   6
BRANCH   1  16
ATOM     16  C   UNL     1       4.300   7.129  17.267  0.00  0.00    +0.000 C 
BRANCH  16  17
ATOM     17  C   UNL     1       5.097   6.010  16.584  0.00  0.00    +0.000 C 
BRANCH  17  18
ATOM     18  O   UNL     1       6.076   6.589  15.704  0.00  0.00    +0.000 OA
ATOM     19  H   UNL     1       5.630   7.331  15.252  0.00  0.00    +0.000 HD
ENDBRANCH  17  18
BRANCH  17  20
ATOM     20  C   UNL     1       5.823   5.055  17.549  0.00  0.00    +0.000 C 
BRANCH  20  21
ATOM     21  N   UNL     1       5.113   3.836  17.964  0.00  0.00    +0.000 NA
ATOM     22  C   UNL     1       3.993   3.593  17.038  0.00  0.00    +0.000 C 
ATOM     23  C   UNL     1       3.256   2.315  17.427  0.00  0.00    +0.000 C 
ATOM     24  C   UNL     1       2.554   2.624  18.716  0.00  0.00    +0.000 A 
ATOM     25  C   UNL     1       1.218   2.272  18.921  0.00  0.00    +0.000 A 
ATOM     26  C   UNL     1       0.563   2.695  20.071  0.00  0.00    +0.000 A 
ATOM     27  C   UNL     1       1.259   3.421  21.043  0.00  0.00    +0.000 A 
ATOM     28  C   UNL     1       2.606   3.751  20.852  0.00  0.00    +0.000 A 
ATOM     29  C   UNL     1       3.261   3.382  19.671  0.00  0.00    +0.000 A 
ATOM     30  C   UNL     1       4.702   3.805  19.392  0.00  0.00    +0.000 C 
ENDBRANCH  20  21
ENDBRANCH  17  20
ENDBRANCH  16  17
ENDBRANCH   1  16
TORSDOF 8
ENDMDL
MODEL 2
REMARK VINA RESULT:      -8.0      1.258      1.914
REMARK  Name = 
REMARK  9 active torsions:
REMARK  status: ('A' for Active; 'I' for Inactive)
REMARK    1  A    between atoms: C_1  and  O_2
REMARK    2  A    between atoms: O_2  and  C_3
REMARK    3  A    between atoms: C_8  and  C_9
REMARK    4  A    between atoms: C_13  and  O_14
REMARK    5  A    between atoms: O_14  and  C_15
REMARK    6  A    between atoms: C_15  and  C_16
REMARK    7  A    between atoms: C_16  and  O_17
REMARK    8  A    between atoms: C_16  and  C_18
REMARK    9  A    between atoms: C_18  and  N_19
REMARK                            x       y       z     vdW  Elec       q    Type
REMARK                         _______ _______ _______ _____ _____    ______ ____
ROOT
ATOM      1  O   UNL     1       3.078   7.670  17.214  0.00  0.00    +0.000 OA
ENDROOT
BRANCH   1   6
ATOM      2  C   UNL     1       0.844   9.536  19.590  0.00  0.00    +0.000 A 
ATOM      3  C   UNL     1       0.968   8.651  20.677  0.00  0.00    +0.000 A 
ATOM      4  C   UNL     1       1.750   7.492  20.593  0.00  0.00    +0.000 A 
ATOM      5  C   UNL     1       2.445   7.199  19.418  0.00  0.00    +0.000 A 
ATOM      6  C   UNL     1       2.355   8.057  18.321  0.00  0.00    +0.000 A 
ATOM      7  C   UNL     1       1.559   9.208  18.419  0.00  0.00    +0.000 A 
BRANCH   2  13
ATOM      8  C   UNL     1       0.271  11.947  20.291  0.00  0.00    +0.000 A 
ATOM      9  C   UNL     1      -0.619  13.035  20.247  0.00  0.00    +0.000 A 
ATOM     10  C   UNL     1      -1.864  12.919  19.634  0.00  0.00    +0.000 A 
ATOM     11  C   UNL     1      -2.224  11.721  19.037  0.00  0.00    +0.000 A 
ATOM     12  C   UNL     1      -1.330  10.647  19.039  0.00  0.00    +0.000 A 
ATOM     13  C   UNL     1      -0.061  10.722  19.656  0.00  0.00    +0.000 A 
BRANCH   8  15
ATOM     14  C   UNL     1       2.200  13.269  20.714  0.00  0.00    +0.000 C 
ATOM     15  O   UNL     1       1.499  12.044  20.904  0.00  0.00    +0.000 OA
ENDBRANCH   8  15
ENDBRANCH   2  13
ENDBRANCH   1   6
BRANCH   1  16
ATOM     16  C   UNL     1       4.407   7.202  17.481  0.00  0.00    +0.000 C 
BRANCH  16  17
ATOM     17  C   UNL     1       4.826   6.111  16.487  0.00  0.00    +0.000 C 
BRANCH  17  18
ATOM     18  O   UNL     1       5.611   6.698  15.435  0.00  0.00    +0.000 OA
ATOM     19  H   UNL     1       6.253   7.289  15.874  0.00  0.00    +0.000 HD
ENDBRANCH  17  18
BRANCH  17  20
ATOM     20  C   UNL     1       5.637   4.955  17.103  0.00  0.00    +0.000 C 
BRANCH  20  21
ATOM     21  N   UNL     1       4.890   3.792  17.607  0.00  0.00    +0.000 NA
ATOM     22  C   UNL     1       3.640   3.654  16.840  0.00  0.00    +0.000 C 
ATOM     23  C   UNL     1       2.859   2.434  17.321  0.00  0.00    +0.000 C 
ATOM     24  C   UNL     1       2.364   2.782  18.693  0.00  0.00    +0.000 A 
ATOM     25  C   UNL     1       1.042   2.537  19.075  0.00  0.00    +0.000 A 
ATOM     26  C   UNL     1       0.585   2.997  20.304  0.00  0.00    +0.000 A 
ATOM     27  C   UNL     1       1.462   3.651  21.175  0.00  0.00    +0.000 A 
ATOM     28  C   UNL     1       2.794   3.873  20.805  0.00  0.00    +0.000 A 
ATOM     29  C   UNL     1       3.252   3.468  19.546  0.00  0.00    +0.000 A 
ATOM     30  C   UNL     1       4.673   3.775  19.077  0.00  0.00    +0.000 C 
ENDBRANCH  20  21
ENDBRANCH  17  20
ENDBRANCH  16  17
ENDBRANCH   1  16
TORSDOF 8
ENDMDL
MODEL 3
REMARK VINA RESULT:      -7.9      5.792      6.920
REMARK  Name = 
REMARK  9 active torsions:
REMARK  status: ('A' for Active; 'I' for Inactive)
REMARK    1  A    between atoms: C_1  and  O_2
REMARK    2  A    between atoms: O_2  and  C_3
REMARK    3  A    between atoms: C_8  and  C_9
REMARK    4  A    between atoms: C_13  and  O_14
REMARK    5  A    between atoms: O_14  and  C_15
REMARK    6  A    between atoms: C_15  and  C_16
REMARK    7  A    between atoms: C_16  and  O_17
REMARK    8  A    between atoms: C_16  and  C_18
REMARK    9  A    between atoms: C_18  and  N_19
REMARK                            x       y       z     vdW  Elec       q    Type
REMARK                         _______ _______ _______ _____ _____    ______ ____
ROOT
ATOM      1  O   UNL     1       7.768   9.341  17.625  0.00  0.00    +0.000 OA
ENDROOT
BRANCH   1   6
ATOM      2  C   UNL     1       9.601  12.517  18.447  0.00  0.00    +0.000 A 
ATOM      3  C   UNL     1      10.204  12.067  19.636  0.00  0.00    +0.000 A 
ATOM      4  C   UNL     1       9.985  10.773  20.125  0.00  0.00    +0.000 A 
ATOM      5  C   UNL     1       9.166   9.887  19.422  0.00  0.00    +0.000 A 
ATOM      6  C   UNL     1       8.557  10.293  18.234  0.00  0.00    +0.000 A 
ATOM      7  C   UNL     1       8.778  11.596  17.763  0.00  0.00    +0.000 A 
BRANCH   2  13
ATOM      8  C   UNL     1       8.816  14.957  18.190  0.00  0.00    +0.000 A 
ATOM      9  C   UNL     1       9.086  16.271  17.770  0.00  0.00    +0.000 A 
ATOM     10  C   UNL     1      10.261  16.579  17.089  0.00  0.00    +0.000 A 
ATOM     11  C   UNL     1      11.189  15.581  16.840  0.00  0.00    +0.000 A 
ATOM     12  C   UNL     1      10.950  14.280  17.289  0.00  0.00    +0.000 A 
ATOM     13  C   UNL     1       9.767  13.925  17.978  0.00  0.00    +0.000 A 
BRANCH   8  15
ATOM     14  C   UNL     1       7.135  15.632  19.729  0.00  0.00    +0.000 C 
ATOM     15  O   UNL     1       7.653  14.635  18.853  0.00  0.00    +0.000 OA
ENDBRANCH   8  15
ENDBRANCH   2  13
ENDBRANCH   1   6
BRANCH   1  16
ATOM     16  C   UNL     1       8.002   7.990  18.044  0.00  0.00    +0.000 C 
BRANCH  16  17
ATOM     17  C   UNL     1       6.966   7.030  17.445  0.00  0.00    +0.000 C 
BRANCH  17  18
ATOM     18  O   UNL     1       7.501   6.435  16.249  0.00  0.00    +0.000 OA
ATOM     19  H   UNL     1       7.445   7.121  15.557  0.00  0.00    +0.000 HD
ENDBRANCH  17  18
BRANCH  17  20
ATOM     20  C   UNL     1       6.517   5.897  18.386  0.00  0.00    +0.000 C 
BRANCH  20  21
ATOM     21  N   UNL     1       5.251   5.214  18.075  0.00  0.00    +0.000 NA
ATOM     22  C   UNL     1       4.136   6.156  18.275  0.00  0.00    +0.000 C 
ATOM     23  C   UNL     1       2.811   5.484  17.928  0.00  0.00    +0.000 C 
ATOM     24  C   UNL     1       2.576   4.466  19.005  0.00  0.00    +0.000 A 
ATOM     25  C   UNL     1       1.333   4.340  19.631  0.00  0.00    +0.000 A 
ATOM     26  C   UNL     1       1.192   3.483  20.715  0.00  0.00    +0.000 A 
ATOM     27  C   UNL     1       2.277   2.708  21.138  0.00  0.00    +0.000 A 
ATOM     28  C   UNL     1       3.516   2.812  20.494  0.00  0.00    +0.000 A 
ATOM     29  C   UNL     1       3.688   3.716  19.438  0.00  0.00    +0.000 A 
ATOM     30  C   UNL     1       5.048   3.919  18.775  0.00  0.00    +0.000 C 
ENDBRANCH  20  21
ENDBRANCH  17  20
ENDBRANCH  16  17
ENDBRANCH   1  16
TORSDOF 8
ENDMDL
MODEL 4
REMARK VINA RESULT:      -7.9      2.641      8.483
REMARK  Name = 
REMARK  9 active torsions:
REMARK  status: ('A' for Active; 'I' for Inactive)
REMARK    1  A    between atoms: C_1  and  O_2
REMARK    2  A    between atoms: O_2  and  C_3
REMARK    3  A    between atoms: C_8  and  C_9
REMARK    4  A    between atoms: C_13  and  O_14
REMARK    5  A    between atoms: O_14  and  C_15
REMARK    6  A    between atoms: C_15  and  C_16
REMARK    7  A    between atoms: C_16  and  O_17
REMARK    8  A    between atoms: C_16  and  C_18
REMARK    9  A    between atoms: C_18  and  N_19
REMARK                            x       y       z     vdW  Elec       q    Type
REMARK                         _______ _______ _______ _____ _____    ______ ____
ROOT
ATOM      1  O   UNL     1       1.300   6.297  20.629  0.00  0.00    +0.000 OA
ENDROOT
BRANCH   1   6
ATOM      2  C   UNL     1       3.942   4.280  18.877  0.00  0.00    +0.000 A 
ATOM      3  C   UNL     1       3.850   3.132  19.685  0.00  0.00    +0.000 A 
ATOM      4  C   UNL     1       2.957   3.063  20.761  0.00  0.00    +0.000 A 
ATOM      5  C   UNL     1       2.116   4.142  21.045  0.00  0.00    +0.000 A 
ATOM      6  C   UNL     1       2.170   5.295  20.260  0.00  0.00    +0.000 A 
ATOM      7  C   UNL     1       3.078   5.351  19.192  0.00  0.00    +0.000 A 
BRANCH   2  13
ATOM      8  C   UNL     1       6.343   4.600  18.003  0.00  0.00    +0.000 A 
ATOM      9  C   UNL     1       7.239   4.616  16.918  0.00  0.00    +0.000 A 
ATOM     10  C   UNL     1       6.784   4.475  15.610  0.00  0.00    +0.000 A 
ATOM     11  C   UNL     1       5.430   4.294  15.372  0.00  0.00    +0.000 A 
ATOM     12  C   UNL     1       4.537   4.236  16.445  0.00  0.00    +0.000 A 
ATOM     13  C   UNL     1       4.958   4.381  17.787  0.00  0.00    +0.000 A 
BRANCH   8  15
ATOM     14  C   UNL     1       7.742   5.776  19.522  0.00  0.00    +0.000 C 
ATOM     15  O   UNL     1       6.778   4.751  19.300  0.00  0.00    +0.000 OA
ENDBRANCH   8  15
ENDBRANCH   2  13
ENDBRANCH   1   6
BRANCH   1  16
ATOM     16  C   UNL     1       1.831   7.627  20.565  0.00  0.00    +0.000 C 
BRANCH  16  17
ATOM     17  C   UNL     1       0.776   8.671  20.953  0.00  0.00    +0.000 C 
BRANCH  17  18
ATOM     18  O   UNL     1       0.363   8.452  22.313  0.00  0.00    +0.000 OA
ATOM     19  H   UNL     1       1.080   7.939  22.734  0.00  0.00    +0.000 HD
ENDBRANCH  17  18
BRANCH  17  20
ATOM     20  C   UNL     1       1.238  10.134  20.822  0.00  0.00    +0.000 C 
BRANCH  20  21
ATOM     21  N   UNL     1       0.418  11.037  19.999  0.00  0.00    +0.000 NA
ATOM     22  C   UNL     1      -0.810  11.378  20.739  0.00  0.00    +0.000 C 
ATOM     23  C   UNL     1      -1.666  12.341  19.921  0.00  0.00    +0.000 C 
ATOM     24  C   UNL     1      -2.191  11.540  18.767  0.00  0.00    +0.000 A 
ATOM     25  C   UNL     1      -3.536  11.598  18.391  0.00  0.00    +0.000 A 
ATOM     26  C   UNL     1      -4.013  10.741  17.407  0.00  0.00    +0.000 A 
ATOM     27  C   UNL     1      -3.136   9.866  16.759  0.00  0.00    +0.000 A 
ATOM     28  C   UNL     1      -1.782   9.826  17.115  0.00  0.00    +0.000 A 
ATOM     29  C   UNL     1      -1.301  10.642  18.145  0.00  0.00    +0.000 A 
ATOM     30  C   UNL     1       0.149  10.557  18.619  0.00  0.00    +0.000 C 
ENDBRANCH  20  21
ENDBRANCH  17  20
ENDBRANCH  16  17
ENDBRANCH   1  16
TORSDOF 8
ENDMDL
MODEL 5
REMARK VINA RESULT:      -7.8      2.812      8.643
REMARK  Name = 
REMARK  9 active torsions:
REMARK  status: ('A' for Active; 'I' for Inactive)
REMARK    1  A    between atoms: C_1  and  O_2
REMARK    2  A    between atoms: O_2  and  C_3
REMARK    3  A    between atoms: C_8  and  C_9
REMARK    4  A    between atoms: C_13  and  O_14
REMARK    5  A    between atoms: O_14  and  C_15
REMARK    6  A    between atoms: C_15  and  C_16
REMARK    7  A    between atoms: C_16  and  O_17
REMARK    8  A    between atoms: C_16  and  C_18
REMARK    9  A    between atoms: C_18  and  N_19
REMARK                            x       y       z     vdW  Elec       q    Type
REMARK                         _______ _______ _______ _____ _____    ______ ____
ROOT
ATOM      1  O   UNL     1       0.826   8.202  21.477  0.00  0.00    +0.000 OA
ENDROOT
BRANCH   1   6
ATOM      2  C   UNL     1       2.531   6.022  18.936  0.00  0.00    +0.000 A 
ATOM      3  C   UNL     1       2.731   7.016  17.960  0.00  0.00    +0.000 A 
ATOM      4  C   UNL     1       2.299   8.333  18.156  0.00  0.00    +0.000 A 
ATOM      5  C   UNL     1       1.667   8.694  19.348  0.00  0.00    +0.000 A 
ATOM      6  C   UNL     1       1.459   7.739  20.344  0.00  0.00    +0.000 A 
ATOM      7  C   UNL     1       1.890   6.421  20.127  0.00  0.00    +0.000 A 
BRANCH   2  13
ATOM      8  C   UNL     1       4.163   4.032  19.050  0.00  0.00    +0.000 A 
ATOM      9  C   UNL     1       4.413   2.666  18.832  0.00  0.00    +0.000 A 
ATOM     10  C   UNL     1       3.471   1.855  18.204  0.00  0.00    +0.000 A 
ATOM     11  C   UNL     1       2.258   2.396  17.807  0.00  0.00    +0.000 A 
ATOM     12  C   UNL     1       1.983   3.743  18.055  0.00  0.00    +0.000 A 
ATOM     13  C   UNL     1       2.915   4.601  18.684  0.00  0.00    +0.000 A 
BRANCH   8  15
ATOM     14  C   UNL     1       6.170   5.286  18.841  0.00  0.00    +0.000 C 
ATOM     15  O   UNL     1       5.089   4.848  19.659  0.00  0.00    +0.000 OA
ENDBRANCH   8  15
ENDBRANCH   2  13
ENDBRANCH   1   6
BRANCH   1  16
ATOM     16  C   UNL     1       1.240   9.499  21.925  0.00  0.00    +0.000 C 
BRANCH  16  17
ATOM     17  C   UNL     1       0.038  10.429  22.137  0.00  0.00    +0.000 C 
BRANCH  17  18
ATOM     18  O   UNL     1      -0.285  10.482  23.538  0.00  0.00    +0.000 OA
ATOM     19  H   UNL     1      -0.741   9.642  23.742  0.00  0.00    +0.000 HD
ENDBRANCH  17  18
BRANCH  17  20
ATOM     20  C   UNL     1       0.242  11.871  21.637  0.00  0.00    +0.000 C 
BRANCH  20  21
ATOM     21  N   UNL     1      -0.619  12.340  20.540  0.00  0.00    +0.000 NA
ATOM     22  C   UNL     1      -2.029  12.220  20.951  0.00  0.00    +0.000 C 
ATOM     23  C   UNL     1      -2.945  12.731  19.842  0.00  0.00    +0.000 C 
ATOM     24  C   UNL     1      -2.840  11.727  18.732  0.00  0.00    +0.000 A 
ATOM     25  C   UNL     1      -3.977  11.241  18.080  0.00  0.00    +0.000 A 
ATOM     26  C   UNL     1      -3.851  10.214  17.153  0.00  0.00    +0.000 A 
ATOM     27  C   UNL     1      -2.585   9.712  16.835  0.00  0.00    +0.000 A 
ATOM     28  C   UNL     1      -1.443  10.218  17.467  0.00  0.00    +0.000 A 
ATOM     29  C   UNL     1      -1.561  11.211  18.446  0.00  0.00    +0.000 A 
ATOM     30  C   UNL     1      -0.345  11.719  19.218  0.00  0.00    +0.000 C 
ENDBRANCH  20  21
ENDBRANCH  17  20
ENDBRANCH  16  17
ENDBRANCH   1  16
TORSDOF 8
ENDMDL
MODEL 6
REMARK VINA RESULT:      -7.7      5.774      6.823
REMARK  Name = 
REMARK  9 active torsions:
REMARK  status: ('A' for Active; 'I' for Inactive)
REMARK    1  A    between atoms: C_1  and  O_2
REMARK    2  A    between atoms: O_2  and  C_3
REMARK    3  A    between atoms: C_8  and  C_9
REMARK    4  A    between atoms: C_13  and  O_14
REMARK    5  A    between atoms: O_14  and  C_15
REMARK    6  A    between atoms: C_15  and  C_16
REMARK    7  A    between atoms: C_16  and  O_17
REMARK    8  A    between atoms: C_16  and  C_18
REMARK    9  A    between atoms: C_18  and  N_19
REMARK                            x       y       z     vdW  Elec       q    Type
REMARK                         _______ _______ _______ _____ _____    ______ ____
ROOT
ATOM      1  O   UNL     1       7.944   9.388  17.478  0.00  0.00    +0.000 OA
ENDROOT
BRANCH   1   6
ATOM      2  C   UNL     1       9.543  12.628  18.506  0.00  0.00    +0.000 A 
ATOM      3  C   UNL     1      10.037  12.193  19.750  0.00  0.00    +0.000 A 
ATOM      4  C   UNL     1       9.823  10.886  20.206  0.00  0.00    +0.000 A 
ATOM      5  C   UNL     1       9.120   9.974  19.416  0.00  0.00    +0.000 A 
ATOM      6  C   UNL     1       8.623  10.366  18.172  0.00  0.00    +0.000 A 
ATOM      7  C   UNL     1       8.837  11.681  17.735  0.00  0.00    +0.000 A 
BRANCH   2  13
ATOM      8  C   UNL     1       8.733  15.064  18.289  0.00  0.00    +0.000 A 
ATOM      9  C   UNL     1       8.993  16.389  17.896  0.00  0.00    +0.000 A 
ATOM     10  C   UNL     1      10.170  16.723  17.232  0.00  0.00    +0.000 A 
ATOM     11  C   UNL     1      11.112  15.740  16.972  0.00  0.00    +0.000 A 
ATOM     12  C   UNL     1      10.882  14.428  17.395  0.00  0.00    +0.000 A 
ATOM     13  C   UNL     1       9.698  14.047  18.066  0.00  0.00    +0.000 A 
BRANCH   8  15
ATOM     14  C   UNL     1       6.395  15.413  18.527  0.00  0.00    +0.000 C 
ATOM     15  O   UNL     1       7.569  14.717  18.936  0.00  0.00    +0.000 OA
ENDBRANCH   8  15
ENDBRANCH   2  13
ENDBRANCH   1   6
BRANCH   1  16
ATOM     16  C   UNL     1       7.894   8.104  18.115  0.00  0.00    +0.000 C 
BRANCH  16  17
ATOM     17  C   UNL     1       7.181   7.069  17.234  0.00  0.00    +0.000 C 
BRANCH  17  18
ATOM     18  O   UNL     1       7.832   5.794  17.373  0.00  0.00    +0.000 OA
ATOM     19  H   UNL     1       7.583   5.458  18.256  0.00  0.00    +0.000 HD
ENDBRANCH  17  18
BRANCH  17  20
ATOM     20  C   UNL     1       5.685   6.881  17.544  0.00  0.00    +0.000 C 
BRANCH  20  21
ATOM     21  N   UNL     1       5.234   5.537  17.939  0.00  0.00    +0.000 NA
ATOM     22  C   UNL     1       4.362   4.994  16.884  0.00  0.00    +0.000 C 
ATOM     23  C   UNL     1       3.905   3.585  17.253  0.00  0.00    +0.000 C 
ATOM     24  C   UNL     1       2.960   3.752  18.406  0.00  0.00    +0.000 A 
ATOM     25  C   UNL     1       1.733   3.084  18.444  0.00  0.00    +0.000 A 
ATOM     26  C   UNL     1       0.827   3.368  19.459  0.00  0.00    +0.000 A 
ATOM     27  C   UNL     1       1.169   4.276  20.466  0.00  0.00    +0.000 A 
ATOM     28  C   UNL     1       2.410   4.925  20.444  0.00  0.00    +0.000 A 
ATOM     29  C   UNL     1       3.308   4.692  19.396  0.00  0.00    +0.000 A 
ATOM     30  C   UNL     1       4.629   5.451  19.293  0.00  0.00    +0.000 C 
ENDBRANCH  20  21
ENDBRANCH  17  20
ENDBRANCH  16  17
ENDBRANCH   1  16
TORSDOF 8
ENDMDL
MODEL 7
REMARK VINA RESULT:      -7.7      2.973      8.486
REMARK  Name = 
REMARK  9 active torsions:
REMARK  status: ('A' for Active; 'I' for Inactive)
REMARK    1  A    between atoms: C_1  and  O_2
REMARK    2  A    between atoms: O_2  and  C_3
REMARK    3  A    between atoms: C_8  and  C_9
REMARK    4  A    between atoms: C_13  and  O_14
REMARK    5  A    between atoms: O_14  and  C_15
REMARK    6  A    between atoms: C_15  and  C_16
REMARK    7  A    between atoms: C_16  and  O_17
REMARK    8  A    between atoms: C_16  and  C_18
REMARK    9  A    between atoms: C_18  and  N_19
REMARK                            x       y       z     vdW  Elec       q    Type
REMARK                         _______ _______ _______ _____ _____    ______ ____
ROOT
ATOM      1  O   UNL     1       1.063   8.242  21.492  0.00  0.00    +0.000 OA
ENDROOT
BRANCH   1   6
ATOM      2  C   UNL     1       2.763   7.122  18.334  0.00  0.00    +0.000 A 
ATOM      3  C   UNL     1       2.446   8.251  17.556  0.00  0.00    +0.000 A 
ATOM      4  C   UNL     1       1.692   9.310  18.075  0.00  0.00    +0.000 A 
ATOM      5  C   UNL     1       1.249   9.273  19.398  0.00  0.00    +0.000 A 
ATOM      6  C   UNL     1       1.551   8.176  20.205  0.00  0.00    +0.000 A 
ATOM      7  C   UNL     1       2.299   7.118  19.667  0.00  0.00    +0.000 A 
BRANCH   2  13
ATOM      8  C   UNL     1       3.005   4.624  17.755  0.00  0.00    +0.000 A 
ATOM      9  C   UNL     1       3.729   3.599  17.121  0.00  0.00    +0.000 A 
ATOM     10  C   UNL     1       4.961   3.854  16.526  0.00  0.00    +0.000 A 
ATOM     11  C   UNL     1       5.474   5.142  16.537  0.00  0.00    +0.000 A 
ATOM     12  C   UNL     1       4.743   6.176  17.128  0.00  0.00    +0.000 A 
ATOM     13  C   UNL     1       3.491   5.957  17.749  0.00  0.00    +0.000 A 
BRANCH   8  15
ATOM     14  C   UNL     1       1.381   3.021  18.420  0.00  0.00    +0.000 C 
ATOM     15  O   UNL     1       1.791   4.384  18.359  0.00  0.00    +0.000 OA
ENDBRANCH   8  15
ENDBRANCH   2  13
ENDBRANCH   1   6
BRANCH   1  16
ATOM     16  C   UNL     1       1.051   9.551  22.077  0.00  0.00    +0.000 C 
BRANCH  16  17
ATOM     17  C   UNL     1      -0.383  10.056  22.290  0.00  0.00    +0.000 C 
BRANCH  17  18
ATOM     18  O   UNL     1      -0.906   9.510  23.514  0.00  0.00    +0.000 OA
ATOM     19  H   UNL     1      -0.479  10.010  24.236  0.00  0.00    +0.000 HD
ENDBRANCH  17  18
BRANCH  17  20
ATOM     20  C   UNL     1      -0.525  11.588  22.348  0.00  0.00    +0.000 C 
BRANCH  20  21
ATOM     21  N   UNL     1      -1.220  12.251  21.233  0.00  0.00    +0.000 NA
ATOM     22  C   UNL     1      -2.667  12.264  21.510  0.00  0.00    +0.000 C 
ATOM     23  C   UNL     1      -3.411  12.976  20.384  0.00  0.00    +0.000 C 
ATOM     24  C   UNL     1      -3.313  12.068  19.193  0.00  0.00    +0.000 A 
ATOM     25  C   UNL     1      -4.429  11.779  18.403  0.00  0.00    +0.000 A 
ATOM     26  C   UNL     1      -4.330  10.830  17.394  0.00  0.00    +0.000 A 
ATOM     27  C   UNL     1      -3.104  10.210  17.136  0.00  0.00    +0.000 A 
ATOM     28  C   UNL     1      -1.977  10.519  17.909  0.00  0.00    +0.000 A 
ATOM     29  C   UNL     1      -2.077  11.430  18.967  0.00  0.00    +0.000 A 
ATOM     30  C   UNL     1      -0.892  11.720  19.885  0.00  0.00    +0.000 C 
ENDBRANCH  20  21
ENDBRANCH  17  20
ENDBRANCH  16  17
ENDBRANCH   1  16
TORSDOF 8
ENDMDL
MODEL 8
REMARK VINA RESULT:      -7.7      6.091      7.317
REMARK  Name = 
REMARK  9 active torsions:
REMARK  status: ('A' for Active; 'I' for Inactive)
REMARK    1  A    between atoms: C_1  and  O_2
REMARK    2  A    between atoms: O_2  and  C_3
REMARK    3  A    between atoms: C_8  and  C_9
REMARK    4  A    between atoms: C_13  and  O_14
REMARK    5  A    between atoms: O_14  and  C_15
REMARK    6  A    between atoms: C_15  and  C_16
REMARK    7  A    between atoms: C_16  and  O_17
REMARK    8  A    between atoms: C_16  and  C_18
REMARK    9  A    between atoms: C_18  and  N_19
REMARK                            x       y       z     vdW  Elec       q    Type
REMARK                         _______ _______ _______ _____ _____    ______ ____
ROOT
ATOM      1  O   UNL     1       7.781   9.630  17.697  0.00  0.00    +0.000 OA
ENDROOT
BRANCH   1   6
ATOM      2  C   UNL     1       9.941  12.607  18.463  0.00  0.00    +0.000 A 
ATOM      3  C   UNL     1      10.468  12.132  19.678  0.00  0.00    +0.000 A 
ATOM      4  C   UNL     1      10.097  10.887  20.201  0.00  0.00    +0.000 A 
ATOM      5  C   UNL     1       9.197  10.076  19.508  0.00  0.00    +0.000 A 
ATOM      6  C   UNL     1       8.659  10.507  18.294  0.00  0.00    +0.000 A 
ATOM      7  C   UNL     1       9.035  11.761  17.789  0.00  0.00    +0.000 A 
BRANCH   2  13
ATOM      8  C   UNL     1       9.366  15.063  17.942  0.00  0.00    +0.000 A 
ATOM      9  C   UNL     1       9.786  16.332  17.506  0.00  0.00    +0.000 A 
ATOM     10  C   UNL     1      11.077  16.535  17.025  0.00  0.00    +0.000 A 
ATOM     11  C   UNL     1      11.970  15.475  16.995  0.00  0.00    +0.000 A 
ATOM     12  C   UNL     1      11.576  14.220  17.465  0.00  0.00    +0.000 A 
ATOM     13  C   UNL     1      10.273  13.971  17.955  0.00  0.00    +0.000 A 
BRANCH   8  15
ATOM     14  C   UNL     1       7.347  16.008  18.765  0.00  0.00    +0.000 C 
ATOM     15  O   UNL     1       8.090  14.846  18.409  0.00  0.00    +0.000 OA
ENDBRANCH   8  15
ENDBRANCH   2  13
ENDBRANCH   1   6
BRANCH   1  16
ATOM     16  C   UNL     1       8.085   8.240  17.875  0.00  0.00    +0.000 C 
BRANCH  16  17
ATOM     17  C   UNL     1       7.087   7.347  17.125  0.00  0.00    +0.000 C 
BRANCH  17  18
ATOM     18  O   UNL     1       7.798   6.520  16.187  0.00  0.00    +0.000 OA
ATOM     19  H   UNL     1       7.929   7.067  15.389  0.00  0.00    +0.000 HD
ENDBRANCH  17  18
BRANCH  17  20
ATOM     20  C   UNL     1       6.238   6.432  18.025  0.00  0.00    +0.000 C 
BRANCH  20  21
ATOM     21  N   UNL     1       4.910   6.033  17.532  0.00  0.00    +0.000 NA
ATOM     22  C   UNL     1       3.895   6.401  18.535  0.00  0.00    +0.000 C 
ATOM     23  C   UNL     1       2.503   6.028  18.034  0.00  0.00    +0.000 C 
ATOM     24  C   UNL     1       2.451   4.528  18.052  0.00  0.00    +0.000 A 
ATOM     25  C   UNL     1       1.357   3.842  18.584  0.00  0.00    +0.000 A 
ATOM     26  C   UNL     1       1.405   2.459  18.707  0.00  0.00    +0.000 A 
ATOM     27  C   UNL     1       2.522   1.756  18.247  0.00  0.00    +0.000 A 
ATOM     28  C   UNL     1       3.609   2.440  17.687  0.00  0.00    +0.000 A 
ATOM     29  C   UNL     1       3.598   3.837  17.612  0.00  0.00    +0.000 A 
ATOM     30  C   UNL     1       4.804   4.618  17.092  0.00  0.00    +0.000 C 
ENDBRANCH  20  21
ENDBRANCH  17  20
ENDBRANCH  16  17
ENDBRANCH   1  16
TORSDOF 8
ENDMDL
MODEL 9
REMARK VINA RESULT:      -7.5      4.122      9.222
REMARK  Name = 
REMARK  9 active torsions:
REMARK  status: ('A' for Active; 'I' for Inactive)
REMARK    1  A    between atoms: C_1  and  O_2
REMARK    2  A    between atoms: O_2  and  C_3
REMARK    3  A    between atoms: C_8  and  C_9
REMARK    4  A    between atoms: C_13  and  O_14
REMARK    5  A    between atoms: O_14  and  C_15
REMARK    6  A    between atoms: C_15  and  C_16
REMARK    7  A    between atoms: C_16  and  O_17
REMARK    8  A    between atoms: C_16  and  C_18
REMARK    9  A    between atoms: C_18  and  N_19
REMARK                            x       y       z     vdW  Elec       q    Type
REMARK                         _______ _______ _______ _____ _____    ______ ____
ROOT
ATOM      1  O   UNL     1       0.794  10.477  18.214  0.00  0.00    +0.000 OA
ENDROOT
BRANCH   1   6
ATOM      2  C   UNL     1       2.569   7.185  18.576  0.00  0.00    +0.000 A 
ATOM      3  C   UNL     1       2.294   6.988  19.942  0.00  0.00    +0.000 A 
ATOM      4  C   UNL     1       1.565   7.924  20.685  0.00  0.00    +0.000 A 
ATOM      5  C   UNL     1       1.076   9.080  20.071  0.00  0.00    +0.000 A 
ATOM      6  C   UNL     1       1.320   9.306  18.716  0.00  0.00    +0.000 A 
ATOM      7  C   UNL     1       2.060   8.363  17.989  0.00  0.00    +0.000 A 
BRANCH   2  13
ATOM      8  C   UNL     1       3.204   4.824  17.763  0.00  0.00    +0.000 A 
ATOM      9  C   UNL     1       4.019   4.005  16.963  0.00  0.00    +0.000 A 
ATOM     10  C   UNL     1       5.089   4.537  16.248  0.00  0.00    +0.000 A 
ATOM     11  C   UNL     1       5.342   5.898  16.307  0.00  0.00    +0.000 A 
ATOM     12  C   UNL     1       4.513   6.728  17.066  0.00  0.00    +0.000 A 
ATOM     13  C   UNL     1       3.421   6.226  17.811  0.00  0.00    +0.000 A 
BRANCH   8  15
ATOM     14  C   UNL     1       1.766   2.976  18.168  0.00  0.00    +0.000 C 
ATOM     15  O   UNL     1       2.150   4.310  18.485  0.00  0.00    +0.000 OA
ENDBRANCH   8  15
ENDBRANCH   2  13
ENDBRANCH   1   6
BRANCH   1  16
ATOM     16  C   UNL     1      -0.637  10.562  18.224  0.00  0.00    +0.000 C 
BRANCH  16  17
ATOM     17  C   UNL     1      -1.111  11.986  18.542  0.00  0.00    +0.000 C 
BRANCH  17  18
ATOM     18  O   UNL     1      -1.124  12.767  17.335  0.00  0.00    +0.000 OA
ATOM     19  H   UNL     1      -1.650  13.565  17.534  0.00  0.00    +0.000 HD
ENDBRANCH  17  18
BRANCH  17  20
ATOM     20  C   UNL     1      -2.509  12.071  19.184  0.00  0.00    +0.000 C 
BRANCH  20  21
ATOM     21  N   UNL     1      -2.635  12.817  20.445  0.00  0.00    +0.000 NA
ATOM     22  C   UNL     1      -2.057  12.016  21.538  0.00  0.00    +0.000 C 
ATOM     23  C   UNL     1      -2.145  12.781  22.855  0.00  0.00    +0.000 C 
ATOM     24  C   UNL     1      -3.602  12.815  23.210  0.00  0.00    +0.000 A 
ATOM     25  C   UNL     1      -4.045  12.518  24.502  0.00  0.00    +0.000 A 
ATOM     26  C   UNL     1      -5.407  12.427  24.758  0.00  0.00    +0.000 A 
ATOM     27  C   UNL     1      -6.328  12.686  23.739  0.00  0.00    +0.000 A 
ATOM     28  C   UNL     1      -5.887  13.010  22.450  0.00  0.00    +0.000 A 
ATOM     29  C   UNL     1      -4.517  13.048  22.164  0.00  0.00    +0.000 A 
ATOM     30  C   UNL     1      -4.004  13.309  20.749  0.00  0.00    +0.000 C 
ENDBRANCH  20  21
ENDBRANCH  17  20
ENDBRANCH  16  17
ENDBRANCH   1  16
TORSDOF 8
ENDMDL
