MODEL 1
REMARK VINA RESULT:      -6.7      0.000      0.000
REMARK  Name = 
REMARK  6 active torsions:
REMARK  status: ('A' for Active; 'I' for Inactive)
REMARK    1  A    between atoms: C_1  and  C_2
REMARK    2  A    between atoms: C_2  and  N_3
REMARK    3  A    between atoms: C_9  and  N_10
REMARK    4  A    between atoms: N_13  and  C_14
REMARK    5  A    between atoms: C_21  and  C_22
REMARK    6  A    between atoms: C_22  and  O_24
REMARK                            x       y       z     vdW  Elec       q    Type
REMARK                         _______ _______ _______ _____ _____    ______ ____
ROOT
ATOM      1  N   UNL     1      -1.418  13.735  22.305  0.00  0.00    +0.000 NA
ATOM      2  C   UNL     1      -2.426  14.055  21.263  0.00  0.00    +0.000 C 
ATOM      3  C   UNL     1      -2.500  13.069  20.070  0.00  0.00    +0.000 C 
ATOM      4  C   UNL     1      -1.147  12.499  19.723  0.00  0.00    +0.000 A 
ATOM      5  C   UNL     1      -0.041  12.811  20.494  0.00  0.00    +0.000 A 
ATOM      6  S   UNL     1       1.330  11.915  20.066  0.00  0.00    +0.000 S 
ATOM      7  C   UNL     1       0.496  11.180  18.780  0.00  0.00    +0.000 A 
ATOM      8  C   UNL     1      -0.847  11.511  18.711  0.00  0.00    +0.000 A 
ATOM      9  C   UNL     1      -0.072  13.747  21.669  0.00  0.00    +0.000 C 
ENDROOT
BRANCH   7  10
ATOM     10  N   UNL     1       1.315  10.385  18.000  0.00  0.00    +0.000 N 
ATOM     11  C   UNL     1       1.680   9.146  18.499  0.00  0.00    +0.000 C 
ATOM     12  O   UNL     1       1.264   8.687  19.560  0.00  0.00    +0.000 OA
ATOM     13  N   UNL     1       2.560   8.501  17.647  0.00  0.00    +0.000 N 
ATOM     14  H   UNL     1       1.121  10.402  17.008  0.00  0.00    +0.000 HD
ATOM     15  H   UNL     1       3.140   9.114  17.091  0.00  0.00    +0.000 HD
BRANCH  13  16
ATOM     16  C   UNL     1       3.021   7.182  17.848  0.00  0.00    +0.000 A 
ATOM     17  C   UNL     1       2.154   6.123  18.144  0.00  0.00    +0.000 A 
ATOM     18  C   UNL     1       2.655   4.851  18.426  0.00  0.00    +0.000 A 
ATOM     19  C   UNL     1       4.026   4.628  18.389  0.00  0.00    +0.000 A 
ATOM     20 CL   UNL     1       4.647   3.077  18.794  0.00  0.00    +0.000 Cl
ATOM     21  C   UNL     1       4.896   5.658  18.035  0.00  0.00    +0.000 A 
ATOM     22  C   UNL     1       4.392   6.933  17.753  0.00  0.00    +0.000 A 
ENDBRANCH  13  16
ENDBRANCH   7  10
BRANCH   1  24
ATOM     23  C   UNL     1      -3.032  12.238  23.547  0.00  0.00    +0.000 C 
ATOM     24  C   UNL     1      -1.637  12.436  22.973  0.00  0.00    +0.000 C 
ENDBRANCH   1  24
BRANCH   8  25
ATOM     25  C   UNL     1      -1.834  10.941  17.800  0.00  0.00    +0.000 C 
ATOM     26  O   UNL     1      -2.401   9.867  17.956  0.00  0.00    +0.000 OA
BRANCH  25  27
ATOM     27  O   UNL     1      -2.049  11.637  16.658  0.00  0.00    +0.000 OA
ATOM     28  H   UNL     1      -1.688  12.520  16.880  0.00  0.00    +0.000 HD
ENDBRANCH  25  27
ENDBRANCH   8  25
TORSDOF 5
ENDMDL
MODEL 2
REMARK VINA RESULT:      -6.7      0.372      1.028
REMARK  Name = 
REMARK  6 active torsions:
REMARK  status: ('A' for Active; 'I' for Inactive)
REMARK    1  A    between atoms: C_1  and  C_2
REMARK    2  A    between atoms: C_2  and  N_3
REMARK    3  A    between atoms: C_9  and  N_10
REMARK    4  A    between atoms: N_13  and  C_14
REMARK    5  A    between atoms: C_21  and  C_22
REMARK    6  A    between atoms: C_22  and  O_24
REMARK                            x       y       z     vdW  Elec       q    Type
REMARK                         _______ _______ _______ _____ _____    ______ ____
ROOT
ATOM      1  N   UNL     1      -1.695  13.698  22.414  0.00  0.00    +0.000 NA
ATOM      2  C   UNL     1      -2.689  13.993  21.352  0.00  0.00    +0.000 C 
ATOM      3  C   UNL     1      -2.673  13.041  20.128  0.00  0.00    +0.000 C 
ATOM      4  C   UNL     1      -1.281  12.558  19.806  0.00  0.00    +0.000 A 
ATOM      5  C   UNL     1      -0.217  12.908  20.618  0.00  0.00    +0.000 A 
ATOM      6  S   UNL     1       1.214  12.103  20.205  0.00  0.00    +0.000 S 
ATOM      7  C   UNL     1       0.459  11.362  18.875  0.00  0.00    +0.000 A 
ATOM      8  C   UNL     1      -0.898  11.620  18.775  0.00  0.00    +0.000 A 
ATOM      9  C   UNL     1      -0.334  13.804  21.818  0.00  0.00    +0.000 C 
ENDROOT
BRANCH   7  10
ATOM     10  N   UNL     1       1.344  10.639  18.097  0.00  0.00    +0.000 N 
ATOM     11  C   UNL     1       1.636   9.342  18.485  0.00  0.00    +0.000 C 
ATOM     12  O   UNL     1       1.105   8.778  19.439  0.00  0.00    +0.000 OA
ATOM     13  N   UNL     1       2.591   8.774  17.660  0.00  0.00    +0.000 N 
ATOM     14  H   UNL     1       1.255  10.772  17.099  0.00  0.00    +0.000 HD
ATOM     15  H   UNL     1       3.235   9.430  17.239  0.00  0.00    +0.000 HD
BRANCH  13  16
ATOM     16  C   UNL     1       3.009   7.429  17.755  0.00  0.00    +0.000 A 
ATOM     17  C   UNL     1       4.317   7.029  17.453  0.00  0.00    +0.000 A 
ATOM     18  C   UNL     1       4.669   5.678  17.471  0.00  0.00    +0.000 A 
ATOM     19  C   UNL     1       3.720   4.724  17.815  0.00  0.00    +0.000 A 
ATOM     20 CL   UNL     1       4.137   3.056  17.779  0.00  0.00    +0.000 Cl
ATOM     21  C   UNL     1       2.432   5.113  18.179  0.00  0.00    +0.000 A 
ATOM     22  C   UNL     1       2.080   6.468  18.160  0.00  0.00    +0.000 A 
ENDBRANCH  13  16
ENDBRANCH   7  10
BRANCH   1  24
ATOM     23  C   UNL     1      -3.211  12.130  23.691  0.00  0.00    +0.000 C 
ATOM     24  C   UNL     1      -1.858  12.369  23.037  0.00  0.00    +0.000 C 
ENDBRANCH   1  24
BRANCH   8  25
ATOM     25  C   UNL     1      -1.824  11.024  17.819  0.00  0.00    +0.000 C 
ATOM     26  O   UNL     1      -2.372   9.937  17.950  0.00  0.00    +0.000 OA
BRANCH  25  27
ATOM     27  O   UNL     1      -2.001  11.712  16.666  0.00  0.00    +0.000 OA
ATOM     28  H   UNL     1      -2.783  11.271  16.276  0.00  0.00    +0.000 HD
ENDBRANCH  25  27
ENDBRANCH   8  25
TORSDOF 5
ENDMDL
MODEL 3
REMARK VINA RESULT:      -6.7      2.463      3.122
REMARK  Name = 
REMARK  6 active torsions:
REMARK  status: ('A' for Active; 'I' for Inactive)
REMARK    1  A    between atoms: C_1  and  C_2
REMARK    2  A    between atoms: C_2  and  N_3
REMARK    3  A    between atoms: C_9  and  N_10
REMARK    4  A    between atoms: N_13  and  C_14
REMARK    5  A    between atoms: C_21  and  C_22
REMARK    6  A    between atoms: C_22  and  O_24
REMARK                            x       y       z     vdW  Elec       q    Type
REMARK                         _______ _______ _______ _____ _____    ______ ____
ROOT
ATOM      1  N   UNL     1      -3.650  13.467  22.577  0.00  0.00    +0.000 NA
ATOM      2  C   UNL     1      -2.684  14.550  22.266  0.00  0.00    +0.000 C 
ATOM      3  C   UNL     1      -1.384  14.110  21.546  0.00  0.00    +0.000 C 
ATOM      4  C   UNL     1      -0.932  12.739  21.985  0.00  0.00    +0.000 A 
ATOM      5  C   UNL     1      -1.701  12.001  22.867  0.00  0.00    +0.000 A 
ATOM      6  S   UNL     1      -1.128  10.421  23.070  0.00  0.00    +0.000 S 
ATOM      7  C   UNL     1       0.211  10.736  22.072  0.00  0.00    +0.000 A 
ATOM      8  C   UNL     1       0.200  11.991  21.486  0.00  0.00    +0.000 A 
ATOM      9  C   UNL     1      -2.980  12.493  23.482  0.00  0.00    +0.000 C 
ENDROOT
BRANCH   7  10
ATOM     10  N   UNL     1       1.104   9.682  22.033  0.00  0.00    +0.000 N 
ATOM     11  C   UNL     1       0.981   8.767  21.000  0.00  0.00    +0.000 C 
ATOM     12  O   UNL     1       0.169   8.877  20.084  0.00  0.00    +0.000 OA
ATOM     13  N   UNL     1       1.888   7.731  21.136  0.00  0.00    +0.000 N 
ATOM     14  H   UNL     1       2.056   9.908  22.287  0.00  0.00    +0.000 HD
ATOM     15  H   UNL     1       2.157   7.522  22.089  0.00  0.00    +0.000 HD
BRANCH  13  16
ATOM     16  C   UNL     1       2.060   6.708  20.178  0.00  0.00    +0.000 A 
ATOM     17  C   UNL     1       1.672   5.385  20.419  0.00  0.00    +0.000 A 
ATOM     18  C   UNL     1       1.940   4.384  19.484  0.00  0.00    +0.000 A 
ATOM     19  C   UNL     1       2.577   4.708  18.293  0.00  0.00    +0.000 A 
ATOM     20 CL   UNL     1       2.962   3.466  17.167  0.00  0.00    +0.000 Cl
ATOM     21  C   UNL     1       2.912   6.032  18.013  0.00  0.00    +0.000 A 
ATOM     22  C   UNL     1       2.643   7.035  18.951  0.00  0.00    +0.000 A 
ENDBRANCH  13  16
ENDBRANCH   7  10
BRANCH   1  24
ATOM     23  C   UNL     1      -5.679  12.644  21.316  0.00  0.00    +0.000 C 
ATOM     24  C   UNL     1      -4.164  12.761  21.386  0.00  0.00    +0.000 C 
ENDBRANCH   1  24
BRANCH   8  25
ATOM     25  C   UNL     1       1.143  12.490  20.491  0.00  0.00    +0.000 C 
ATOM     26  O   UNL     1       1.060  12.302  19.284  0.00  0.00    +0.000 OA
BRANCH  25  27
ATOM     27  O   UNL     1       2.230  13.130  20.983  0.00  0.00    +0.000 OA
ATOM     28  H   UNL     1       2.098  13.055  21.949  0.00  0.00    +0.000 HD
ENDBRANCH  25  27
ENDBRANCH   8  25
TORSDOF 5
ENDMDL
MODEL 4
REMARK VINA RESULT:      -6.6      3.926      8.334
REMARK  Name = 
REMARK  6 active torsions:
REMARK  status: ('A' for Active; 'I' for Inactive)
REMARK    1  A    between atoms: C_1  and  C_2
REMARK    2  A    between atoms: C_2  and  N_3
REMARK    3  A    between atoms: C_9  and  N_10
REMARK    4  A    between atoms: N_13  and  C_14
REMARK    5  A    between atoms: C_21  and  C_22
REMARK    6  A    between atoms: C_22  and  O_24
REMARK                            x       y       z     vdW  Elec       q    Type
REMARK                         _______ _______ _______ _____ _____    ______ ____
ROOT
ATOM      1  N   UNL     1       3.359   5.287  18.186  0.00  0.00    +0.000 NA
ATOM      2  C   UNL     1       3.605   5.287  19.650  0.00  0.00    +0.000 C 
ATOM      3  C   UNL     1       2.637   6.151  20.498  0.00  0.00    +0.000 C 
ATOM      4  C   UNL     1       2.198   7.393  19.763  0.00  0.00    +0.000 A 
ATOM      5  C   UNL     1       2.595   7.606  18.455  0.00  0.00    +0.000 A 
ATOM      6  S   UNL     1       1.834   8.943  17.749  0.00  0.00    +0.000 S 
ATOM      7  C   UNL     1       1.049   9.317  19.209  0.00  0.00    +0.000 A 
ATOM      8  C   UNL     1       1.259   8.393  20.219  0.00  0.00    +0.000 A 
ATOM      9  C   UNL     1       3.503   6.685  17.692  0.00  0.00    +0.000 C 
ENDROOT
BRANCH   7  10
ATOM     10  N   UNL     1       0.346  10.505  19.146  0.00  0.00    +0.000 N 
ATOM     11  C   UNL     1      -1.017  10.438  18.905  0.00  0.00    +0.000 C 
ATOM     12  O   UNL     1      -1.643   9.385  18.812  0.00  0.00    +0.000 OA
ATOM     13  N   UNL     1      -1.569  11.702  18.790  0.00  0.00    +0.000 N 
ATOM     14  H   UNL     1       0.623  11.211  19.813  0.00  0.00    +0.000 HD
ATOM     15  H   UNL     1      -0.937  12.414  18.448  0.00  0.00    +0.000 HD
BRANCH  13  16
ATOM     16  C   UNL     1      -2.952  11.943  18.645  0.00  0.00    +0.000 A 
ATOM     17  C   UNL     1      -3.729  12.490  19.674  0.00  0.00    +0.000 A 
ATOM     18  C   UNL     1      -5.109  12.630  19.525  0.00  0.00    +0.000 A 
ATOM     19  C   UNL     1      -5.716  12.244  18.336  0.00  0.00    +0.000 A 
ATOM     20 CL   UNL     1      -7.424  12.360  18.174  0.00  0.00    +0.000 Cl
ATOM     21  C   UNL     1      -4.947  11.756  17.281  0.00  0.00    +0.000 A 
ATOM     22  C   UNL     1      -3.562  11.616  17.431  0.00  0.00    +0.000 A 
ENDBRANCH  13  16
ENDBRANCH   7  10
BRANCH   1  24
ATOM     23  C   UNL     1       1.795   3.302  18.158  0.00  0.00    +0.000 C 
ATOM     24  C   UNL     1       2.034   4.761  17.800  0.00  0.00    +0.000 C 
ENDBRANCH   1  24
BRANCH   8  25
ATOM     25  C   UNL     1       0.618   8.383  21.530  0.00  0.00    +0.000 C 
ATOM     26  O   UNL     1      -0.547   8.075  21.744  0.00  0.00    +0.000 OA
BRANCH  25  27
ATOM     27  O   UNL     1       1.374   8.842  22.556  0.00  0.00    +0.000 OA
ATOM     28  H   UNL     1       1.696   9.699  22.212  0.00  0.00    +0.000 HD
ENDBRANCH  25  27
ENDBRANCH   8  25
TORSDOF 5
ENDMDL
MODEL 5
REMARK VINA RESULT:      -6.5      4.012      8.381
REMARK  Name = 
REMARK  6 active torsions:
REMARK  status: ('A' for Active; 'I' for Inactive)
REMARK    1  A    between atoms: C_1  and  C_2
REMARK    2  A    between atoms: C_2  and  N_3
REMARK    3  A    between atoms: C_9  and  N_10
REMARK    4  A    between atoms: N_13  and  C_14
REMARK    5  A    between atoms: C_21  and  C_22
REMARK    6  A    between atoms: C_22  and  O_24
REMARK                            x       y       z     vdW  Elec       q    Type
REMARK                         _______ _______ _______ _____ _____    ______ ____
ROOT
ATOM      1  N   UNL     1       3.305   5.464  18.244  0.00  0.00    +0.000 NA
ATOM      2  C   UNL     1       3.556   5.510  19.706  0.00  0.00    +0.000 C 
ATOM      3  C   UNL     1       2.567   6.368  20.535  0.00  0.00    +0.000 C 
ATOM      4  C   UNL     1       2.090   7.577  19.769  0.00  0.00    +0.000 A 
ATOM      5  C   UNL     1       2.476   7.766  18.454  0.00  0.00    +0.000 A 
ATOM      6  S   UNL     1       1.673   9.061  17.716  0.00  0.00    +0.000 S 
ATOM      7  C   UNL     1       0.884   9.452  19.170  0.00  0.00    +0.000 A 
ATOM      8  C   UNL     1       1.124   8.561  20.203  0.00  0.00    +0.000 A 
ATOM      9  C   UNL     1       3.407   6.852  17.712  0.00  0.00    +0.000 C 
ENDROOT
BRANCH   7  10
ATOM     10  N   UNL     1       0.146  10.617  19.078  0.00  0.00    +0.000 N 
ATOM     11  C   UNL     1      -1.219  10.504  18.872  0.00  0.00    +0.000 C 
ATOM     12  O   UNL     1      -1.818   9.431  18.833  0.00  0.00    +0.000 OA
ATOM     13  N   UNL     1      -1.809  11.747  18.723  0.00  0.00    +0.000 N 
ATOM     14  H   UNL     1       0.419  11.355  19.712  0.00  0.00    +0.000 HD
ATOM     15  H   UNL     1      -1.205  12.462  18.339  0.00  0.00    +0.000 HD
BRANCH  13  16
ATOM     16  C   UNL     1      -3.201  11.944  18.600  0.00  0.00    +0.000 A 
ATOM     17  C   UNL     1      -3.899  11.647  17.423  0.00  0.00    +0.000 A 
ATOM     18  C   UNL     1      -5.258  11.940  17.309  0.00  0.00    +0.000 A 
ATOM     19  C   UNL     1      -5.932  12.511  18.381  0.00  0.00    +0.000 A 
ATOM     20 CL   UNL     1      -7.592  12.928  18.221  0.00  0.00    +0.000 Cl
ATOM     21  C   UNL     1      -5.264  12.755  19.580  0.00  0.00    +0.000 A 
ATOM     22  C   UNL     1      -3.901  12.461  19.694  0.00  0.00    +0.000 A 
ENDBRANCH  13  16
ENDBRANCH   7  10
BRANCH   1  24
ATOM     23  C   UNL     1       1.823   3.418  18.217  0.00  0.00    +0.000 C 
ATOM     24  C   UNL     1       1.995   4.891  17.877  0.00  0.00    +0.000 C 
ENDBRANCH   1  24
BRANCH   8  25
ATOM     25  C   UNL     1       0.488   8.568  21.517  0.00  0.00    +0.000 C 
ATOM     26  O   UNL     1       1.020   8.936  22.556  0.00  0.00    +0.000 OA
BRANCH  25  27
ATOM     27  O   UNL     1      -0.755   8.035  21.569  0.00  0.00    +0.000 OA
ATOM     28  H   UNL     1      -0.973   8.105  22.521  0.00  0.00    +0.000 HD
ENDBRANCH  25  27
ENDBRANCH   8  25
TORSDOF 5
ENDMDL
MODEL 6
REMARK VINA RESULT:      -6.5      3.907      8.734
REMARK  Name = 
REMARK  6 active torsions:
REMARK  status: ('A' for Active; 'I' for Inactive)
REMARK    1  A    between atoms: C_1  and  C_2
REMARK    2  A    between atoms: C_2  and  N_3
REMARK    3  A    between atoms: C_9  and  N_10
REMARK    4  A    between atoms: N_13  and  C_14
REMARK    5  A    between atoms: C_21  and  C_22
REMARK    6  A    between atoms: C_22  and  O_24
REMARK                            x       y       z     vdW  Elec       q    Type
REMARK                         _______ _______ _______ _____ _____    ______ ____
ROOT
ATOM      1  N   UNL     1       2.508   2.180  18.747  0.00  0.00    +0.000 NA
ATOM      2  C   UNL     1       2.305   2.790  17.408  0.00  0.00    +0.000 C 
ATOM      3  C   UNL     1       2.641   4.299  17.295  0.00  0.00    +0.000 C 
ATOM      4  C   UNL     1       2.324   5.044  18.568  0.00  0.00    +0.000 A 
ATOM      5  C   UNL     1       1.873   4.360  19.683  0.00  0.00    +0.000 A 
ATOM      6  S   UNL     1       1.773   5.343  21.057  0.00  0.00    +0.000 S 
ATOM      7  C   UNL     1       2.225   6.713  20.159  0.00  0.00    +0.000 A 
ATOM      8  C   UNL     1       2.559   6.444  18.843  0.00  0.00    +0.000 A 
ATOM      9  C   UNL     1       1.619   2.880  19.715  0.00  0.00    +0.000 C 
ENDROOT
BRANCH   7  10
ATOM     10  N   UNL     1       2.160   7.879  20.899  0.00  0.00    +0.000 N 
ATOM     11  C   UNL     1       0.965   8.579  20.899  0.00  0.00    +0.000 C 
ATOM     12  O   UNL     1      -0.056   8.189  20.336  0.00  0.00    +0.000 OA
ATOM     13  N   UNL     1       1.074   9.759  21.613  0.00  0.00    +0.000 N 
ATOM     14  H   UNL     1       2.638   7.857  21.789  0.00  0.00    +0.000 HD
ATOM     15  H   UNL     1       2.002  10.162  21.631  0.00  0.00    +0.000 HD
BRANCH  13  16
ATOM     16  C   UNL     1      -0.011  10.625  21.868  0.00  0.00    +0.000 A 
ATOM     17  C   UNL     1      -0.760  10.559  23.049  0.00  0.00    +0.000 A 
ATOM     18  C   UNL     1      -1.882  11.371  23.227  0.00  0.00    +0.000 A 
ATOM     19  C   UNL     1      -2.245  12.269  22.231  0.00  0.00    +0.000 A 
ATOM     20 CL   UNL     1      -3.661  13.226  22.423  0.00  0.00    +0.000 Cl
ATOM     21  C   UNL     1      -1.473  12.389  21.077  0.00  0.00    +0.000 A 
ATOM     22  C   UNL     1      -0.348  11.575  20.900  0.00  0.00    +0.000 A 
ENDBRANCH  13  16
ENDBRANCH   7  10
BRANCH   1  24
ATOM     23  C   UNL     1       4.069   2.082  20.732  0.00  0.00    +0.000 C 
ATOM     24  C   UNL     1       3.903   2.238  19.228  0.00  0.00    +0.000 C 
ENDBRANCH   1  24
BRANCH   8  25
ATOM     25  C   UNL     1       3.102   7.392  17.876  0.00  0.00    +0.000 C 
ATOM     26  O   UNL     1       4.197   7.300  17.335  0.00  0.00    +0.000 OA
BRANCH  25  27
ATOM     27  O   UNL     1       2.350   8.496  17.651  0.00  0.00    +0.000 OA
ATOM     28  H   UNL     1       1.983   8.320  16.760  0.00  0.00    +0.000 HD
ENDBRANCH  25  27
ENDBRANCH   8  25
TORSDOF 5
ENDMDL
MODEL 7
REMARK VINA RESULT:      -6.5      7.757      9.502
REMARK  Name = 
REMARK  6 active torsions:
REMARK  status: ('A' for Active; 'I' for Inactive)
REMARK    1  A    between atoms: C_1  and  C_2
REMARK    2  A    between atoms: C_2  and  N_3
REMARK    3  A    between atoms: C_9  and  N_10
REMARK    4  A    between atoms: N_13  and  C_14
REMARK    5  A    between atoms: C_21  and  C_22
REMARK    6  A    between atoms: C_22  and  O_24
REMARK                            x       y       z     vdW  Elec       q    Type
REMARK                         _______ _______ _______ _____ _____    ______ ____
ROOT
ATOM      1  N   UNL     1       2.519   3.259  18.802  0.00  0.00    +0.000 NA
ATOM      2  C   UNL     1       3.216   2.367  17.841  0.00  0.00    +0.000 C 
ATOM      3  C   UNL     1       4.622   2.833  17.386  0.00  0.00    +0.000 C 
ATOM      4  C   UNL     1       4.717   4.335  17.293  0.00  0.00    +0.000 A 
ATOM      5  C   UNL     1       3.648   5.126  17.675  0.00  0.00    +0.000 A 
ATOM      6  S   UNL     1       4.026   6.776  17.689  0.00  0.00    +0.000 S 
ATOM      7  C   UNL     1       5.583   6.464  17.084  0.00  0.00    +0.000 A 
ATOM      8  C   UNL     1       5.885   5.118  16.958  0.00  0.00    +0.000 A 
ATOM      9  C   UNL     1       2.330   4.585  18.151  0.00  0.00    +0.000 C 
ENDROOT
BRANCH   7  10
ATOM     10  N   UNL     1       6.283   7.621  16.795  0.00  0.00    +0.000 N 
ATOM     11  C   UNL     1       7.201   8.072  17.729  0.00  0.00    +0.000 C 
ATOM     12  O   UNL     1       7.475   7.469  18.764  0.00  0.00    +0.000 OA
ATOM     13  N   UNL     1       7.762   9.275  17.340  0.00  0.00    +0.000 N 
ATOM     14  H   UNL     1       6.572   7.725  15.832  0.00  0.00    +0.000 HD
ATOM     15  H   UNL     1       7.171   9.853  16.757  0.00  0.00    +0.000 HD
BRANCH  13  16
ATOM     16  C   UNL     1       8.802   9.920  18.045  0.00  0.00    +0.000 A 
ATOM     17  C   UNL     1       8.965   9.781  19.429  0.00  0.00    +0.000 A 
ATOM     18  C   UNL     1       9.948  10.505  20.106  0.00  0.00    +0.000 A 
ATOM     19  C   UNL     1      10.788  11.354  19.396  0.00  0.00    +0.000 A 
ATOM     20 CL   UNL     1      11.959  12.292  20.236  0.00  0.00    +0.000 Cl
ATOM     21  C   UNL     1      10.677  11.455  18.010  0.00  0.00    +0.000 A 
ATOM     22  C   UNL     1       9.691  10.729  17.333  0.00  0.00    +0.000 A 
ENDBRANCH  13  16
ENDBRANCH   7  10
BRANCH   1  24
ATOM     23  C   UNL     1       2.427   3.061  21.320  0.00  0.00    +0.000 C 
ATOM     24  C   UNL     1       3.231   3.435  20.084  0.00  0.00    +0.000 C 
ENDBRANCH   1  24
BRANCH   8  25
ATOM     25  C   UNL     1       7.178   4.552  16.589  0.00  0.00    +0.000 C 
ATOM     26  O   UNL     1       8.095   4.319  17.367  0.00  0.00    +0.000 OA
BRANCH  25  27
ATOM     27  O   UNL     1       7.379   4.364  15.263  0.00  0.00    +0.000 OA
ATOM     28  H   UNL     1       6.672   4.912  14.865  0.00  0.00    +0.000 HD
ENDBRANCH  25  27
ENDBRANCH   8  25
TORSDOF 5
ENDMDL
MODEL 8
REMARK VINA RESULT:      -6.3      1.954      2.519
REMARK  Name = 
REMARK  6 active torsions:
REMARK  status: ('A' for Active; 'I' for Inactive)
REMARK    1  A    between atoms: C_1  and  C_2
REMARK    2  A    between atoms: C_2  and  N_3
REMARK    3  A    between atoms: C_9  and  N_10
REMARK    4  A    between atoms: N_13  and  C_14
REMARK    5  A    between atoms: C_21  and  C_22
REMARK    6  A    between atoms: C_22  and  O_24
REMARK                            x       y       z     vdW  Elec       q    Type
REMARK                         _______ _______ _______ _____ _____    ______ ____
ROOT
ATOM      1  N   UNL     1      -1.339  13.439  21.954  0.00  0.00    +0.000 NA
ATOM      2  C   UNL     1      -0.036  14.151  21.955  0.00  0.00    +0.000 C 
ATOM      3  C   UNL     1       0.907  13.835  20.766  0.00  0.00    +0.000 C 
ATOM      4  C   UNL     1       0.780  12.403  20.310  0.00  0.00    +0.000 A 
ATOM      5  C   UNL     1      -0.160  11.567  20.888  0.00  0.00    +0.000 A 
ATOM      6  S   UNL     1      -0.281  10.074  20.101  0.00  0.00    +0.000 S 
ATOM      7  C   UNL     1       0.990  10.481  19.049  0.00  0.00    +0.000 A 
ATOM      8  C   UNL     1       1.458  11.776  19.198  0.00  0.00    +0.000 A 
ATOM      9  C   UNL     1      -1.069  11.976  22.011  0.00  0.00    +0.000 C 
ENDROOT
BRANCH   7  10
ATOM     10  N   UNL     1       1.360   9.431  18.230  0.00  0.00    +0.000 N 
ATOM     11  C   UNL     1       1.887   8.298  18.829  0.00  0.00    +0.000 C 
ATOM     12  O   UNL     1       1.980   8.149  20.045  0.00  0.00    +0.000 OA
ATOM     13  N   UNL     1       2.283   7.368  17.884  0.00  0.00    +0.000 N 
ATOM     14  H   UNL     1       0.745   9.249  17.450  0.00  0.00    +0.000 HD
ATOM     15  H   UNL     1       2.565   7.758  16.994  0.00  0.00    +0.000 HD
BRANCH  13  16
ATOM     16  C   UNL     1       2.761   6.079  18.204  0.00  0.00    +0.000 A 
ATOM     17  C   UNL     1       1.936   4.948  18.181  0.00  0.00    +0.000 A 
ATOM     18  C   UNL     1       2.421   3.705  18.591  0.00  0.00    +0.000 A 
ATOM     19  C   UNL     1       3.743   3.585  19.004  0.00  0.00    +0.000 A 
ATOM     20 CL   UNL     1       4.325   2.067  19.566  0.00  0.00    +0.000 Cl
ATOM     21  C   UNL     1       4.592   4.689  18.972  0.00  0.00    +0.000 A 
ATOM     22  C   UNL     1       4.104   5.935  18.561  0.00  0.00    +0.000 A 
ENDBRANCH  13  16
ENDBRANCH   7  10
BRANCH   1  24
ATOM     23  C   UNL     1      -3.532  13.029  20.765  0.00  0.00    +0.000 C 
ATOM     24  C   UNL     1      -2.186  13.739  20.781  0.00  0.00    +0.000 C 
ENDBRANCH   1  24
BRANCH   8  25
ATOM     25  C   UNL     1       2.448  12.441  18.357  0.00  0.00    +0.000 C 
ATOM     26  O   UNL     1       3.032  13.480  18.640  0.00  0.00    +0.000 OA
BRANCH  25  27
ATOM     27  O   UNL     1       2.645  11.890  17.136  0.00  0.00    +0.000 OA
ATOM     28  H   UNL     1       2.527  12.656  16.539  0.00  0.00    +0.000 HD
ENDBRANCH  25  27
ENDBRANCH   8  25
TORSDOF 5
ENDMDL
MODEL 9
REMARK VINA RESULT:      -6.3      2.528      3.750
REMARK  Name = 
REMARK  6 active torsions:
REMARK  status: ('A' for Active; 'I' for Inactive)
REMARK    1  A    between atoms: C_1  and  C_2
REMARK    2  A    between atoms: C_2  and  N_3
REMARK    3  A    between atoms: C_9  and  N_10
REMARK    4  A    between atoms: N_13  and  C_14
REMARK    5  A    between atoms: C_21  and  C_22
REMARK    6  A    between atoms: C_22  and  O_24
REMARK                            x       y       z     vdW  Elec       q    Type
REMARK                         _______ _______ _______ _____ _____    ______ ____
ROOT
ATOM      1  N   UNL     1      -1.100  13.139  19.058  0.00  0.00    +0.000 NA
ATOM      2  C   UNL     1      -1.703  12.925  20.397  0.00  0.00    +0.000 C 
ATOM      3  C   UNL     1      -0.929  11.970  21.342  0.00  0.00    +0.000 C 
ATOM      4  C   UNL     1      -0.250  10.856  20.585  0.00  0.00    +0.000 A 
ATOM      5  C   UNL     1      -0.296  10.823  19.203  0.00  0.00    +0.000 A 
ATOM      6  S   UNL     1       0.693   9.617  18.544  0.00  0.00    +0.000 S 
ATOM      7  C   UNL     1       1.109   9.056  20.093  0.00  0.00    +0.000 A 
ATOM      8  C   UNL     1       0.601   9.822  21.130  0.00  0.00    +0.000 A 
ATOM      9  C   UNL     1      -1.036  11.824  18.362  0.00  0.00    +0.000 C 
ENDROOT
BRANCH   7  10
ATOM     10  N   UNL     1       1.873   7.905  20.055  0.00  0.00    +0.000 N 
ATOM     11  C   UNL     1       2.474   7.567  18.854  0.00  0.00    +0.000 C 
ATOM     12  O   UNL     1       2.423   8.265  17.844  0.00  0.00    +0.000 OA
ATOM     13  N   UNL     1       3.136   6.356  18.947  0.00  0.00    +0.000 N 
ATOM     14  H   UNL     1       2.436   7.729  20.875  0.00  0.00    +0.000 HD
ATOM     15  H   UNL     1       2.750   5.710  19.623  0.00  0.00    +0.000 HD
BRANCH  13  16
ATOM     16  C   UNL     1       3.923   5.810  17.910  0.00  0.00    +0.000 A 
ATOM     17  C   UNL     1       4.910   6.553  17.249  0.00  0.00    +0.000 A 
ATOM     18  C   UNL     1       5.605   6.009  16.169  0.00  0.00    +0.000 A 
ATOM     19  C   UNL     1       5.333   4.710  15.759  0.00  0.00    +0.000 A 
ATOM     20 CL   UNL     1       6.147   4.060  14.390  0.00  0.00    +0.000 Cl
ATOM     21  C   UNL     1       4.399   3.938  16.446  0.00  0.00    +0.000 A 
ATOM     22  C   UNL     1       3.701   4.484  17.530  0.00  0.00    +0.000 A 
ENDBRANCH  13  16
ENDBRANCH   7  10
BRANCH   1  24
ATOM     23  C   UNL     1       0.275  15.226  19.436  0.00  0.00    +0.000 C 
ATOM     24  C   UNL     1       0.248  13.743  19.095  0.00  0.00    +0.000 C 
ENDBRANCH   1  24
BRANCH   8  25
ATOM     25  C   UNL     1       0.892   9.659  22.550  0.00  0.00    +0.000 C 
ATOM     26  O   UNL     1       0.115   9.907  23.463  0.00  0.00    +0.000 OA
BRANCH  25  27
ATOM     27  O   UNL     1       2.160   9.289  22.850  0.00  0.00    +0.000 OA
ATOM     28  H   UNL     1       2.657  10.122  22.722  0.00  0.00    +0.000 HD
ENDBRANCH  25  27
ENDBRANCH   8  25
TORSDOF 5
ENDMDL
