MODEL 1
REMARK VINA RESULT:      -6.9      0.000      0.000
REMARK  Name = 
REMARK  6 active torsions:
REMARK  status: ('A' for Active; 'I' for Inactive)
REMARK    1  A    between atoms: C_1  and  C_2
REMARK    2  A    between atoms: C_2  and  C_12
REMARK    3  A    between atoms: N_3  and  N_4
REMARK    4  A    between atoms: C_5  and  C_7
REMARK    5  A    between atoms: C_15  and  N_16
REMARK    6  A    between atoms: C_17  and  C_19
REMARK                            x       y       z     vdW  Elec       q    Type
REMARK                         _______ _______ _______ _____ _____    ______ ____
ROOT
ATOM      1  C   UNL     1       0.657   9.174  20.921  0.00  0.00    +0.000 A 
ATOM      2  C   UNL     1       0.473   9.111  22.304  0.00  0.00    +0.000 A 
ATOM      3  C   UNL     1      -0.224  10.110  22.980  0.00  0.00    +0.000 A 
ATOM      4  C   UNL     1      -0.760  11.203  22.299  0.00  0.00    +0.000 A 
ATOM      5  C   UNL     1      -0.620  11.255  20.905  0.00  0.00    +0.000 A 
ATOM      6  C   UNL     1       0.094  10.253  20.224  0.00  0.00    +0.000 A 
ENDROOT
BRANCH   4   7
ATOM      7  N   UNL     1      -1.441  12.244  22.965  0.00  0.00    +0.000 N 
ATOM      8  C   UNL     1      -0.975  13.542  23.175  0.00  0.00    +0.000 C 
ATOM      9  O   UNL     1       0.108  13.963  22.778  0.00  0.00    +0.000 OA
ATOM     10  H   UNL     1      -2.395  12.065  23.249  0.00  0.00    +0.000 HD
BRANCH   8  11
ATOM     11  C   UNL     1      -1.904  14.424  23.885  0.00  0.00    +0.000 A 
ATOM     12  C   UNL     1      -1.614  15.240  24.967  0.00  0.00    +0.000 A 
ATOM     13  C   UNL     1      -2.736  16.015  25.384  0.00  0.00    +0.000 A 
ATOM     14  C   UNL     1      -3.850  15.750  24.620  0.00  0.00    +0.000 A 
ATOM     15  S   UNL     1      -3.547  14.570  23.426  0.00  0.00    +0.000 S 
ENDBRANCH   8  11
ENDBRANCH   4   7
BRANCH   1  17
ATOM     16  C   UNL     1       1.935   8.477  18.796  0.00  0.00    +0.000 C 
ATOM     17  C   UNL     1       1.447   8.118  20.189  0.00  0.00    +0.000 C 
ATOM     18  N   UNL     1       1.652   6.980  20.787  0.00  0.00    +0.000 NA
BRANCH  18  19
ATOM     19  N   UNL     1       2.330   5.978  20.163  0.00  0.00    +0.000 N 
ATOM     20  C   UNL     1       1.785   4.702  20.045  0.00  0.00    +0.000 C 
ATOM     21  O   UNL     1       0.685   4.373  20.483  0.00  0.00    +0.000 OA
ATOM     22  H   UNL     1       3.219   6.138  19.709  0.00  0.00    +0.000 HD
BRANCH  20  23
ATOM     23  C   UNL     1       2.660   3.779  19.340  0.00  0.00    +0.000 A 
ATOM     24  C   UNL     1       3.028   3.699  18.009  0.00  0.00    +0.000 A 
ATOM     25  C   UNL     1       3.914   2.601  17.892  0.00  0.00    +0.000 A 
ATOM     26  C   UNL     1       4.030   2.069  19.154  0.00  0.00    +0.000 A 
ATOM     27  O   UNL     1       3.278   2.770  20.040  0.00  0.00    +0.000 OA
ENDBRANCH  20  23
ENDBRANCH  18  19
ENDBRANCH   1  17
TORSDOF 5
ENDMDL
MODEL 2
REMARK VINA RESULT:      -6.8      0.310      1.003
REMARK  Name = 
REMARK  6 active torsions:
REMARK  status: ('A' for Active; 'I' for Inactive)
REMARK    1  A    between atoms: C_1  and  C_2
REMARK    2  A    between atoms: C_2  and  C_12
REMARK    3  A    between atoms: N_3  and  N_4
REMARK    4  A    between atoms: C_5  and  C_7
REMARK    5  A    between atoms: C_15  and  N_16
REMARK    6  A    between atoms: C_17  and  C_19
REMARK                            x       y       z     vdW  Elec       q    Type
REMARK                         _______ _______ _______ _____ _____    ______ ____
ROOT
ATOM      1  C   UNL     1       0.857   9.256  20.692  0.00  0.00    +0.000 A 
ATOM      2  C   UNL     1       0.497  10.448  20.059  0.00  0.00    +0.000 A 
ATOM      3  C   UNL     1      -0.198  11.441  20.744  0.00  0.00    +0.000 A 
ATOM      4  C   UNL     1      -0.558  11.278  22.082  0.00  0.00    +0.000 A 
ATOM      5  C   UNL     1      -0.164  10.104  22.741  0.00  0.00    +0.000 A 
ATOM      6  C   UNL     1       0.528   9.096  22.045  0.00  0.00    +0.000 A 
ENDROOT
BRANCH   4   7
ATOM      7  N   UNL     1      -1.291  12.254  22.789  0.00  0.00    +0.000 N 
ATOM      8  C   UNL     1      -0.880  13.555  23.081  0.00  0.00    +0.000 C 
ATOM      9  O   UNL     1       0.194  14.037  22.732  0.00  0.00    +0.000 OA
ATOM     10  H   UNL     1      -2.244  12.024  23.042  0.00  0.00    +0.000 HD
BRANCH   8  11
ATOM     11  C   UNL     1      -1.856  14.360  23.819  0.00  0.00    +0.000 A 
ATOM     12  C   UNL     1      -1.628  15.090  24.976  0.00  0.00    +0.000 A 
ATOM     13  C   UNL     1      -2.782  15.809  25.404  0.00  0.00    +0.000 A 
ATOM     14  C   UNL     1      -3.857  15.590  24.572  0.00  0.00    +0.000 A 
ATOM     15  S   UNL     1      -3.480  14.517  23.301  0.00  0.00    +0.000 S 
ENDBRANCH   8  11
ENDBRANCH   4   7
BRANCH   1  17
ATOM     16  C   UNL     1       1.941   8.450  18.498  0.00  0.00    +0.000 C 
ATOM     17  C   UNL     1       1.573   8.159  19.943  0.00  0.00    +0.000 C 
ATOM     18  N   UNL     1       1.822   7.048  20.574  0.00  0.00    +0.000 NA
BRANCH  18  19
ATOM     19  N   UNL     1       2.436   6.011  19.941  0.00  0.00    +0.000 N 
ATOM     20  C   UNL     1       1.886   4.732  19.949  0.00  0.00    +0.000 C 
ATOM     21  O   UNL     1       0.836   4.431  20.512  0.00  0.00    +0.000 OA
ATOM     22  H   UNL     1       3.275   6.144  19.392  0.00  0.00    +0.000 HD
BRANCH  20  23
ATOM     23  C   UNL     1       2.688   3.770  19.211  0.00  0.00    +0.000 A 
ATOM     24  C   UNL     1       3.421   3.889  18.044  0.00  0.00    +0.000 A 
ATOM     25  C   UNL     1       4.009   2.625  17.796  0.00  0.00    +0.000 A 
ATOM     26  C   UNL     1       3.595   1.805  18.819  0.00  0.00    +0.000 A 
ATOM     27  O   UNL     1       2.797   2.483  19.682  0.00  0.00    +0.000 OA
ENDBRANCH  20  23
ENDBRANCH  18  19
ENDBRANCH   1  17
TORSDOF 5
ENDMDL
MODEL 3
REMARK VINA RESULT:      -6.8      1.053      1.053
REMARK  Name = 
REMARK  6 active torsions:
REMARK  status: ('A' for Active; 'I' for Inactive)
REMARK    1  A    between atoms: C_1  and  C_2
REMARK    2  A    between atoms: C_2  and  C_12
REMARK    3  A    between atoms: N_3  and  N_4
REMARK    4  A    between atoms: C_5  and  C_7
REMARK    5  A    between atoms: C_15  and  N_16
REMARK    6  A    between atoms: C_17  and  C_19
REMARK                            x       y       z     vdW  Elec       q    Type
REMARK                         _______ _______ _______ _____ _____    ______ ____
ROOT
ATOM      1  C   UNL     1       0.757   9.655  20.651  0.00  0.00    +0.000 A 
ATOM      2  C   UNL     1       0.201   9.404  21.907  0.00  0.00    +0.000 A 
ATOM      3  C   UNL     1      -0.432  10.416  22.626  0.00  0.00    +0.000 A 
ATOM      4  C   UNL     1      -0.531  11.710  22.115  0.00  0.00    +0.000 A 
ATOM      5  C   UNL     1      -0.015  11.964  20.836  0.00  0.00    +0.000 A 
ATOM      6  C   UNL     1       0.635  10.946  20.115  0.00  0.00    +0.000 A 
ENDROOT
BRANCH   4   7
ATOM      7  N   UNL     1      -1.137  12.760  22.837  0.00  0.00    +0.000 N 
ATOM      8  C   UNL     1      -2.500  12.916  23.090  0.00  0.00    +0.000 C 
ATOM      9  O   UNL     1      -3.368  12.128  22.727  0.00  0.00    +0.000 OA
ATOM     10  H   UNL     1      -0.524  13.425  23.289  0.00  0.00    +0.000 HD
BRANCH   8  11
ATOM     11  C   UNL     1      -2.849  14.098  23.884  0.00  0.00    +0.000 A 
ATOM     12  C   UNL     1      -2.011  14.811  24.725  0.00  0.00    +0.000 A 
ATOM     13  C   UNL     1      -2.654  15.945  25.304  0.00  0.00    +0.000 A 
ATOM     14  C   UNL     1      -3.965  16.048  24.900  0.00  0.00    +0.000 A 
ATOM     15  S   UNL     1      -4.418  14.783  23.850  0.00  0.00    +0.000 S 
ENDBRANCH   8  11
ENDBRANCH   4   7
BRANCH   1  17
ATOM     16  C   UNL     1       1.762   8.852  18.419  0.00  0.00    +0.000 C 
ATOM     17  C   UNL     1       1.481   8.575  19.886  0.00  0.00    +0.000 C 
ATOM     18  N   UNL     1       1.808   7.487  20.523  0.00  0.00    +0.000 NA
BRANCH  18  19
ATOM     19  N   UNL     1       2.434   6.465  19.876  0.00  0.00    +0.000 N 
ATOM     20  C   UNL     1       1.979   5.154  19.990  0.00  0.00    +0.000 C 
ATOM     21  O   UNL     1       1.010   4.810  20.664  0.00  0.00    +0.000 OA
ATOM     22  H   UNL     1       3.206   6.628  19.244  0.00  0.00    +0.000 HD
BRANCH  20  23
ATOM     23  C   UNL     1       2.776   4.213  19.219  0.00  0.00    +0.000 A 
ATOM     24  C   UNL     1       3.502   4.367  18.052  0.00  0.00    +0.000 A 
ATOM     25  C   UNL     1       4.087   3.110  17.763  0.00  0.00    +0.000 A 
ATOM     26  C   UNL     1       3.679   2.261  18.763  0.00  0.00    +0.000 A 
ATOM     27  O   UNL     1       2.886   2.913  19.651  0.00  0.00    +0.000 OA
ENDBRANCH  20  23
ENDBRANCH  18  19
ENDBRANCH   1  17
TORSDOF 5
ENDMDL
MODEL 4
REMARK VINA RESULT:      -6.8      3.526     10.693
REMARK  Name = 
REMARK  6 active torsions:
REMARK  status: ('A' for Active; 'I' for Inactive)
REMARK    1  A    between atoms: C_1  and  C_2
REMARK    2  A    between atoms: C_2  and  C_12
REMARK    3  A    between atoms: N_3  and  N_4
REMARK    4  A    between atoms: C_5  and  C_7
REMARK    5  A    between atoms: C_15  and  N_16
REMARK    6  A    between atoms: C_17  and  C_19
REMARK                            x       y       z     vdW  Elec       q    Type
REMARK                         _______ _______ _______ _____ _____    ______ ____
ROOT
ATOM      1  C   UNL     1       0.536   9.585  19.739  0.00  0.00    +0.000 A 
ATOM      2  C   UNL     1       0.870   9.700  18.387  0.00  0.00    +0.000 A 
ATOM      3  C   UNL     1       1.832   8.872  17.814  0.00  0.00    +0.000 A 
ATOM      4  C   UNL     1       2.492   7.903  18.569  0.00  0.00    +0.000 A 
ATOM      5  C   UNL     1       2.134   7.748  19.916  0.00  0.00    +0.000 A 
ATOM      6  C   UNL     1       1.171   8.592  20.498  0.00  0.00    +0.000 A 
ENDROOT
BRANCH   4   7
ATOM      7  N   UNL     1       3.494   7.074  18.021  0.00  0.00    +0.000 N 
ATOM      8  C   UNL     1       3.400   5.703  17.781  0.00  0.00    +0.000 C 
ATOM      9  O   UNL     1       2.400   5.027  18.002  0.00  0.00    +0.000 OA
ATOM     10  H   UNL     1       4.337   7.525  17.690  0.00  0.00    +0.000 HD
BRANCH   8  11
ATOM     11  C   UNL     1       4.594   5.098  17.186  0.00  0.00    +0.000 A 
ATOM     12  C   UNL     1       4.635   4.219  16.115  0.00  0.00    +0.000 A 
ATOM     13  C   UNL     1       5.967   3.864  15.751  0.00  0.00    +0.000 A 
ATOM     14  C   UNL     1       6.897   4.467  16.567  0.00  0.00    +0.000 A 
ATOM     15  S   UNL     1       6.169   5.436  17.767  0.00  0.00    +0.000 S 
ENDBRANCH   8  11
ENDBRANCH   4   7
BRANCH   1  17
ATOM     16  C   UNL     1      -1.444  11.205  19.438  0.00  0.00    +0.000 C 
ATOM     17  C   UNL     1      -0.474  10.507  20.376  0.00  0.00    +0.000 C 
ATOM     18  N   UNL     1      -0.447  10.646  21.670  0.00  0.00    +0.000 NA
BRANCH  18  19
ATOM     19  N   UNL     1      -1.313  11.489  22.297  0.00  0.00    +0.000 N 
ATOM     20  C   UNL     1      -0.918  12.762  22.698  0.00  0.00    +0.000 C 
ATOM     21  O   UNL     1       0.209  13.224  22.534  0.00  0.00    +0.000 OA
ATOM     22  H   UNL     1      -2.285  11.247  22.436  0.00  0.00    +0.000 HD
BRANCH  20  23
ATOM     23  C   UNL     1      -1.988  13.507  23.341  0.00  0.00    +0.000 A 
ATOM     24  C   UNL     1      -1.966  14.620  24.163  0.00  0.00    +0.000 A 
ATOM     25  C   UNL     1      -3.312  14.919  24.487  0.00  0.00    +0.000 A 
ATOM     26  C   UNL     1      -4.077  13.968  23.854  0.00  0.00    +0.000 A 
ATOM     27  O   UNL     1      -3.291  13.109  23.156  0.00  0.00    +0.000 OA
ENDBRANCH  20  23
ENDBRANCH  18  19
ENDBRANCH   1  17
TORSDOF 5
ENDMDL
MODEL 5
REMARK VINA RESULT:      -6.8      3.902     10.697
REMARK  Name = 
REMARK  6 active torsions:
REMARK  status: ('A' for Active; 'I' for Inactive)
REMARK    1  A    between atoms: C_1  and  C_2
REMARK    2  A    between atoms: C_2  and  C_12
REMARK    3  A    between atoms: N_3  and  N_4
REMARK    4  A    between atoms: C_5  and  C_7
REMARK    5  A    between atoms: C_15  and  N_16
REMARK    6  A    between atoms: C_17  and  C_19
REMARK                            x       y       z     vdW  Elec       q    Type
REMARK                         _______ _______ _______ _____ _____    ______ ____
ROOT
ATOM      1  C   UNL     1       0.888   8.985  20.377  0.00  0.00    +0.000 A 
ATOM      2  C   UNL     1       1.205   9.473  19.107  0.00  0.00    +0.000 A 
ATOM      3  C   UNL     1       2.042   8.759  18.254  0.00  0.00    +0.000 A 
ATOM      4  C   UNL     1       2.590   7.535  18.639  0.00  0.00    +0.000 A 
ATOM      5  C   UNL     1       2.244   7.013  19.893  0.00  0.00    +0.000 A 
ATOM      6  C   UNL     1       1.408   7.740  20.760  0.00  0.00    +0.000 A 
ENDROOT
BRANCH   4   7
ATOM      7  N   UNL     1       3.467   6.808  17.806  0.00  0.00    +0.000 N 
ATOM      8  C   UNL     1       4.464   5.923  18.219  0.00  0.00    +0.000 C 
ATOM      9  O   UNL     1       4.697   5.639  19.390  0.00  0.00    +0.000 OA
ATOM     10  H   UNL     1       3.311   6.864  16.808  0.00  0.00    +0.000 HD
BRANCH   8  11
ATOM     11  C   UNL     1       5.217   5.292  17.132  0.00  0.00    +0.000 A 
ATOM     12  C   UNL     1       4.780   4.273  16.300  0.00  0.00    +0.000 A 
ATOM     13  C   UNL     1       5.745   3.928  15.307  0.00  0.00    +0.000 A 
ATOM     14  C   UNL     1       6.891   4.680  15.427  0.00  0.00    +0.000 A 
ATOM     15  S   UNL     1       6.809   5.776  16.731  0.00  0.00    +0.000 S 
ENDBRANCH   8  11
ENDBRANCH   4   7
BRANCH   1  17
ATOM     16  C   UNL     1      -0.113   9.236  22.737  0.00  0.00    +0.000 C 
ATOM     17  C   UNL     1       0.016   9.774  21.323  0.00  0.00    +0.000 C 
ATOM     18  N   UNL     1      -0.566  10.847  20.870  0.00  0.00    +0.000 NA
BRANCH  18  19
ATOM     19  N   UNL     1      -1.390  11.580  21.667  0.00  0.00    +0.000 N 
ATOM     20  C   UNL     1      -2.428  12.338  21.131  0.00  0.00    +0.000 C 
ATOM     21  O   UNL     1      -2.683  12.415  19.931  0.00  0.00    +0.000 OA
ATOM     22  H   UNL     1      -1.319  11.552  22.676  0.00  0.00    +0.000 HD
BRANCH  20  23
ATOM     23  C   UNL     1      -3.196  13.040  22.146  0.00  0.00    +0.000 A 
ATOM     24  C   UNL     1      -3.088  14.322  22.655  0.00  0.00    +0.000 A 
ATOM     25  C   UNL     1      -4.111  14.469  23.622  0.00  0.00    +0.000 A 
ATOM     26  C   UNL     1      -4.778  13.268  23.656  0.00  0.00    +0.000 A 
ATOM     27  O   UNL     1      -4.237  12.394  22.768  0.00  0.00    +0.000 OA
ENDBRANCH  20  23
ENDBRANCH  18  19
ENDBRANCH   1  17
TORSDOF 5
ENDMDL
MODEL 6
REMARK VINA RESULT:      -6.7      3.957     10.608
REMARK  Name = 
REMARK  6 active torsions:
REMARK  status: ('A' for Active; 'I' for Inactive)
REMARK    1  A    between atoms: C_1  and  C_2
REMARK    2  A    between atoms: C_2  and  C_12
REMARK    3  A    between atoms: N_3  and  N_4
REMARK    4  A    between atoms: C_5  and  C_7
REMARK    5  A    between atoms: C_15  and  N_16
REMARK    6  A    between atoms: C_17  and  C_19
REMARK                            x       y       z     vdW  Elec       q    Type
REMARK                         _______ _______ _______ _____ _____    ______ ____
ROOT
ATOM      1  C   UNL     1       0.708   9.223  20.611  0.00  0.00    +0.000 A 
ATOM      2  C   UNL     1       1.269   7.997  20.975  0.00  0.00    +0.000 A 
ATOM      3  C   UNL     1       2.059   7.277  20.081  0.00  0.00    +0.000 A 
ATOM      4  C   UNL     1       2.315   7.758  18.797  0.00  0.00    +0.000 A 
ATOM      5  C   UNL     1       1.795   9.009  18.436  0.00  0.00    +0.000 A 
ATOM      6  C   UNL     1       0.987   9.730  19.334  0.00  0.00    +0.000 A 
ENDROOT
BRANCH   4   7
ATOM      7  N   UNL     1       3.084   7.033  17.862  0.00  0.00    +0.000 N 
ATOM      8  C   UNL     1       4.101   6.121  18.148  0.00  0.00    +0.000 C 
ATOM      9  O   UNL     1       4.451   5.808  19.282  0.00  0.00    +0.000 OA
ATOM     10  H   UNL     1       2.825   7.114  16.887  0.00  0.00    +0.000 HD
BRANCH   8  11
ATOM     11  C   UNL     1       4.722   5.501  16.976  0.00  0.00    +0.000 A 
ATOM     12  C   UNL     1       5.243   6.151  15.869  0.00  0.00    +0.000 A 
ATOM     13  C   UNL     1       5.827   5.250  14.931  0.00  0.00    +0.000 A 
ATOM     14  C   UNL     1       5.716   3.942  15.343  0.00  0.00    +0.000 A 
ATOM     15  S   UNL     1       4.902   3.804  16.835  0.00  0.00    +0.000 S 
ENDBRANCH   8  11
ENDBRANCH   4   7
BRANCH   1  17
ATOM     16  C   UNL     1      -0.335   9.416  22.959  0.00  0.00    +0.000 C 
ATOM     17  C   UNL     1      -0.182   9.987  21.560  0.00  0.00    +0.000 C 
ATOM     18  N   UNL     1      -0.759  11.069  21.122  0.00  0.00    +0.000 NA
BRANCH  18  19
ATOM     19  N   UNL     1      -1.600  11.782  21.922  0.00  0.00    +0.000 N 
ATOM     20  C   UNL     1      -2.713  12.434  21.399  0.00  0.00    +0.000 C 
ATOM     21  O   UNL     1      -3.026  12.432  20.211  0.00  0.00    +0.000 OA
ATOM     22  H   UNL     1      -1.483  11.810  22.926  0.00  0.00    +0.000 HD
BRANCH  20  23
ATOM     23  C   UNL     1      -3.485  13.131  22.415  0.00  0.00    +0.000 A 
ATOM     24  C   UNL     1      -3.314  14.368  23.010  0.00  0.00    +0.000 A 
ATOM     25  C   UNL     1      -4.378  14.534  23.929  0.00  0.00    +0.000 A 
ATOM     26  C   UNL     1      -5.132  13.387  23.850  0.00  0.00    +0.000 A 
ATOM     27  O   UNL     1      -4.605  12.530  22.939  0.00  0.00    +0.000 OA
ENDBRANCH  20  23
ENDBRANCH  18  19
ENDBRANCH   1  17
TORSDOF 5
ENDMDL
MODEL 7
REMARK VINA RESULT:      -6.7      0.920      1.523
REMARK  Name = 
REMARK  6 active torsions:
REMARK  status: ('A' for Active; 'I' for Inactive)
REMARK    1  A    between atoms: C_1  and  C_2
REMARK    2  A    between atoms: C_2  and  C_12
REMARK    3  A    between atoms: N_3  and  N_4
REMARK    4  A    between atoms: C_5  and  C_7
REMARK    5  A    between atoms: C_15  and  N_16
REMARK    6  A    between atoms: C_17  and  C_19
REMARK                            x       y       z     vdW  Elec       q    Type
REMARK                         _______ _______ _______ _____ _____    ______ ____
ROOT
ATOM      1  C   UNL     1       0.865   8.877  20.807  0.00  0.00    +0.000 A 
ATOM      2  C   UNL     1       0.279   9.908  20.068  0.00  0.00    +0.000 A 
ATOM      3  C   UNL     1      -0.438  10.923  20.697  0.00  0.00    +0.000 A 
ATOM      4  C   UNL     1      -0.594  10.943  22.083  0.00  0.00    +0.000 A 
ATOM      5  C   UNL     1       0.026   9.939  22.840  0.00  0.00    +0.000 A 
ATOM      6  C   UNL     1       0.740   8.907  22.204  0.00  0.00    +0.000 A 
ENDROOT
BRANCH   4   7
ATOM      7  N   UNL     1      -1.343  11.941  22.742  0.00  0.00    +0.000 N 
ATOM      8  C   UNL     1      -0.943  13.254  22.989  0.00  0.00    +0.000 C 
ATOM      9  O   UNL     1       0.132  13.730  22.637  0.00  0.00    +0.000 OA
ATOM     10  H   UNL     1      -2.297  11.715  22.990  0.00  0.00    +0.000 HD
BRANCH   8  11
ATOM     11  C   UNL     1      -1.934  14.082  23.682  0.00  0.00    +0.000 A 
ATOM     12  C   UNL     1      -3.313  14.001  23.564  0.00  0.00    +0.000 A 
ATOM     13  C   UNL     1      -3.988  14.917  24.423  0.00  0.00    +0.000 A 
ATOM     14  C   UNL     1      -3.104  15.679  25.152  0.00  0.00    +0.000 A 
ATOM     15  S   UNL     1      -1.480  15.304  24.791  0.00  0.00    +0.000 S 
ENDBRANCH   8  11
ENDBRANCH   4   7
BRANCH   1  17
ATOM     16  C   UNL     1       2.224   8.063  18.776  0.00  0.00    +0.000 C 
ATOM     17  C   UNL     1       1.606   7.752  20.129  0.00  0.00    +0.000 C 
ATOM     18  N   UNL     1       1.665   6.602  20.735  0.00  0.00    +0.000 NA
BRANCH  18  19
ATOM     19  N   UNL     1       2.292   5.541  20.157  0.00  0.00    +0.000 N 
ATOM     20  C   UNL     1       1.659   4.307  20.034  0.00  0.00    +0.000 C 
ATOM     21  O   UNL     1       0.519   4.069  20.427  0.00  0.00    +0.000 OA
ATOM     22  H   UNL     1       3.210   5.628  19.741  0.00  0.00    +0.000 HD
BRANCH  20  23
ATOM     23  C   UNL     1       2.492   3.310  19.383  0.00  0.00    +0.000 A 
ATOM     24  C   UNL     1       3.453   2.448  19.883  0.00  0.00    +0.000 A 
ATOM     25  C   UNL     1       3.936   1.691  18.788  0.00  0.00    +0.000 A 
ATOM     26  C   UNL     1       3.251   2.138  17.684  0.00  0.00    +0.000 A 
ATOM     27  O   UNL     1       2.375   3.116  18.027  0.00  0.00    +0.000 OA
ENDBRANCH  20  23
ENDBRANCH  18  19
ENDBRANCH   1  17
TORSDOF 5
ENDMDL
MODEL 8
REMARK VINA RESULT:      -6.7      1.072      1.468
REMARK  Name = 
REMARK  6 active torsions:
REMARK  status: ('A' for Active; 'I' for Inactive)
REMARK    1  A    between atoms: C_1  and  C_2
REMARK    2  A    between atoms: C_2  and  C_12
REMARK    3  A    between atoms: N_3  and  N_4
REMARK    4  A    between atoms: C_5  and  C_7
REMARK    5  A    between atoms: C_15  and  N_16
REMARK    6  A    between atoms: C_17  and  C_19
REMARK                            x       y       z     vdW  Elec       q    Type
REMARK                         _______ _______ _______ _____ _____    ______ ____
ROOT
ATOM      1  C   UNL     1       0.981   9.187  20.708  0.00  0.00    +0.000 A 
ATOM      2  C   UNL     1       0.986  10.498  20.227  0.00  0.00    +0.000 A 
ATOM      3  C   UNL     1       0.353  11.521  20.930  0.00  0.00    +0.000 A 
ATOM      4  C   UNL     1      -0.305  11.268  22.134  0.00  0.00    +0.000 A 
ATOM      5  C   UNL     1      -0.279   9.965  22.649  0.00  0.00    +0.000 A 
ATOM      6  C   UNL     1       0.350   8.930  21.933  0.00  0.00    +0.000 A 
ENDROOT
BRANCH   4   7
ATOM      7  N   UNL     1      -0.982  12.280  22.848  0.00  0.00    +0.000 N 
ATOM      8  C   UNL     1      -2.179  12.898  22.483  0.00  0.00    +0.000 C 
ATOM      9  O   UNL     1      -2.824  12.619  21.477  0.00  0.00    +0.000 OA
ATOM     10  H   UNL     1      -0.615  12.529  23.757  0.00  0.00    +0.000 HD
BRANCH   8  11
ATOM     11  C   UNL     1      -2.664  13.909  23.426  0.00  0.00    +0.000 A 
ATOM     12  C   UNL     1      -1.905  14.637  24.328  0.00  0.00    +0.000 A 
ATOM     13  C   UNL     1      -2.684  15.582  25.059  0.00  0.00    +0.000 A 
ATOM     14  C   UNL     1      -4.013  15.529  24.706  0.00  0.00    +0.000 A 
ATOM     15  S   UNL     1      -4.318  14.343  23.519  0.00  0.00    +0.000 S 
ENDBRANCH   8  11
ENDBRANCH   4   7
BRANCH   1  17
ATOM     16  C   UNL     1       2.025   8.376  18.497  0.00  0.00    +0.000 C 
ATOM     17  C   UNL     1       1.629   8.068  19.931  0.00  0.00    +0.000 C 
ATOM     18  N   UNL     1       1.798   6.924  20.529  0.00  0.00    +0.000 NA
BRANCH  18  19
ATOM     19  N   UNL     1       2.347   5.867  19.867  0.00  0.00    +0.000 N 
ATOM     20  C   UNL     1       1.758   4.607  19.907  0.00  0.00    +0.000 C 
ATOM     21  O   UNL     1       0.730   4.339  20.524  0.00  0.00    +0.000 OA
ATOM     22  H   UNL     1       3.160   5.974  19.276  0.00  0.00    +0.000 HD
BRANCH  20  23
ATOM     23  C   UNL     1       2.491   3.619  19.132  0.00  0.00    +0.000 A 
ATOM     24  C   UNL     1       2.444   2.236  19.129  0.00  0.00    +0.000 A 
ATOM     25  C   UNL     1       3.377   1.795  18.159  0.00  0.00    +0.000 A 
ATOM     26  C   UNL     1       3.946   2.930  17.633  0.00  0.00    +0.000 A 
ATOM     27  O   UNL     1       3.420   4.040  18.211  0.00  0.00    +0.000 OA
ENDBRANCH  20  23
ENDBRANCH  18  19
ENDBRANCH   1  17
TORSDOF 5
ENDMDL
MODEL 9
REMARK VINA RESULT:      -6.7      1.127      1.235
REMARK  Name = 
REMARK  6 active torsions:
REMARK  status: ('A' for Active; 'I' for Inactive)
REMARK    1  A    between atoms: C_1  and  C_2
REMARK    2  A    between atoms: C_2  and  C_12
REMARK    3  A    between atoms: N_3  and  N_4
REMARK    4  A    between atoms: C_5  and  C_7
REMARK    5  A    between atoms: C_15  and  N_16
REMARK    6  A    between atoms: C_17  and  C_19
REMARK                            x       y       z     vdW  Elec       q    Type
REMARK                         _______ _______ _______ _____ _____    ______ ____
ROOT
ATOM      1  C   UNL     1       0.230   9.971  20.647  0.00  0.00    +0.000 A 
ATOM      2  C   UNL     1      -0.008   9.909  22.021  0.00  0.00    +0.000 A 
ATOM      3  C   UNL     1      -0.846  10.832  22.645  0.00  0.00    +0.000 A 
ATOM      4  C   UNL     1      -1.471  11.845  21.918  0.00  0.00    +0.000 A 
ATOM      5  C   UNL     1      -1.275  11.890  20.530  0.00  0.00    +0.000 A 
ATOM      6  C   UNL     1      -0.420  10.966  19.902  0.00  0.00    +0.000 A 
ENDROOT
BRANCH   4   7
ATOM      7  N   UNL     1      -2.297  12.811  22.530  0.00  0.00    +0.000 N 
ATOM      8  C   UNL     1      -1.878  13.886  23.315  0.00  0.00    +0.000 C 
ATOM      9  O   UNL     1      -0.705  14.150  23.561  0.00  0.00    +0.000 OA
ATOM     10  H   UNL     1      -3.285  12.777  22.318  0.00  0.00    +0.000 HD
BRANCH   8  11
ATOM     11  C   UNL     1      -2.957  14.744  23.812  0.00  0.00    +0.000 A 
ATOM     12  C   UNL     1      -2.863  15.706  24.805  0.00  0.00    +0.000 A 
ATOM     13  C   UNL     1      -4.091  16.404  25.007  0.00  0.00    +0.000 A 
ATOM     14  C   UNL     1      -5.084  15.939  24.175  0.00  0.00    +0.000 A 
ATOM     15  S   UNL     1      -4.545  14.666  23.177  0.00  0.00    +0.000 S 
ENDBRANCH   8  11
ENDBRANCH   4   7
BRANCH   1  17
ATOM     16  C   UNL     1       1.509   9.283  18.519  0.00  0.00    +0.000 C 
ATOM     17  C   UNL     1       1.169   9.001  19.972  0.00  0.00    +0.000 C 
ATOM     18  N   UNL     1       1.616   7.995  20.668  0.00  0.00    +0.000 NA
BRANCH  18  19
ATOM     19  N   UNL     1       2.440   7.070  20.103  0.00  0.00    +0.000 N 
ATOM     20  C   UNL     1       2.167   5.708  20.197  0.00  0.00    +0.000 C 
ATOM     21  O   UNL     1       1.196   5.232  20.781  0.00  0.00    +0.000 OA
ATOM     22  H   UNL     1       3.239   7.339  19.545  0.00  0.00    +0.000 HD
BRANCH  20  23
ATOM     23  C   UNL     1       3.160   4.887  19.522  0.00  0.00    +0.000 A 
ATOM     24  C   UNL     1       4.510   5.085  19.292  0.00  0.00    +0.000 A 
ATOM     25  C   UNL     1       4.978   3.947  18.592  0.00  0.00    +0.000 A 
ATOM     26  C   UNL     1       3.889   3.125  18.428  0.00  0.00    +0.000 A 
ATOM     27  O   UNL     1       2.782   3.680  18.986  0.00  0.00    +0.000 OA
ENDBRANCH  20  23
ENDBRANCH  18  19
ENDBRANCH   1  17
TORSDOF 5
ENDMDL
