MODEL 1
REMARK VINA RESULT:      -7.8      0.000      0.000
REMARK  Name = 
REMARK  3 active torsions:
REMARK  status: ('A' for Active; 'I' for Inactive)
REMARK    1  A    between atoms: C_2  and  C_3
REMARK    2  A    between atoms: C_3  and  C_4
REMARK    3  A    between atoms: N_14  and  C_15
REMARK                            x       y       z     vdW  Elec       q    Type
REMARK                         _______ _______ _______ _____ _____    ______ ____
ROOT
ATOM      1  O   UNL     1       0.869   4.903  20.501  0.00  0.00    +0.000 OA
ATOM      2  C   UNL     1       2.064   5.164  20.372  0.00  0.00    +0.000 C 
ATOM      3  N   UNL     1       2.593   6.438  20.228  0.00  0.00    +0.000 N 
ATOM      4  H   UNL     1       3.567   6.512  19.946  0.00  0.00    +0.000 HD
ENDROOT
BRANCH   3   5
ATOM      5  C   UNL     1       1.873   7.660  20.224  0.00  0.00    +0.000 A 
ATOM      6  C   UNL     1       1.165   8.123  21.338  0.00  0.00    +0.000 A 
ATOM      7  C   UNL     1       0.407   9.296  21.266  0.00  0.00    +0.000 A 
ATOM      8  C   UNL     1       0.359  10.023  20.081  0.00  0.00    +0.000 A 
ATOM      9 CL   UNL     1      -0.619  11.434  19.985  0.00  0.00    +0.000 Cl
ATOM     10  C   UNL     1       1.095   9.612  18.975  0.00  0.00    +0.000 A 
ATOM     11  C   UNL     1       1.856   8.441  19.052  0.00  0.00    +0.000 A 
ATOM     12 CL   UNL     1       2.760   7.966  17.653  0.00  0.00    +0.000 Cl
ENDBRANCH   3   5
BRANCH   2  13
ATOM     13  C   UNL     1       3.110   4.059  20.371  0.00  0.00    +0.000 C 
BRANCH  13  14
ATOM     14  C   UNL     1       4.002   4.139  19.182  0.00  0.00    +0.000 A 
ATOM     15  C   UNL     1       3.799   3.658  17.902  0.00  0.00    +0.000 A 
ATOM     16  N   UNL     1       4.923   3.986  17.192  0.00  0.00    +0.000 N 
ATOM     17  C   UNL     1       5.227   3.761  15.854  0.00  0.00    +0.000 A 
ATOM     18  C   UNL     1       6.409   4.180  15.388  0.00  0.00    +0.000 A 
ATOM     19  F   UNL     1       6.758   3.997  14.099  0.00  0.00    +0.000 F 
ATOM     20  C   UNL     1       7.345   4.844  16.271  0.00  0.00    +0.000 A 
ATOM     21  C   UNL     1       7.044   5.055  17.571  0.00  0.00    +0.000 A 
ATOM     22  C   UNL     1       5.784   4.627  18.081  0.00  0.00    +0.000 A 
ATOM     23  N   UNL     1       5.246   4.728  19.279  0.00  0.00    +0.000 NA
ENDBRANCH  13  14
ENDBRANCH   2  13
TORSDOF 3
ENDMDL
MODEL 2
REMARK VINA RESULT:      -7.7      3.191      5.004
REMARK  Name = 
REMARK  3 active torsions:
REMARK  status: ('A' for Active; 'I' for Inactive)
REMARK    1  A    between atoms: C_2  and  C_3
REMARK    2  A    between atoms: C_3  and  C_4
REMARK    3  A    between atoms: N_14  and  C_15
REMARK                            x       y       z     vdW  Elec       q    Type
REMARK                         _______ _______ _______ _____ _____    ______ ____
ROOT
ATOM      1  O   UNL     1       7.034   4.830  19.312  0.00  0.00    +0.000 OA
ATOM      2  C   UNL     1       6.330   5.305  18.422  0.00  0.00    +0.000 C 
ATOM      3  N   UNL     1       4.949   5.194  18.351  0.00  0.00    +0.000 N 
ATOM      4  H   UNL     1       4.502   5.464  17.480  0.00  0.00    +0.000 HD
ENDROOT
BRANCH   3   5
ATOM      5  C   UNL     1       4.102   4.543  19.284  0.00  0.00    +0.000 A 
ATOM      6  C   UNL     1       4.278   3.208  19.661  0.00  0.00    +0.000 A 
ATOM      7  C   UNL     1       3.374   2.584  20.527  0.00  0.00    +0.000 A 
ATOM      8  C   UNL     1       2.290   3.295  21.032  0.00  0.00    +0.000 A 
ATOM      9 CL   UNL     1       1.154   2.505  22.052  0.00  0.00    +0.000 Cl
ATOM     10  C   UNL     1       2.121   4.638  20.714  0.00  0.00    +0.000 A 
ATOM     11  C   UNL     1       3.031   5.260  19.852  0.00  0.00    +0.000 A 
ATOM     12 CL   UNL     1       2.785   6.934  19.483  0.00  0.00    +0.000 Cl
ENDBRANCH   3   5
BRANCH   2  13
ATOM     13  C   UNL     1       6.944   6.099  17.279  0.00  0.00    +0.000 C 
BRANCH  13  14
ATOM     14  C   UNL     1       6.730   5.435  15.963  0.00  0.00    +0.000 A 
ATOM     15  C   UNL     1       5.718   4.579  15.570  0.00  0.00    +0.000 A 
ATOM     16  N   UNL     1       5.987   4.247  14.269  0.00  0.00    +0.000 N 
ATOM     17  C   UNL     1       5.274   3.438  13.392  0.00  0.00    +0.000 A 
ATOM     18  C   UNL     1       5.749   3.263  12.154  0.00  0.00    +0.000 A 
ATOM     19  F   UNL     1       5.099   2.496  11.256  0.00  0.00    +0.000 F 
ATOM     20  C   UNL     1       6.986   3.902  11.752  0.00  0.00    +0.000 A 
ATOM     21  C   UNL     1       7.674   4.683  12.612  0.00  0.00    +0.000 A 
ATOM     22  C   UNL     1       7.175   4.891  13.931  0.00  0.00    +0.000 A 
ATOM     23  N   UNL     1       7.634   5.609  14.936  0.00  0.00    +0.000 NA
ENDBRANCH  13  14
ENDBRANCH   2  13
TORSDOF 3
ENDMDL
MODEL 3
REMARK VINA RESULT:      -7.5      3.693      4.994
REMARK  Name = 
REMARK  3 active torsions:
REMARK  status: ('A' for Active; 'I' for Inactive)
REMARK    1  A    between atoms: C_2  and  C_3
REMARK    2  A    between atoms: C_3  and  C_4
REMARK    3  A    between atoms: N_14  and  C_15
REMARK                            x       y       z     vdW  Elec       q    Type
REMARK                         _______ _______ _______ _____ _____    ______ ____
ROOT
ATOM      1  O   UNL     1       6.487   4.534  19.089  0.00  0.00    +0.000 OA
ATOM      2  C   UNL     1       5.805   5.203  18.314  0.00  0.00    +0.000 C 
ATOM      3  N   UNL     1       4.420   5.284  18.335  0.00  0.00    +0.000 N 
ATOM      4  H   UNL     1       3.964   5.716  17.536  0.00  0.00    +0.000 HD
ENDROOT
BRANCH   3   5
ATOM      5  C   UNL     1       3.547   4.640  19.248  0.00  0.00    +0.000 A 
ATOM      6  C   UNL     1       2.960   5.306  20.330  0.00  0.00    +0.000 A 
ATOM      7  C   UNL     1       2.165   4.614  21.249  0.00  0.00    +0.000 A 
ATOM      8  C   UNL     1       1.939   3.251  21.087  0.00  0.00    +0.000 A 
ATOM      9 CL   UNL     1       1.004   2.399  22.251  0.00  0.00    +0.000 Cl
ATOM     10  C   UNL     1       2.467   2.576  19.992  0.00  0.00    +0.000 A 
ATOM     11  C   UNL     1       3.259   3.273  19.072  0.00  0.00    +0.000 A 
ATOM     12 CL   UNL     1       3.895   2.396  17.722  0.00  0.00    +0.000 Cl
ENDBRANCH   3   5
BRANCH   2  13
ATOM     13  C   UNL     1       6.455   6.045  17.227  0.00  0.00    +0.000 C 
BRANCH  13  14
ATOM     14  C   UNL     1       6.391   5.380  15.896  0.00  0.00    +0.000 A 
ATOM     15  C   UNL     1       5.461   4.480  15.413  0.00  0.00    +0.000 A 
ATOM     16  N   UNL     1       5.860   4.168  14.140  0.00  0.00    +0.000 N 
ATOM     17  C   UNL     1       5.268   3.331  13.201  0.00  0.00    +0.000 A 
ATOM     18  C   UNL     1       5.860   3.186  12.010  0.00  0.00    +0.000 A 
ATOM     19  F   UNL     1       5.330   2.395  11.057  0.00  0.00    +0.000 F 
ATOM     20  C   UNL     1       7.095   3.886  11.722  0.00  0.00    +0.000 A 
ATOM     21  C   UNL     1       7.666   4.694  12.642  0.00  0.00    +0.000 A 
ATOM     22  C   UNL     1       7.042   4.870  13.911  0.00  0.00    +0.000 A 
ATOM     23  N   UNL     1       7.374   5.603  14.954  0.00  0.00    +0.000 NA
ENDBRANCH  13  14
ENDBRANCH   2  13
TORSDOF 3
ENDMDL
MODEL 4
REMARK VINA RESULT:      -7.3      0.797      1.353
REMARK  Name = 
REMARK  3 active torsions:
REMARK  status: ('A' for Active; 'I' for Inactive)
REMARK    1  A    between atoms: C_2  and  C_3
REMARK    2  A    between atoms: C_3  and  C_4
REMARK    3  A    between atoms: N_14  and  C_15
REMARK                            x       y       z     vdW  Elec       q    Type
REMARK                         _______ _______ _______ _____ _____    ______ ____
ROOT
ATOM      1  O   UNL     1       1.157   4.826  20.570  0.00  0.00    +0.000 OA
ATOM      2  C   UNL     1       2.306   5.131  20.252  0.00  0.00    +0.000 C 
ATOM      3  N   UNL     1       2.743   6.417  19.972  0.00  0.00    +0.000 N 
ATOM      4  H   UNL     1       3.660   6.517  19.544  0.00  0.00    +0.000 HD
ENDROOT
BRANCH   3   5
ATOM      5  C   UNL     1       1.970   7.605  20.019  0.00  0.00    +0.000 A 
ATOM      6  C   UNL     1       1.243   7.988  21.151  0.00  0.00    +0.000 A 
ATOM      7  C   UNL     1       0.433   9.129  21.128  0.00  0.00    +0.000 A 
ATOM      8  C   UNL     1       0.354   9.903  19.974  0.00  0.00    +0.000 A 
ATOM      9 CL   UNL     1      -0.685  11.272  19.938  0.00  0.00    +0.000 Cl
ATOM     10  C   UNL     1       1.107   9.572  18.853  0.00  0.00    +0.000 A 
ATOM     11  C   UNL     1       1.919   8.433  18.882  0.00  0.00    +0.000 A 
ATOM     12 CL   UNL     1       2.841   8.059  17.465  0.00  0.00    +0.000 Cl
ENDBRANCH   3   5
BRANCH   2  13
ATOM     13  C   UNL     1       3.394   4.072  20.146  0.00  0.00    +0.000 C 
BRANCH  13  14
ATOM     14  C   UNL     1       4.210   4.236  18.912  0.00  0.00    +0.000 A 
ATOM     15  C   UNL     1       5.569   4.454  18.784  0.00  0.00    +0.000 A 
ATOM     16  N   UNL     1       5.815   4.539  17.440  0.00  0.00    +0.000 N 
ATOM     17  C   UNL     1       7.016   4.724  16.765  0.00  0.00    +0.000 A 
ATOM     18  C   UNL     1       6.997   4.776  15.428  0.00  0.00    +0.000 A 
ATOM     19  F   UNL     1       8.129   4.947  14.718  0.00  0.00    +0.000 F 
ATOM     20  C   UNL     1       5.743   4.648  14.713  0.00  0.00    +0.000 A 
ATOM     21  C   UNL     1       4.580   4.472  15.377  0.00  0.00    +0.000 A 
ATOM     22  C   UNL     1       4.584   4.402  16.801  0.00  0.00    +0.000 A 
ATOM     23  N   UNL     1       3.611   4.219  17.670  0.00  0.00    +0.000 NA
ENDBRANCH  13  14
ENDBRANCH   2  13
TORSDOF 3
ENDMDL
MODEL 5
REMARK VINA RESULT:      -7.1      4.274      7.977
REMARK  Name = 
REMARK  3 active torsions:
REMARK  status: ('A' for Active; 'I' for Inactive)
REMARK    1  A    between atoms: C_2  and  C_3
REMARK    2  A    between atoms: C_3  and  C_4
REMARK    3  A    between atoms: N_14  and  C_15
REMARK                            x       y       z     vdW  Elec       q    Type
REMARK                         _______ _______ _______ _____ _____    ______ ____
ROOT
ATOM      1  O   UNL     1       4.036   7.777  17.807  0.00  0.00    +0.000 OA
ATOM      2  C   UNL     1       2.808   7.712  17.834  0.00  0.00    +0.000 C 
ATOM      3  N   UNL     1       2.073   6.548  18.002  0.00  0.00    +0.000 N 
ATOM      4  H   UNL     1       1.073   6.595  17.822  0.00  0.00    +0.000 HD
ENDROOT
BRANCH   3   5
ATOM      5  C   UNL     1       2.587   5.240  18.192  0.00  0.00    +0.000 A 
ATOM      6  C   UNL     1       3.398   4.603  17.246  0.00  0.00    +0.000 A 
ATOM      7  C   UNL     1       3.822   3.285  17.440  0.00  0.00    +0.000 A 
ATOM      8  C   UNL     1       3.447   2.594  18.588  0.00  0.00    +0.000 A 
ATOM      9 CL   UNL     1       3.927   0.956  18.792  0.00  0.00    +0.000 Cl
ATOM     10  C   UNL     1       2.684   3.222  19.567  0.00  0.00    +0.000 A 
ATOM     11  C   UNL     1       2.267   4.542  19.372  0.00  0.00    +0.000 A 
ATOM     12 CL   UNL     1       1.321   5.286  20.617  0.00  0.00    +0.000 Cl
ENDBRANCH   3   5
BRANCH   2  13
ATOM     13  C   UNL     1       1.955   8.964  17.690  0.00  0.00    +0.000 C 
BRANCH  13  14
ATOM     14  C   UNL     1       1.295   9.338  18.972  0.00  0.00    +0.000 A 
ATOM     15  C   UNL     1       0.427  10.379  19.238  0.00  0.00    +0.000 A 
ATOM     16  N   UNL     1       0.118  10.285  20.569  0.00  0.00    +0.000 N 
ATOM     17  C   UNL     1      -0.732  11.068  21.342  0.00  0.00    +0.000 A 
ATOM     18  C   UNL     1      -0.868  10.772  22.640  0.00  0.00    +0.000 A 
ATOM     19  F   UNL     1      -1.682  11.490  23.439  0.00  0.00    +0.000 F 
ATOM     20  C   UNL     1      -0.134   9.663  23.214  0.00  0.00    +0.000 A 
ATOM     21  C   UNL     1       0.693   8.911  22.456  0.00  0.00    +0.000 A 
ATOM     22  C   UNL     1       0.840   9.204  21.069  0.00  0.00    +0.000 A 
ATOM     23  N   UNL     1       1.551   8.623  20.124  0.00  0.00    +0.000 NA
ENDBRANCH  13  14
ENDBRANCH   2  13
TORSDOF 3
ENDMDL
MODEL 6
REMARK VINA RESULT:      -7.1      1.241      1.322
REMARK  Name = 
REMARK  3 active torsions:
REMARK  status: ('A' for Active; 'I' for Inactive)
REMARK    1  A    between atoms: C_2  and  C_3
REMARK    2  A    between atoms: C_3  and  C_4
REMARK    3  A    between atoms: N_14  and  C_15
REMARK                            x       y       z     vdW  Elec       q    Type
REMARK                         _______ _______ _______ _____ _____    ______ ____
ROOT
ATOM      1  O   UNL     1       0.675   5.361  20.472  0.00  0.00    +0.000 OA
ATOM      2  C   UNL     1       1.849   5.723  20.522  0.00  0.00    +0.000 C 
ATOM      3  N   UNL     1       2.276   7.039  20.622  0.00  0.00    +0.000 N 
ATOM      4  H   UNL     1       3.263   7.224  20.468  0.00  0.00    +0.000 HD
ENDROOT
BRANCH   3   5
ATOM      5  C   UNL     1       1.456   8.193  20.704  0.00  0.00    +0.000 A 
ATOM      6  C   UNL     1       0.879   8.625  21.904  0.00  0.00    +0.000 A 
ATOM      7  C   UNL     1       0.015   9.725  21.926  0.00  0.00    +0.000 A 
ATOM      8  C   UNL     1      -0.270  10.411  20.749  0.00  0.00    +0.000 A 
ATOM      9 CL   UNL     1      -1.374  11.728  20.777  0.00  0.00    +0.000 Cl
ATOM     10  C   UNL     1       0.331  10.033  19.553  0.00  0.00    +0.000 A 
ATOM     11  C   UNL     1       1.198   8.935  19.536  0.00  0.00    +0.000 A 
ATOM     12 CL   UNL     1       1.926   8.500  18.026  0.00  0.00    +0.000 Cl
ENDBRANCH   3   5
BRANCH   2  13
ATOM     13  C   UNL     1       2.982   4.708  20.489  0.00  0.00    +0.000 C 
BRANCH  13  14
ATOM     14  C   UNL     1       3.810   4.841  19.258  0.00  0.00    +0.000 A 
ATOM     15  C   UNL     1       4.845   4.041  18.810  0.00  0.00    +0.000 A 
ATOM     16  N   UNL     1       5.274   4.599  17.635  0.00  0.00    +0.000 N 
ATOM     17  C   UNL     1       6.271   4.179  16.763  0.00  0.00    +0.000 A 
ATOM     18  C   UNL     1       6.507   4.906  15.664  0.00  0.00    +0.000 A 
ATOM     19  F   UNL     1       7.456   4.546  14.778  0.00  0.00    +0.000 F 
ATOM     20  C   UNL     1       5.739   6.107  15.408  0.00  0.00    +0.000 A 
ATOM     21  C   UNL     1       4.774   6.510  16.263  0.00  0.00    +0.000 A 
ATOM     22  C   UNL     1       4.501   5.740  17.431  0.00  0.00    +0.000 A 
ATOM     23  N   UNL     1       3.617   5.899  18.396  0.00  0.00    +0.000 NA
ENDBRANCH  13  14
ENDBRANCH   2  13
TORSDOF 3
ENDMDL
MODEL 7
REMARK VINA RESULT:      -6.9      3.846      4.892
REMARK  Name = 
REMARK  3 active torsions:
REMARK  status: ('A' for Active; 'I' for Inactive)
REMARK    1  A    between atoms: C_2  and  C_3
REMARK    2  A    between atoms: C_3  and  C_4
REMARK    3  A    between atoms: N_14  and  C_15
REMARK                            x       y       z     vdW  Elec       q    Type
REMARK                         _______ _______ _______ _____ _____    ______ ____
ROOT
ATOM      1  O   UNL     1       2.459  10.045  17.495  0.00  0.00    +0.000 OA
ATOM      2  C   UNL     1       2.287   8.976  18.079  0.00  0.00    +0.000 C 
ATOM      3  N   UNL     1       1.348   8.751  19.075  0.00  0.00    +0.000 N 
ATOM      4  H   UNL     1       1.427   7.888  19.606  0.00  0.00    +0.000 HD
ENDROOT
BRANCH   3   5
ATOM      5  C   UNL     1       0.414   9.687  19.587  0.00  0.00    +0.000 A 
ATOM      6  C   UNL     1      -0.499  10.365  18.772  0.00  0.00    +0.000 A 
ATOM      7  C   UNL     1      -1.353  11.335  19.307  0.00  0.00    +0.000 A 
ATOM      8  C   UNL     1      -1.309  11.627  20.667  0.00  0.00    +0.000 A 
ATOM      9 CL   UNL     1      -2.323  12.859  21.306  0.00  0.00    +0.000 Cl
ATOM     10  C   UNL     1      -0.446  10.931  21.507  0.00  0.00    +0.000 A 
ATOM     11  C   UNL     1       0.402   9.958  20.968  0.00  0.00    +0.000 A 
ATOM     12 CL   UNL     1       1.458   9.114  22.050  0.00  0.00    +0.000 Cl
ENDBRANCH   3   5
BRANCH   2  13
ATOM     13  C   UNL     1       3.121   7.752  17.730  0.00  0.00    +0.000 C 
BRANCH  13  14
ATOM     14  C   UNL     1       2.678   6.545  18.482  0.00  0.00    +0.000 A 
ATOM     15  C   UNL     1       2.828   6.247  19.823  0.00  0.00    +0.000 A 
ATOM     16  N   UNL     1       2.254   5.017  20.004  0.00  0.00    +0.000 N 
ATOM     17  C   UNL     1       2.108   4.266  21.165  0.00  0.00    +0.000 A 
ATOM     18  C   UNL     1       1.504   3.074  21.083  0.00  0.00    +0.000 A 
ATOM     19  F   UNL     1       1.327   2.304  22.174  0.00  0.00    +0.000 F 
ATOM     20  C   UNL     1       1.025   2.588  19.806  0.00  0.00    +0.000 A 
ATOM     21  C   UNL     1       1.175   3.323  18.682  0.00  0.00    +0.000 A 
ATOM     22  C   UNL     1       1.804   4.599  18.753  0.00  0.00    +0.000 A 
ATOM     23  N   UNL     1       2.050   5.505  17.829  0.00  0.00    +0.000 NA
ENDBRANCH  13  14
ENDBRANCH   2  13
TORSDOF 3
ENDMDL
MODEL 8
REMARK VINA RESULT:      -6.8      2.837      4.024
REMARK  Name = 
REMARK  3 active torsions:
REMARK  status: ('A' for Active; 'I' for Inactive)
REMARK    1  A    between atoms: C_2  and  C_3
REMARK    2  A    between atoms: C_3  and  C_4
REMARK    3  A    between atoms: N_14  and  C_15
REMARK                            x       y       z     vdW  Elec       q    Type
REMARK                         _______ _______ _______ _____ _____    ______ ____
ROOT
ATOM      1  O   UNL     1       0.676   9.265  17.875  0.00  0.00    +0.000 OA
ATOM      2  C   UNL     1       1.663   8.892  18.507  0.00  0.00    +0.000 C 
ATOM      3  N   UNL     1       1.848   9.058  19.871  0.00  0.00    +0.000 N 
ATOM      4  H   UNL     1       2.777   8.876  20.243  0.00  0.00    +0.000 HD
ENDROOT
BRANCH   3   5
ATOM      5  C   UNL     1       0.944   9.658  20.783  0.00  0.00    +0.000 A 
ATOM      6  C   UNL     1       0.246   8.924  21.749  0.00  0.00    +0.000 A 
ATOM      7  C   UNL     1      -0.693   9.545  22.579  0.00  0.00    +0.000 A 
ATOM      8  C   UNL     1      -0.935  10.910  22.457  0.00  0.00    +0.000 A 
ATOM      9 CL   UNL     1      -2.130  11.654  23.444  0.00  0.00    +0.000 Cl
ATOM     10  C   UNL     1      -0.218  11.671  21.541  0.00  0.00    +0.000 A 
ATOM     11  C   UNL     1       0.724  11.047  20.716  0.00  0.00    +0.000 A 
ATOM     12 CL   UNL     1       1.596  12.033  19.591  0.00  0.00    +0.000 Cl
ENDBRANCH   3   5
BRANCH   2  13
ATOM     13  C   UNL     1       2.811   8.174  17.811  0.00  0.00    +0.000 C 
BRANCH  13  14
ATOM     14  C   UNL     1       3.059   6.827  18.396  0.00  0.00    +0.000 A 
ATOM     15  C   UNL     1       4.124   5.970  18.195  0.00  0.00    +0.000 A 
ATOM     16  N   UNL     1       3.867   4.861  18.957  0.00  0.00    +0.000 N 
ATOM     17  C   UNL     1       4.626   3.711  19.139  0.00  0.00    +0.000 A 
ATOM     18  C   UNL     1       4.153   2.753  19.945  0.00  0.00    +0.000 A 
ATOM     19  F   UNL     1       4.846   1.620  20.166  0.00  0.00    +0.000 F 
ATOM     20  C   UNL     1       2.872   2.922  20.600  0.00  0.00    +0.000 A 
ATOM     21  C   UNL     1       2.138   4.041  20.414  0.00  0.00    +0.000 A 
ATOM     22  C   UNL     1       2.634   5.076  19.569  0.00  0.00    +0.000 A 
ATOM     23  N   UNL     1       2.136   6.252  19.244  0.00  0.00    +0.000 NA
ENDBRANCH  13  14
ENDBRANCH   2  13
TORSDOF 3
ENDMDL
MODEL 9
REMARK VINA RESULT:      -6.8      4.936      8.563
REMARK  Name = 
REMARK  3 active torsions:
REMARK  status: ('A' for Active; 'I' for Inactive)
REMARK    1  A    between atoms: C_2  and  C_3
REMARK    2  A    between atoms: C_3  and  C_4
REMARK    3  A    between atoms: N_14  and  C_15
REMARK                            x       y       z     vdW  Elec       q    Type
REMARK                         _______ _______ _______ _____ _____    ______ ____
ROOT
ATOM      1  O   UNL     1       2.208   9.418  17.306  0.00  0.00    +0.000 OA
ATOM      2  C   UNL     1       1.873   8.872  18.356  0.00  0.00    +0.000 C 
ATOM      3  N   UNL     1       2.275   7.609  18.764  0.00  0.00    +0.000 N 
ATOM      4  H   UNL     1       1.788   7.195  19.554  0.00  0.00    +0.000 HD
ENDROOT
BRANCH   3   5
ATOM      5  C   UNL     1       3.148   6.733  18.071  0.00  0.00    +0.000 A 
ATOM      6  C   UNL     1       4.237   7.189  17.319  0.00  0.00    +0.000 A 
ATOM      7  C   UNL     1       5.028   6.295  16.591  0.00  0.00    +0.000 A 
ATOM      8  C   UNL     1       4.744   4.933  16.617  0.00  0.00    +0.000 A 
ATOM      9 CL   UNL     1       5.689   3.848  15.676  0.00  0.00    +0.000 Cl
ATOM     10  C   UNL     1       3.700   4.448  17.398  0.00  0.00    +0.000 A 
ATOM     11  C   UNL     1       2.914   5.345  18.128  0.00  0.00    +0.000 A 
ATOM     12 CL   UNL     1       1.626   4.699  19.089  0.00  0.00    +0.000 Cl
ENDBRANCH   3   5
BRANCH   2  13
ATOM     13  C   UNL     1       0.955   9.576  19.345  0.00  0.00    +0.000 C 
BRANCH  13  14
ATOM     14  C   UNL     1      -0.316  10.017  18.707  0.00  0.00    +0.000 A 
ATOM     15  C   UNL     1      -1.290  10.868  19.194  0.00  0.00    +0.000 A 
ATOM     16  N   UNL     1      -2.254  10.936  18.224  0.00  0.00    +0.000 N 
ATOM     17  C   UNL     1      -3.435  11.669  18.192  0.00  0.00    +0.000 A 
ATOM     18  C   UNL     1      -4.224  11.565  17.116  0.00  0.00    +0.000 A 
ATOM     19  F   UNL     1      -5.377  12.256  17.025  0.00  0.00    +0.000 F 
ATOM     20  C   UNL     1      -3.847  10.697  16.020  0.00  0.00    +0.000 A 
ATOM     21  C   UNL     1      -2.700   9.985  16.060  0.00  0.00    +0.000 A 
ATOM     22  C   UNL     1      -1.841  10.094  17.193  0.00  0.00    +0.000 A 
ATOM     23  N   UNL     1      -0.680   9.535  17.466  0.00  0.00    +0.000 NA
ENDBRANCH  13  14
ENDBRANCH   2  13
TORSDOF 3
ENDMDL
