MODEL 1
REMARK VINA RESULT:      -7.8      0.000      0.000
REMARK  Name = 
REMARK  11 active torsions:
REMARK  status: ('A' for Active; 'I' for Inactive)
REMARK    1  A    between atoms: C_1  and  C_2
REMARK    2  A    between atoms: C_2  and  O_3
REMARK    3  A    between atoms: O_3  and  C_4
REMARK    4  A    between atoms: C_4  and  C_5
REMARK    5  A    between atoms: C_4  and  C_6
REMARK    6  A    between atoms: C_6  and  O_7
REMARK    7  A    between atoms: O_7  and  C_8
REMARK    8  A    between atoms: C_18  and  O_19
REMARK    9  A    between atoms: O_19  and  C_20
REMARK   10  A    between atoms: C_21  and  O_22
REMARK   11  A    between atoms: O_22  and  C_23
REMARK                            x       y       z     vdW  Elec       q    Type
REMARK                         _______ _______ _______ _____ _____    ______ ____
ROOT
ATOM      1  C   UNL     1       6.109   4.369  15.266  0.00  0.00    +0.000 C 
ATOM      2  C   UNL     1       5.489   3.600  16.440  0.00  0.00    +0.000 C 
ATOM      3  C   UNL     1       4.162   4.216  16.880  0.00  0.00    +0.000 C 
ATOM      4  N   UNL     1       4.396   5.623  17.185  0.00  0.00    +0.000 N 
ATOM      5  C   UNL     1       3.523   6.197  18.093  0.00  0.00    +0.000 A 
ATOM      6  N   UNL     1       3.209   5.487  19.187  0.00  0.00    +0.000 NA
ATOM      7  C   UNL     1       2.462   6.076  20.127  0.00  0.00    +0.000 A 
ATOM      8  N   UNL     1       2.201   5.286  21.256  0.00  0.00    +0.000 N 
ATOM      9  C   UNL     1       1.961   7.370  20.002  0.00  0.00    +0.000 A 
ATOM     10  C   UNL     1       1.140   8.021  20.955  0.00  0.00    +0.000 A 
ATOM     11  C   UNL     1       0.668   9.322  20.743  0.00  0.00    +0.000 A 
ATOM     12  C   UNL     1       1.019   9.968  19.549  0.00  0.00    +0.000 A 
ATOM     13  C   UNL     1       1.845   9.304  18.624  0.00  0.00    +0.000 A 
ATOM     14  C   UNL     1       2.323   8.020  18.829  0.00  0.00    +0.000 A 
ATOM     15  N   UNL     1       3.103   7.454  17.901  0.00  0.00    +0.000 NA
ATOM     16  C   UNL     1       4.824   6.425  16.045  0.00  0.00    +0.000 C 
ATOM     17  C   UNL     1       6.169   5.875  15.566  0.00  0.00    +0.000 C 
ATOM     18  H   UNL     1       2.713   4.416  21.115  0.00  0.00    +0.000 HD
ATOM     19  H   UNL     1       2.505   5.752  22.104  0.00  0.00    +0.000 HD
ENDROOT
BRANCH  11  20
ATOM     20  O   UNL     1      -0.114   9.985  21.646  0.00  0.00    +0.000 OA
ATOM     21  C   UNL     1      -0.233   9.453  22.960  0.00  0.00    +0.000 C 
ENDBRANCH  11  20
BRANCH  12  22
ATOM     22  O   UNL     1       0.668  11.219  19.114  0.00  0.00    +0.000 OA
ATOM     23  C   UNL     1       1.677  12.081  18.613  0.00  0.00    +0.000 C 
ENDBRANCH  12  22
BRANCH   1  24
ATOM     24  O   UNL     1       5.351   4.064  14.082  0.00  0.00    +0.000 OA
BRANCH  24  25
ATOM     25  C   UNL     1       6.168   3.612  13.000  0.00  0.00    +0.000 C 
BRANCH  25  26
ATOM     26  C   UNL     1       5.394   2.707  12.028  0.00  0.00    +0.000 C 
ATOM     27  C   UNL     1       6.339   1.771  11.275  0.00  0.00    +0.000 C 
BRANCH  26  28
ATOM     28  O   UNL     1       4.705   3.590  11.129  0.00  0.00    +0.000 OA
BRANCH  28  30
ATOM     29  C   UNL     1       2.953   4.049   9.592  0.00  0.00    +0.000 C 
ATOM     30  C   UNL     1       3.424   3.136  10.708  0.00  0.00    +0.000 C 
ENDBRANCH  28  30
ENDBRANCH  26  28
ENDBRANCH  25  26
ENDBRANCH  24  25
ENDBRANCH   1  24
TORSDOF 7
ENDMDL
MODEL 2
REMARK VINA RESULT:      -7.3      0.798      1.574
REMARK  Name = 
REMARK  11 active torsions:
REMARK  status: ('A' for Active; 'I' for Inactive)
REMARK    1  A    between atoms: C_1  and  C_2
REMARK    2  A    between atoms: C_2  and  O_3
REMARK    3  A    between atoms: O_3  and  C_4
REMARK    4  A    between atoms: C_4  and  C_5
REMARK    5  A    between atoms: C_4  and  C_6
REMARK    6  A    between atoms: C_6  and  O_7
REMARK    7  A    between atoms: O_7  and  C_8
REMARK    8  A    between atoms: C_18  and  O_19
REMARK    9  A    between atoms: O_19  and  C_20
REMARK   10  A    between atoms: C_21  and  O_22
REMARK   11  A    between atoms: O_22  and  C_23
REMARK                            x       y       z     vdW  Elec       q    Type
REMARK                         _______ _______ _______ _____ _____    ______ ____
ROOT
ATOM      1  C   UNL     1       6.254   4.196  14.926  0.00  0.00    +0.000 C 
ATOM      2  C   UNL     1       5.671   3.438  16.125  0.00  0.00    +0.000 C 
ATOM      3  C   UNL     1       4.339   4.035  16.577  0.00  0.00    +0.000 C 
ATOM      4  N   UNL     1       4.551   5.453  16.852  0.00  0.00    +0.000 N 
ATOM      5  C   UNL     1       3.684   6.027  17.766  0.00  0.00    +0.000 A 
ATOM      6  N   UNL     1       3.403   5.332  18.878  0.00  0.00    +0.000 NA
ATOM      7  C   UNL     1       2.662   5.923  19.820  0.00  0.00    +0.000 A 
ATOM      8  N   UNL     1       2.437   5.150  20.968  0.00  0.00    +0.000 N 
ATOM      9  C   UNL     1       2.133   7.204  19.681  0.00  0.00    +0.000 A 
ATOM     10  C   UNL     1       1.316   7.857  20.636  0.00  0.00    +0.000 A 
ATOM     11  C   UNL     1       0.816   9.144  20.408  0.00  0.00    +0.000 A 
ATOM     12  C   UNL     1       1.131   9.775  19.196  0.00  0.00    +0.000 A 
ATOM     13  C   UNL     1       1.954   9.110  18.269  0.00  0.00    +0.000 A 
ATOM     14  C   UNL     1       2.462   7.839  18.489  0.00  0.00    +0.000 A 
ATOM     15  N   UNL     1       3.235   7.271  17.558  0.00  0.00    +0.000 NA
ATOM     16  C   UNL     1       4.943   6.241  15.690  0.00  0.00    +0.000 C 
ATOM     17  C   UNL     1       6.290   5.708  15.197  0.00  0.00    +0.000 C 
ATOM     18  H   UNL     1       2.964   4.288  20.834  0.00  0.00    +0.000 HD
ATOM     19  H   UNL     1       2.747   5.638  21.802  0.00  0.00    +0.000 HD
ENDROOT
BRANCH  11  20
ATOM     20  O   UNL     1       0.037   9.809  21.313  0.00  0.00    +0.000 OA
ATOM     21  C   UNL     1       0.530   9.980  22.636  0.00  0.00    +0.000 C 
ENDBRANCH  11  20
BRANCH  12  22
ATOM     22  O   UNL     1       0.748  11.011  18.745  0.00  0.00    +0.000 OA
ATOM     23  C   UNL     1       1.392  12.163  19.266  0.00  0.00    +0.000 C 
ENDBRANCH  12  22
BRANCH   1  24
ATOM     24  O   UNL     1       5.481   3.854  13.762  0.00  0.00    +0.000 OA
BRANCH  24  25
ATOM     25  C   UNL     1       6.267   3.257  12.728  0.00  0.00    +0.000 C 
BRANCH  25  26
ATOM     26  C   UNL     1       5.449   3.000  11.452  0.00  0.00    +0.000 C 
ATOM     27  C   UNL     1       4.084   3.682  11.527  0.00  0.00    +0.000 C 
BRANCH  26  28
ATOM     28  O   UNL     1       5.317   1.574  11.348  0.00  0.00    +0.000 OA
BRANCH  28  30
ATOM     29  C   UNL     1       6.263  -0.605  11.341  0.00  0.00    +0.000 C 
ATOM     30  C   UNL     1       6.538   0.873  11.140  0.00  0.00    +0.000 C 
ENDBRANCH  28  30
ENDBRANCH  26  28
ENDBRANCH  25  26
ENDBRANCH  24  25
ENDBRANCH   1  24
TORSDOF 7
ENDMDL
MODEL 3
REMARK VINA RESULT:      -7.2      4.178      8.792
REMARK  Name = 
REMARK  11 active torsions:
REMARK  status: ('A' for Active; 'I' for Inactive)
REMARK    1  A    between atoms: C_1  and  C_2
REMARK    2  A    between atoms: C_2  and  O_3
REMARK    3  A    between atoms: O_3  and  C_4
REMARK    4  A    between atoms: C_4  and  C_5
REMARK    5  A    between atoms: C_4  and  C_6
REMARK    6  A    between atoms: C_6  and  O_7
REMARK    7  A    between atoms: O_7  and  C_8
REMARK    8  A    between atoms: C_18  and  O_19
REMARK    9  A    between atoms: O_19  and  C_20
REMARK   10  A    between atoms: C_21  and  O_22
REMARK   11  A    between atoms: O_22  and  C_23
REMARK                            x       y       z     vdW  Elec       q    Type
REMARK                         _______ _______ _______ _____ _____    ______ ____
ROOT
ATOM      1  C   UNL     1      -0.160  11.666  20.073  0.00  0.00    +0.000 C 
ATOM      2  C   UNL     1       0.607  11.382  18.776  0.00  0.00    +0.000 C 
ATOM      3  C   UNL     1       0.665   9.887  18.470  0.00  0.00    +0.000 C 
ATOM      4  N   UNL     1       1.241   9.211  19.628  0.00  0.00    +0.000 N 
ATOM      5  C   UNL     1       1.881   8.011  19.369  0.00  0.00    +0.000 A 
ATOM      6  N   UNL     1       2.685   7.953  18.297  0.00  0.00    +0.000 NA
ATOM      7  C   UNL     1       3.398   6.839  18.104  0.00  0.00    +0.000 A 
ATOM      8  N   UNL     1       4.240   6.862  16.983  0.00  0.00    +0.000 N 
ATOM      9  C   UNL     1       3.311   5.725  18.936  0.00  0.00    +0.000 A 
ATOM     10  C   UNL     1       4.021   4.513  18.752  0.00  0.00    +0.000 A 
ATOM     11  C   UNL     1       3.863   3.436  19.632  0.00  0.00    +0.000 A 
ATOM     12  C   UNL     1       2.969   3.578  20.702  0.00  0.00    +0.000 A 
ATOM     13  C   UNL     1       2.285   4.795  20.870  0.00  0.00    +0.000 A 
ATOM     14  C   UNL     1       2.440   5.870  20.009  0.00  0.00    +0.000 A 
ATOM     15  N   UNL     1       1.753   6.996  20.232  0.00  0.00    +0.000 NA
ATOM     16  C   UNL     1       0.447   9.317  20.845  0.00  0.00    +0.000 C 
ATOM     17  C   UNL     1       0.369  10.797  21.225  0.00  0.00    +0.000 C 
ATOM     18  H   UNL     1       4.149   7.794  16.581  0.00  0.00    +0.000 HD
ATOM     19  H   UNL     1       5.201   6.674  17.246  0.00  0.00    +0.000 HD
ENDROOT
BRANCH  11  20
ATOM     20  O   UNL     1       4.542   2.257  19.492  0.00  0.00    +0.000 OA
ATOM     21  C   UNL     1       3.970   1.237  18.684  0.00  0.00    +0.000 C 
ENDBRANCH  11  20
BRANCH  12  22
ATOM     22  O   UNL     1       2.638   2.668  21.672  0.00  0.00    +0.000 OA
ATOM     23  C   UNL     1       1.267   2.418  21.940  0.00  0.00    +0.000 C 
ENDBRANCH  12  22
BRANCH   1  24
ATOM     24  O   UNL     1      -1.561  11.465  19.818  0.00  0.00    +0.000 OA
BRANCH  24  25
ATOM     25  C   UNL     1      -2.065  12.315  18.785  0.00  0.00    +0.000 C 
BRANCH  25  26
ATOM     26  C   UNL     1      -3.230  11.668  18.019  0.00  0.00    +0.000 C 
ATOM     27  C   UNL     1      -4.542  11.811  18.788  0.00  0.00    +0.000 C 
BRANCH  26  28
ATOM     28  O   UNL     1      -2.872  10.288  17.845  0.00  0.00    +0.000 OA
BRANCH  28  30
ATOM     29  C   UNL     1      -3.116  10.769  15.532  0.00  0.00    +0.000 C 
ATOM     30  C   UNL     1      -2.349   9.962  16.563  0.00  0.00    +0.000 C 
ENDBRANCH  28  30
ENDBRANCH  26  28
ENDBRANCH  25  26
ENDBRANCH  24  25
ENDBRANCH   1  24
TORSDOF 7
ENDMDL
MODEL 4
REMARK VINA RESULT:      -7.0      0.878      1.026
REMARK  Name = 
REMARK  11 active torsions:
REMARK  status: ('A' for Active; 'I' for Inactive)
REMARK    1  A    between atoms: C_1  and  C_2
REMARK    2  A    between atoms: C_2  and  O_3
REMARK    3  A    between atoms: O_3  and  C_4
REMARK    4  A    between atoms: C_4  and  C_5
REMARK    5  A    between atoms: C_4  and  C_6
REMARK    6  A    between atoms: C_6  and  O_7
REMARK    7  A    between atoms: O_7  and  C_8
REMARK    8  A    between atoms: C_18  and  O_19
REMARK    9  A    between atoms: O_19  and  C_20
REMARK   10  A    between atoms: C_21  and  O_22
REMARK   11  A    between atoms: O_22  and  C_23
REMARK                            x       y       z     vdW  Elec       q    Type
REMARK                         _______ _______ _______ _____ _____    ______ ____
ROOT
ATOM      1  C   UNL     1       6.637   4.960  15.526  0.00  0.00    +0.000 C 
ATOM      2  C   UNL     1       5.924   3.940  16.423  0.00  0.00    +0.000 C 
ATOM      3  C   UNL     1       4.525   4.413  16.814  0.00  0.00    +0.000 C 
ATOM      4  N   UNL     1       4.650   5.727  17.437  0.00  0.00    +0.000 N 
ATOM      5  C   UNL     1       3.649   6.068  18.330  0.00  0.00    +0.000 A 
ATOM      6  N   UNL     1       3.245   5.131  19.200  0.00  0.00    +0.000 NA
ATOM      7  C   UNL     1       2.365   5.484  20.142  0.00  0.00    +0.000 A 
ATOM      8  N   UNL     1       2.014   4.462  21.037  0.00  0.00    +0.000 N 
ATOM      9  C   UNL     1       1.817   6.761  20.233  0.00  0.00    +0.000 A 
ATOM     10  C   UNL     1       0.858   7.171  21.191  0.00  0.00    +0.000 A 
ATOM     11  C   UNL     1       0.349   8.474  21.202  0.00  0.00    +0.000 A 
ATOM     12  C   UNL     1       0.803   9.373  20.226  0.00  0.00    +0.000 A 
ATOM     13  C   UNL     1       1.764   8.945  19.292  0.00  0.00    +0.000 A 
ATOM     14  C   UNL     1       2.280   7.659  19.279  0.00  0.00    +0.000 A 
ATOM     15  N   UNL     1       3.191   7.326  18.357  0.00  0.00    +0.000 NA
ATOM     16  C   UNL     1       5.167   6.766  16.556  0.00  0.00    +0.000 C 
ATOM     17  C   UNL     1       6.585   6.366  16.143  0.00  0.00    +0.000 C 
ATOM     18  H   UNL     1       2.583   3.656  20.780  0.00  0.00    +0.000 HD
ATOM     19  H   UNL     1       2.192   4.741  21.996  0.00  0.00    +0.000 HD
ENDROOT
BRANCH  11  20
ATOM     20  O   UNL     1      -0.567   8.907  22.120  0.00  0.00    +0.000 OA
ATOM     21  C   UNL     1      -0.095   9.562  23.292  0.00  0.00    +0.000 C 
ENDBRANCH  11  20
BRANCH  12  22
ATOM     22  O   UNL     1       0.442  10.679  20.025  0.00  0.00    +0.000 OA
ATOM     23  C   UNL     1       1.150  11.449  19.067  0.00  0.00    +0.000 C 
ENDBRANCH  12  22
BRANCH   1  24
ATOM     24  O   UNL     1       6.039   4.899  14.219  0.00  0.00    +0.000 OA
BRANCH  24  25
ATOM     25  C   UNL     1       5.863   3.561  13.749  0.00  0.00    +0.000 C 
BRANCH  25  26
ATOM     26  C   UNL     1       6.560   3.325  12.399  0.00  0.00    +0.000 C 
ATOM     27  C   UNL     1       7.195   4.612  11.874  0.00  0.00    +0.000 C 
BRANCH  26  28
ATOM     28  O   UNL     1       5.543   2.841  11.508  0.00  0.00    +0.000 OA
BRANCH  28  30
ATOM     29  C   UNL     1       3.538   3.560  10.456  0.00  0.00    +0.000 C 
ATOM     30  C   UNL     1       4.230   3.316  11.783  0.00  0.00    +0.000 C 
ENDBRANCH  28  30
ENDBRANCH  26  28
ENDBRANCH  25  26
ENDBRANCH  24  25
ENDBRANCH   1  24
TORSDOF 7
ENDMDL
MODEL 5
REMARK VINA RESULT:      -6.8      3.811      5.159
REMARK  Name = 
REMARK  11 active torsions:
REMARK  status: ('A' for Active; 'I' for Inactive)
REMARK    1  A    between atoms: C_1  and  C_2
REMARK    2  A    between atoms: C_2  and  O_3
REMARK    3  A    between atoms: O_3  and  C_4
REMARK    4  A    between atoms: C_4  and  C_5
REMARK    5  A    between atoms: C_4  and  C_6
REMARK    6  A    between atoms: C_6  and  O_7
REMARK    7  A    between atoms: O_7  and  C_8
REMARK    8  A    between atoms: C_18  and  O_19
REMARK    9  A    between atoms: O_19  and  C_20
REMARK   10  A    between atoms: C_21  and  O_22
REMARK   11  A    between atoms: O_22  and  C_23
REMARK                            x       y       z     vdW  Elec       q    Type
REMARK                         _______ _______ _______ _____ _____    ______ ____
ROOT
ATOM      1  C   UNL     1       4.566   5.532  17.994  0.00  0.00    +0.000 C 
ATOM      2  C   UNL     1       4.216   5.556  19.487  0.00  0.00    +0.000 C 
ATOM      3  C   UNL     1       2.799   6.076  19.726  0.00  0.00    +0.000 C 
ATOM      4  N   UNL     1       2.688   7.388  19.096  0.00  0.00    +0.000 N 
ATOM      5  C   UNL     1       1.744   8.241  19.642  0.00  0.00    +0.000 A 
ATOM      6  N   UNL     1       1.670   8.313  20.979  0.00  0.00    +0.000 NA
ATOM      7  C   UNL     1       0.846   9.218  21.516  0.00  0.00    +0.000 A 
ATOM      8  N   UNL     1       0.845   9.258  22.918  0.00  0.00    +0.000 N 
ATOM      9  C   UNL     1       0.031  10.053  20.756  0.00  0.00    +0.000 A 
ATOM     10  C   UNL     1      -0.881  11.001  21.281  0.00  0.00    +0.000 A 
ATOM     11  C   UNL     1      -1.672  11.793  20.442  0.00  0.00    +0.000 A 
ATOM     12  C   UNL     1      -1.553  11.617  19.055  0.00  0.00    +0.000 A 
ATOM     13  C   UNL     1      -0.632  10.677  18.559  0.00  0.00    +0.000 A 
ATOM     14  C   UNL     1       0.162   9.894  19.381  0.00  0.00    +0.000 A 
ATOM     15  N   UNL     1       1.014   9.019  18.834  0.00  0.00    +0.000 NA
ATOM     16  C   UNL     1       2.847   7.378  17.647  0.00  0.00    +0.000 C 
ATOM     17  C   UNL     1       4.262   6.887  17.336  0.00  0.00    +0.000 C 
ATOM     18  H   UNL     1       1.552   8.589  23.220  0.00  0.00    +0.000 HD
ATOM     19  H   UNL     1       1.063  10.190  23.255  0.00  0.00    +0.000 HD
ENDROOT
BRANCH  11  20
ATOM     20  O   UNL     1      -2.552  12.727  20.913  0.00  0.00    +0.000 OA
ATOM     21  C   UNL     1      -2.083  13.687  21.852  0.00  0.00    +0.000 C 
ENDBRANCH  11  20
BRANCH  12  22
ATOM     22  O   UNL     1      -2.226  12.255  18.047  0.00  0.00    +0.000 OA
ATOM     23  C   UNL     1      -2.617  11.511  16.904  0.00  0.00    +0.000 C 
ENDBRANCH  12  22
BRANCH   1  24
ATOM     24  O   UNL     1       3.853   4.441  17.385  0.00  0.00    +0.000 OA
BRANCH  24  25
ATOM     25  C   UNL     1       3.849   3.261  18.191  0.00  0.00    +0.000 C 
BRANCH  25  26
ATOM     26  C   UNL     1       2.487   2.548  18.167  0.00  0.00    +0.000 C 
ATOM     27  C   UNL     1       1.353   3.537  17.900  0.00  0.00    +0.000 C 
BRANCH  26  28
ATOM     28  O   UNL     1       2.345   1.921  19.451  0.00  0.00    +0.000 OA
BRANCH  28  30
ATOM     29  C   UNL     1       2.159   2.888  21.613  0.00  0.00    +0.000 C 
ATOM     30  C   UNL     1       3.112   2.513  20.494  0.00  0.00    +0.000 C 
ENDBRANCH  28  30
ENDBRANCH  26  28
ENDBRANCH  25  26
ENDBRANCH  24  25
ENDBRANCH   1  24
TORSDOF 7
ENDMDL
MODEL 6
REMARK VINA RESULT:      -6.6      3.762      5.344
REMARK  Name = 
REMARK  11 active torsions:
REMARK  status: ('A' for Active; 'I' for Inactive)
REMARK    1  A    between atoms: C_1  and  C_2
REMARK    2  A    between atoms: C_2  and  O_3
REMARK    3  A    between atoms: O_3  and  C_4
REMARK    4  A    between atoms: C_4  and  C_5
REMARK    5  A    between atoms: C_4  and  C_6
REMARK    6  A    between atoms: C_6  and  O_7
REMARK    7  A    between atoms: O_7  and  C_8
REMARK    8  A    between atoms: C_18  and  O_19
REMARK    9  A    between atoms: O_19  and  C_20
REMARK   10  A    between atoms: C_21  and  O_22
REMARK   11  A    between atoms: O_22  and  C_23
REMARK                            x       y       z     vdW  Elec       q    Type
REMARK                         _______ _______ _______ _____ _____    ______ ____
ROOT
ATOM      1  C   UNL     1       3.908   5.506  18.283  0.00  0.00    +0.000 C 
ATOM      2  C   UNL     1       3.431   5.398  19.737  0.00  0.00    +0.000 C 
ATOM      3  C   UNL     1       2.143   6.186  19.969  0.00  0.00    +0.000 C 
ATOM      4  N   UNL     1       2.375   7.564  19.548  0.00  0.00    +0.000 N 
ATOM      5  C   UNL     1       1.588   8.523  20.164  0.00  0.00    +0.000 A 
ATOM      6  N   UNL     1       1.406   8.421  21.489  0.00  0.00    +0.000 NA
ATOM      7  C   UNL     1       0.748   9.404  22.111  0.00  0.00    +0.000 A 
ATOM      8  N   UNL     1       0.624   9.246  23.499  0.00  0.00    +0.000 N 
ATOM      9  C   UNL     1       0.207  10.501  21.444  0.00  0.00    +0.000 A 
ATOM     10  C   UNL     1      -0.526  11.547  22.056  0.00  0.00    +0.000 A 
ATOM     11  C   UNL     1      -1.047  12.607  21.306  0.00  0.00    +0.000 A 
ATOM     12  C   UNL     1      -0.838  12.605  19.919  0.00  0.00    +0.000 A 
ATOM     13  C   UNL     1      -0.097  11.561  19.337  0.00  0.00    +0.000 A 
ATOM     14  C   UNL     1       0.430  10.511  20.072  0.00  0.00    +0.000 A 
ATOM     15  N   UNL     1       1.122   9.552  19.447  0.00  0.00    +0.000 NA
ATOM     16  C   UNL     1       2.664   7.722  18.129  0.00  0.00    +0.000 C 
ATOM     17  C   UNL     1       3.964   6.973  17.830  0.00  0.00    +0.000 C 
ATOM     18  H   UNL     1       1.139   8.399  23.733  0.00  0.00    +0.000 HD
ATOM     19  H   UNL     1       1.003  10.048  23.992  0.00  0.00    +0.000 HD
ENDROOT
BRANCH  11  20
ATOM     20  O   UNL     1      -1.746  13.640  21.865  0.00  0.00    +0.000 OA
ATOM     21  C   UNL     1      -3.122  13.442  22.167  0.00  0.00    +0.000 C 
ENDBRANCH  11  20
BRANCH  12  22
ATOM     22  O   UNL     1      -1.260  13.514  18.985  0.00  0.00    +0.000 OA
ATOM     23  C   UNL     1      -0.398  14.581  18.624  0.00  0.00    +0.000 C 
ENDBRANCH  12  22
BRANCH   1  24
ATOM     24  O   UNL     1       3.038   4.701  17.467  0.00  0.00    +0.000 OA
BRANCH  24  25
ATOM     25  C   UNL     1       3.320   3.303  17.564  0.00  0.00    +0.000 C 
BRANCH  25  26
ATOM     26  C   UNL     1       2.104   2.498  18.049  0.00  0.00    +0.000 C 
ATOM     27  C   UNL     1       0.846   3.366  18.079  0.00  0.00    +0.000 C 
BRANCH  26  28
ATOM     28  O   UNL     1       2.442   2.021  19.361  0.00  0.00    +0.000 OA
BRANCH  28  30
ATOM     29  C   UNL     1       2.377   2.613  21.660  0.00  0.00    +0.000 C 
ATOM     30  C   UNL     1       1.558   2.437  20.395  0.00  0.00    +0.000 C 
ENDBRANCH  28  30
ENDBRANCH  26  28
ENDBRANCH  25  26
ENDBRANCH  24  25
ENDBRANCH   1  24
TORSDOF 7
ENDMDL
MODEL 7
REMARK VINA RESULT:      -6.5      3.632      4.832
REMARK  Name = 
REMARK  11 active torsions:
REMARK  status: ('A' for Active; 'I' for Inactive)
REMARK    1  A    between atoms: C_1  and  C_2
REMARK    2  A    between atoms: C_2  and  O_3
REMARK    3  A    between atoms: O_3  and  C_4
REMARK    4  A    between atoms: C_4  and  C_5
REMARK    5  A    between atoms: C_4  and  C_6
REMARK    6  A    between atoms: C_6  and  O_7
REMARK    7  A    between atoms: O_7  and  C_8
REMARK    8  A    between atoms: C_18  and  O_19
REMARK    9  A    between atoms: O_19  and  C_20
REMARK   10  A    between atoms: C_21  and  O_22
REMARK   11  A    between atoms: O_22  and  C_23
REMARK                            x       y       z     vdW  Elec       q    Type
REMARK                         _______ _______ _______ _____ _____    ______ ____
ROOT
ATOM      1  C   UNL     1       4.629   5.699  17.879  0.00  0.00    +0.000 C 
ATOM      2  C   UNL     1       4.279   5.694  19.372  0.00  0.00    +0.000 C 
ATOM      3  C   UNL     1       2.850   6.173  19.619  0.00  0.00    +0.000 C 
ATOM      4  N   UNL     1       2.703   7.489  19.007  0.00  0.00    +0.000 N 
ATOM      5  C   UNL     1       1.737   8.309  19.565  0.00  0.00    +0.000 A 
ATOM      6  N   UNL     1       1.662   8.361  20.903  0.00  0.00    +0.000 NA
ATOM      7  C   UNL     1       0.814   9.236  21.453  0.00  0.00    +0.000 A 
ATOM      8  N   UNL     1       0.813   9.258  22.855  0.00  0.00    +0.000 N 
ATOM      9  C   UNL     1      -0.023  10.060  20.704  0.00  0.00    +0.000 A 
ATOM     10  C   UNL     1      -0.959  10.977  21.242  0.00  0.00    +0.000 A 
ATOM     11  C   UNL     1      -1.771  11.759  20.414  0.00  0.00    +0.000 A 
ATOM     12  C   UNL     1      -1.648  11.605  19.025  0.00  0.00    +0.000 A 
ATOM     13  C   UNL     1      -0.703  10.697  18.515  0.00  0.00    +0.000 A 
ATOM     14  C   UNL     1       0.112   9.924  19.327  0.00  0.00    +0.000 A 
ATOM     15  N   UNL     1       0.986   9.080  18.768  0.00  0.00    +0.000 NA
ATOM     16  C   UNL     1       2.862   7.503  17.558  0.00  0.00    +0.000 C 
ATOM     17  C   UNL     1       4.289   7.055  17.240  0.00  0.00    +0.000 C 
ATOM     18  H   UNL     1       1.537   8.603  23.147  0.00  0.00    +0.000 HD
ATOM     19  H   UNL     1       1.006  10.190  23.205  0.00  0.00    +0.000 HD
ENDROOT
BRANCH  11  20
ATOM     20  O   UNL     1      -2.675  12.663  20.898  0.00  0.00    +0.000 OA
ATOM     21  C   UNL     1      -2.233  13.989  21.162  0.00  0.00    +0.000 C 
ENDBRANCH  11  20
BRANCH  12  22
ATOM     22  O   UNL     1      -2.339  12.238  18.026  0.00  0.00    +0.000 OA
ATOM     23  C   UNL     1      -2.718  11.498  16.877  0.00  0.00    +0.000 C 
ENDBRANCH  12  22
BRANCH   1  24
ATOM     24  O   UNL     1       3.945   4.599  17.255  0.00  0.00    +0.000 OA
BRANCH  24  25
ATOM     25  C   UNL     1       4.435   3.325  17.682  0.00  0.00    +0.000 C 
BRANCH  25  26
ATOM     26  C   UNL     1       3.420   2.580  18.565  0.00  0.00    +0.000 C 
ATOM     27  C   UNL     1       3.670   1.073  18.538  0.00  0.00    +0.000 C 
BRANCH  26  28
ATOM     28  O   UNL     1       2.124   2.906  18.039  0.00  0.00    +0.000 OA
BRANCH  28  30
ATOM     29  C   UNL     1       0.850   3.117  20.032  0.00  0.00    +0.000 C 
ATOM     30  C   UNL     1       1.030   2.334  18.746  0.00  0.00    +0.000 C 
ENDBRANCH  28  30
ENDBRANCH  26  28
ENDBRANCH  25  26
ENDBRANCH  24  25
ENDBRANCH   1  24
TORSDOF 7
ENDMDL
MODEL 8
REMARK VINA RESULT:      -6.5      3.878      5.455
REMARK  Name = 
REMARK  11 active torsions:
REMARK  status: ('A' for Active; 'I' for Inactive)
REMARK    1  A    between atoms: C_1  and  C_2
REMARK    2  A    between atoms: C_2  and  O_3
REMARK    3  A    between atoms: O_3  and  C_4
REMARK    4  A    between atoms: C_4  and  C_5
REMARK    5  A    between atoms: C_4  and  C_6
REMARK    6  A    between atoms: C_6  and  O_7
REMARK    7  A    between atoms: O_7  and  C_8
REMARK    8  A    between atoms: C_18  and  O_19
REMARK    9  A    between atoms: O_19  and  C_20
REMARK   10  A    between atoms: C_21  and  O_22
REMARK   11  A    between atoms: O_22  and  C_23
REMARK                            x       y       z     vdW  Elec       q    Type
REMARK                         _______ _______ _______ _____ _____    ______ ____
ROOT
ATOM      1  C   UNL     1       3.288   5.384  18.890  0.00  0.00    +0.000 C 
ATOM      2  C   UNL     1       2.650   5.317  20.283  0.00  0.00    +0.000 C 
ATOM      3  C   UNL     1       1.456   6.262  20.404  0.00  0.00    +0.000 C 
ATOM      4  N   UNL     1       1.906   7.605  20.050  0.00  0.00    +0.000 N 
ATOM      5  C   UNL     1       1.188   8.648  20.609  0.00  0.00    +0.000 A 
ATOM      6  N   UNL     1       0.855   8.551  21.904  0.00  0.00    +0.000 NA
ATOM      7  C   UNL     1       0.266   9.601  22.484  0.00  0.00    +0.000 A 
ATOM      8  N   UNL     1      -0.024   9.440  23.847  0.00  0.00    +0.000 N 
ATOM      9  C   UNL     1      -0.057  10.769  21.797  0.00  0.00    +0.000 A 
ATOM     10  C   UNL     1      -0.710  11.892  22.360  0.00  0.00    +0.000 A 
ATOM     11  C   UNL     1      -1.009  13.023  21.591  0.00  0.00    +0.000 A 
ATOM     12  C   UNL     1      -0.656  13.015  20.234  0.00  0.00    +0.000 A 
ATOM     13  C   UNL     1       0.002  11.892  19.701  0.00  0.00    +0.000 A 
ATOM     14  C   UNL     1       0.310  10.772  20.456  0.00  0.00    +0.000 A 
ATOM     15  N   UNL     1       0.935   9.741  19.878  0.00  0.00    +0.000 NA
ATOM     16  C   UNL     1       2.361   7.746  18.673  0.00  0.00    +0.000 C 
ATOM     17  C   UNL     1       3.579   6.838  18.488  0.00  0.00    +0.000 C 
ATOM     18  H   UNL     1       0.351   8.529  24.108  0.00  0.00    +0.000 HD
ATOM     19  H   UNL     1       0.401  10.177  24.399  0.00  0.00    +0.000 HD
ENDROOT
BRANCH  11  20
ATOM     20  O   UNL     1      -1.625  14.130  22.105  0.00  0.00    +0.000 OA
ATOM     21  C   UNL     1      -0.970  14.852  23.140  0.00  0.00    +0.000 C 
ENDBRANCH  11  20
BRANCH  12  22
ATOM     22  O   UNL     1      -0.858  13.985  19.288  0.00  0.00    +0.000 OA
ATOM     23  C   UNL     1       0.077  15.047  19.182  0.00  0.00    +0.000 C 
ENDBRANCH  12  22
BRANCH   1  24
ATOM     24  O   UNL     1       2.414   4.712  17.966  0.00  0.00    +0.000 OA
BRANCH  24  25
ATOM     25  C   UNL     1       3.047   3.620  17.295  0.00  0.00    +0.000 C 
BRANCH  25  26
ATOM     26  C   UNL     1       2.435   2.265  17.686  0.00  0.00    +0.000 C 
ATOM     27  C   UNL     1       1.151   2.454  18.493  0.00  0.00    +0.000 C 
BRANCH  26  28
ATOM     28  O   UNL     1       3.441   1.584  18.453  0.00  0.00    +0.000 OA
BRANCH  28  30
ATOM     29  C   UNL     1       4.697   2.165  20.383  0.00  0.00    +0.000 C 
ATOM     30  C   UNL     1       3.334   1.750  19.862  0.00  0.00    +0.000 C 
ENDBRANCH  28  30
ENDBRANCH  26  28
ENDBRANCH  25  26
ENDBRANCH  24  25
ENDBRANCH   1  24
TORSDOF 7
ENDMDL
MODEL 9
REMARK VINA RESULT:      -6.5      3.913      5.466
REMARK  Name = 
REMARK  11 active torsions:
REMARK  status: ('A' for Active; 'I' for Inactive)
REMARK    1  A    between atoms: C_1  and  C_2
REMARK    2  A    between atoms: C_2  and  O_3
REMARK    3  A    between atoms: O_3  and  C_4
REMARK    4  A    between atoms: C_4  and  C_5
REMARK    5  A    between atoms: C_4  and  C_6
REMARK    6  A    between atoms: C_6  and  O_7
REMARK    7  A    between atoms: O_7  and  C_8
REMARK    8  A    between atoms: C_18  and  O_19
REMARK    9  A    between atoms: O_19  and  C_20
REMARK   10  A    between atoms: C_21  and  O_22
REMARK   11  A    between atoms: O_22  and  C_23
REMARK                            x       y       z     vdW  Elec       q    Type
REMARK                         _______ _______ _______ _____ _____    ______ ____
ROOT
ATOM      1  C   UNL     1       3.575   6.300  18.243  0.00  0.00    +0.000 C 
ATOM      2  C   UNL     1       3.384   6.097  19.751  0.00  0.00    +0.000 C 
ATOM      3  C   UNL     1       2.020   6.600  20.220  0.00  0.00    +0.000 C 
ATOM      4  N   UNL     1       1.889   7.995  19.815  0.00  0.00    +0.000 N 
ATOM      5  C   UNL     1       1.038   8.770  20.584  0.00  0.00    +0.000 A 
ATOM      6  N   UNL     1       1.108   8.634  21.917  0.00  0.00    +0.000 NA
ATOM      7  C   UNL     1       0.376   9.459  22.673  0.00  0.00    +0.000 A 
ATOM      8  N   UNL     1       0.524   9.281  24.056  0.00  0.00    +0.000 N 
ATOM      9  C   UNL     1      -0.484  10.418  22.142  0.00  0.00    +0.000 A 
ATOM     10  C   UNL     1      -1.301  11.290  22.903  0.00  0.00    +0.000 A 
ATOM     11  C   UNL     1      -2.148  12.218  22.286  0.00  0.00    +0.000 A 
ATOM     12  C   UNL     1      -2.181  12.258  20.884  0.00  0.00    +0.000 A 
ATOM     13  C   UNL     1      -1.351  11.389  20.152  0.00  0.00    +0.000 A 
ATOM     14  C   UNL     1      -0.503  10.473  20.754  0.00  0.00    +0.000 A 
ATOM     15  N   UNL     1       0.255   9.679  19.990  0.00  0.00    +0.000 NA
ATOM     16  C   UNL     1       1.895   8.208  18.373  0.00  0.00    +0.000 C 
ATOM     17  C   UNL     1       3.252   7.746  17.838  0.00  0.00    +0.000 C 
ATOM     18  H   UNL     1       1.234   8.559  24.173  0.00  0.00    +0.000 HD
ATOM     19  H   UNL     1       0.808  10.145  24.506  0.00  0.00    +0.000 HD
ENDROOT
BRANCH  11  20
ATOM     20  O   UNL     1      -2.940  13.083  22.988  0.00  0.00    +0.000 OA
ATOM     21  C   UNL     1      -2.313  14.087  23.777  0.00  0.00    +0.000 C 
ENDBRANCH  11  20
BRANCH  12  22
ATOM     22  O   UNL     1      -2.933  13.057  20.065  0.00  0.00    +0.000 OA
ATOM     23  C   UNL     1      -4.054  12.498  19.399  0.00  0.00    +0.000 C 
ENDBRANCH  12  22
BRANCH   1  24
ATOM     24  O   UNL     1       2.764   5.331  17.556  0.00  0.00    +0.000 OA
BRANCH  24  25
ATOM     25  C   UNL     1       3.395   4.052  17.451  0.00  0.00    +0.000 C 
BRANCH  25  26
ATOM     26  C   UNL     1       2.999   3.114  18.603  0.00  0.00    +0.000 C 
ATOM     27  C   UNL     1       4.203   2.316  19.101  0.00  0.00    +0.000 C 
BRANCH  26  28
ATOM     28  O   UNL     1       1.978   2.251  18.079  0.00  0.00    +0.000 OA
BRANCH  28  30
ATOM     29  C   UNL     1       0.909   3.103  20.021  0.00  0.00    +0.000 C 
ATOM     30  C   UNL     1       0.706   2.380  18.704  0.00  0.00    +0.000 C 
ENDBRANCH  28  30
ENDBRANCH  26  28
ENDBRANCH  25  26
ENDBRANCH  24  25
ENDBRANCH   1  24
TORSDOF 7
ENDMDL
