MODEL 1
REMARK VINA RESULT:      -9.2      0.000      0.000
REMARK  Name = 
REMARK  5 active torsions:
REMARK  status: ('A' for Active; 'I' for Inactive)
REMARK    1  A    between atoms: C_1  and  C_2
REMARK    2  A    between atoms: C_2  and  C_3
REMARK    3  A    between atoms: C_9  and  C_11
REMARK    4  A    between atoms: N_19  and  C_20
REMARK    5  A    between atoms: C_20  and  C_21
REMARK                            x       y       z     vdW  Elec       q    Type
REMARK                         _______ _______ _______ _____ _____    ______ ____
ROOT
ATOM      1  C   UNL     1       3.654   2.647  17.600  0.00  0.00    +0.000 C 
ATOM      2  C   UNL     1       4.093   2.978  19.037  0.00  0.00    +0.000 C 
ATOM      3  C   UNL     1       4.594   1.739  19.785  0.00  0.00    +0.000 C 
ATOM      4  C   UNL     1       2.960   3.587  19.747  0.00  0.00    +0.000 A 
ATOM      5  N   UNL     1       1.750   3.205  20.195  0.00  0.00    +0.000 N 
ATOM      6  N   UNL     1       1.121   4.227  20.825  0.00  0.00    +0.000 NA
ATOM      7  C   UNL     1       1.915   5.292  20.596  0.00  0.00    +0.000 A 
ATOM      8  N   UNL     1       1.467   6.515  20.977  0.00  0.00    +0.000 N 
ATOM      9  C   UNL     1       1.678   7.645  20.218  0.00  0.00    +0.000 C 
ATOM     10  O   UNL     1       2.278   7.673  19.145  0.00  0.00    +0.000 OA
ATOM     11  C   UNL     1       3.118   4.910  20.012  0.00  0.00    +0.000 A 
ATOM     12  C   UNL     1       4.434   5.377  19.573  0.00  0.00    +0.000 C 
ATOM     13  N   UNL     1       5.121   4.081  19.175  0.00  0.00    +0.000 NA
ATOM     14  H   UNL     1       1.278   2.311  20.125  0.00  0.00    +0.000 HD
ATOM     15  H   UNL     1       0.712   6.475  21.630  0.00  0.00    +0.000 HD
ENDROOT
BRANCH   9  16
ATOM     16  C   UNL     1       1.086   8.912  20.738  0.00  0.00    +0.000 A 
ATOM     17  C   UNL     1       0.774   8.968  22.104  0.00  0.00    +0.000 A 
ATOM     18  C   UNL     1       0.092  10.064  22.630  0.00  0.00    +0.000 A 
ATOM     19  C   UNL     1      -0.267  11.123  21.799  0.00  0.00    +0.000 A 
ATOM     20  C   UNL     1       0.084  11.104  20.451  0.00  0.00    +0.000 A 
ATOM     21  C   UNL     1       0.772  10.008  19.924  0.00  0.00    +0.000 A 
ENDBRANCH   9  16
BRANCH  13  22
ATOM     22  C   UNL     1       6.015   4.259  18.026  0.00  0.00    +0.000 C 
BRANCH  22  23
ATOM     23  C   UNL     1       6.701   5.607  17.993  0.00  0.00    +0.000 A 
ATOM     24  C   UNL     1       7.761   5.906  18.863  0.00  0.00    +0.000 A 
ATOM     25  C   UNL     1       8.374   7.163  18.829  0.00  0.00    +0.000 A 
ATOM     26  C   UNL     1       7.938   8.133  17.928  0.00  0.00    +0.000 A 
ATOM     27  C   UNL     1       6.905   7.839  17.042  0.00  0.00    +0.000 A 
ATOM     28  C   UNL     1       6.303   6.583  17.075  0.00  0.00    +0.000 A 
ATOM     29  F   UNL     1       5.323   6.321  16.198  0.00  0.00    +0.000 F 
ENDBRANCH  22  23
ENDBRANCH  13  22
TORSDOF 3
ENDMDL
MODEL 2
REMARK VINA RESULT:      -9.0      0.909      1.298
REMARK  Name = 
REMARK  5 active torsions:
REMARK  status: ('A' for Active; 'I' for Inactive)
REMARK    1  A    between atoms: C_1  and  C_2
REMARK    2  A    between atoms: C_2  and  C_3
REMARK    3  A    between atoms: C_9  and  C_11
REMARK    4  A    between atoms: N_19  and  C_20
REMARK    5  A    between atoms: C_20  and  C_21
REMARK                            x       y       z     vdW  Elec       q    Type
REMARK                         _______ _______ _______ _____ _____    ______ ____
ROOT
ATOM      1  C   UNL     1       3.746   2.726  17.604  0.00  0.00    +0.000 C 
ATOM      2  C   UNL     1       4.177   3.068  19.041  0.00  0.00    +0.000 C 
ATOM      3  C   UNL     1       4.692   1.839  19.796  0.00  0.00    +0.000 C 
ATOM      4  C   UNL     1       3.033   3.664  19.745  0.00  0.00    +0.000 A 
ATOM      5  N   UNL     1       1.828   3.269  20.191  0.00  0.00    +0.000 N 
ATOM      6  N   UNL     1       1.183   4.285  20.815  0.00  0.00    +0.000 NA
ATOM      7  C   UNL     1       1.963   5.359  20.585  0.00  0.00    +0.000 A 
ATOM      8  N   UNL     1       1.498   6.578  20.959  0.00  0.00    +0.000 N 
ATOM      9  C   UNL     1       1.696   7.707  20.196  0.00  0.00    +0.000 C 
ATOM     10  O   UNL     1       2.298   7.739  19.125  0.00  0.00    +0.000 OA
ATOM     11  C   UNL     1       3.173   4.991  20.006  0.00  0.00    +0.000 A 
ATOM     12  C   UNL     1       4.484   5.473  19.568  0.00  0.00    +0.000 C 
ATOM     13  N   UNL     1       5.190   4.185  19.177  0.00  0.00    +0.000 NA
ATOM     14  H   UNL     1       1.367   2.368  20.124  0.00  0.00    +0.000 HD
ATOM     15  H   UNL     1       0.741   6.530  21.610  0.00  0.00    +0.000 HD
ENDROOT
BRANCH   9  16
ATOM     16  C   UNL     1       1.086   8.968  20.709  0.00  0.00    +0.000 A 
ATOM     17  C   UNL     1       0.679   8.992  22.050  0.00  0.00    +0.000 A 
ATOM     18  C   UNL     1      -0.023  10.082  22.559  0.00  0.00    +0.000 A 
ATOM     19  C   UNL     1      -0.310  11.170  21.735  0.00  0.00    +0.000 A 
ATOM     20  C   UNL     1       0.135  11.182  20.415  0.00  0.00    +0.000 A 
ATOM     21  C   UNL     1       0.844  10.091  19.906  0.00  0.00    +0.000 A 
ENDBRANCH   9  16
BRANCH  13  22
ATOM     22  C   UNL     1       6.084   4.371  18.031  0.00  0.00    +0.000 C 
BRANCH  22  23
ATOM     23  C   UNL     1       6.700   5.750  17.957  0.00  0.00    +0.000 A 
ATOM     24  C   UNL     1       6.216   6.716  17.061  0.00  0.00    +0.000 A 
ATOM     25  C   UNL     1       6.807   7.982  16.994  0.00  0.00    +0.000 A 
ATOM     26  C   UNL     1       7.885   8.299  17.821  0.00  0.00    +0.000 A 
ATOM     27  C   UNL     1       8.357   7.358  18.732  0.00  0.00    +0.000 A 
ATOM     28  C   UNL     1       7.760   6.101  18.799  0.00  0.00    +0.000 A 
ATOM     29  F   UNL     1       8.221   5.220  19.699  0.00  0.00    +0.000 F 
ENDBRANCH  22  23
ENDBRANCH  13  22
TORSDOF 3
ENDMDL
MODEL 3
REMARK VINA RESULT:      -8.1      3.490      8.929
REMARK  Name = 
REMARK  5 active torsions:
REMARK  status: ('A' for Active; 'I' for Inactive)
REMARK    1  A    between atoms: C_1  and  C_2
REMARK    2  A    between atoms: C_2  and  C_3
REMARK    3  A    between atoms: C_9  and  C_11
REMARK    4  A    between atoms: N_19  and  C_20
REMARK    5  A    between atoms: C_20  and  C_21
REMARK                            x       y       z     vdW  Elec       q    Type
REMARK                         _______ _______ _______ _____ _____    ______ ____
ROOT
ATOM      1  C   UNL     1       0.387  12.668  21.199  0.00  0.00    +0.000 C 
ATOM      2  C   UNL     1      -0.470  11.398  21.345  0.00  0.00    +0.000 C 
ATOM      3  C   UNL     1      -1.482  11.516  22.489  0.00  0.00    +0.000 C 
ATOM      4  C   UNL     1       0.422  10.251  21.562  0.00  0.00    +0.000 A 
ATOM      5  N   UNL     1       1.255   9.810  22.521  0.00  0.00    +0.000 N 
ATOM      6  N   UNL     1       1.818   8.628  22.170  0.00  0.00    +0.000 NA
ATOM      7  C   UNL     1       1.432   8.448  20.892  0.00  0.00    +0.000 A 
ATOM      8  N   UNL     1       1.971   7.410  20.202  0.00  0.00    +0.000 N 
ATOM      9  C   UNL     1       2.322   7.511  18.875  0.00  0.00    +0.000 C 
ATOM     10  O   UNL     1       2.191   8.520  18.184  0.00  0.00    +0.000 OA
ATOM     11  C   UNL     1       0.482   9.390  20.512  0.00  0.00    +0.000 A 
ATOM     12  C   UNL     1      -0.431   9.803  19.445  0.00  0.00    +0.000 C 
ATOM     13  N   UNL     1      -1.195  10.945  20.096  0.00  0.00    +0.000 NA
ATOM     14  H   UNL     1       1.503  10.221  23.414  0.00  0.00    +0.000 HD
ATOM     15  H   UNL     1       2.397   6.722  20.790  0.00  0.00    +0.000 HD
ENDROOT
BRANCH   9  16
ATOM     16  C   UNL     1       2.948   6.304  18.261  0.00  0.00    +0.000 A 
ATOM     17  C   UNL     1       4.169   6.475  17.594  0.00  0.00    +0.000 A 
ATOM     18  C   UNL     1       4.740   5.424  16.880  0.00  0.00    +0.000 A 
ATOM     19  C   UNL     1       4.104   4.184  16.841  0.00  0.00    +0.000 A 
ATOM     20  C   UNL     1       2.917   3.985  17.543  0.00  0.00    +0.000 A 
ATOM     21  C   UNL     1       2.347   5.038  18.264  0.00  0.00    +0.000 A 
ENDBRANCH   9  16
BRANCH  13  22
ATOM     22  C   UNL     1      -1.528  12.004  19.139  0.00  0.00    +0.000 C 
BRANCH  22  23
ATOM     23  C   UNL     1      -2.936  11.912  18.596  0.00  0.00    +0.000 A 
ATOM     24  C   UNL     1      -4.039  12.334  19.355  0.00  0.00    +0.000 A 
ATOM     25  C   UNL     1      -5.336  12.228  18.844  0.00  0.00    +0.000 A 
ATOM     26  C   UNL     1      -5.549  11.701  17.570  0.00  0.00    +0.000 A 
ATOM     27  C   UNL     1      -4.461  11.302  16.797  0.00  0.00    +0.000 A 
ATOM     28  C   UNL     1      -3.171  11.417  17.309  0.00  0.00    +0.000 A 
ATOM     29  F   UNL     1      -2.141  11.044  16.536  0.00  0.00    +0.000 F 
ENDBRANCH  22  23
ENDBRANCH  13  22
TORSDOF 3
ENDMDL
MODEL 4
REMARK VINA RESULT:      -8.1      2.945      7.389
REMARK  Name = 
REMARK  5 active torsions:
REMARK  status: ('A' for Active; 'I' for Inactive)
REMARK    1  A    between atoms: C_1  and  C_2
REMARK    2  A    between atoms: C_2  and  C_3
REMARK    3  A    between atoms: C_9  and  C_11
REMARK    4  A    between atoms: N_19  and  C_20
REMARK    5  A    between atoms: C_20  and  C_21
REMARK                            x       y       z     vdW  Elec       q    Type
REMARK                         _______ _______ _______ _____ _____    ______ ____
ROOT
ATOM      1  C   UNL     1       3.059   4.380  21.234  0.00  0.00    +0.000 C 
ATOM      2  C   UNL     1       2.136   4.533  20.013  0.00  0.00    +0.000 C 
ATOM      3  C   UNL     1       0.681   4.189  20.345  0.00  0.00    +0.000 C 
ATOM      4  C   UNL     1       2.637   3.670  18.934  0.00  0.00    +0.000 A 
ATOM      5  N   UNL     1       2.754   2.352  18.692  0.00  0.00    +0.000 N 
ATOM      6  N   UNL     1       3.290   2.129  17.467  0.00  0.00    +0.000 NA
ATOM      7  C   UNL     1       3.654   3.354  17.040  0.00  0.00    +0.000 A 
ATOM      8  N   UNL     1       4.371   3.443  15.892  0.00  0.00    +0.000 N 
ATOM      9  C   UNL     1       5.403   4.341  15.735  0.00  0.00    +0.000 C 
ATOM     10  O   UNL     1       5.779   5.141  16.591  0.00  0.00    +0.000 OA
ATOM     11  C   UNL     1       3.174   4.348  17.886  0.00  0.00    +0.000 A 
ATOM     12  C   UNL     1       3.047   5.794  18.080  0.00  0.00    +0.000 C 
ATOM     13  N   UNL     1       2.175   5.879  19.322  0.00  0.00    +0.000 NA
ATOM     14  H   UNL     1       2.510   1.556  19.270  0.00  0.00    +0.000 HD
ATOM     15  H   UNL     1       4.330   2.615  15.333  0.00  0.00    +0.000 HD
ENDROOT
BRANCH   9  16
ATOM     16  C   UNL     1       6.133   4.292  14.435  0.00  0.00    +0.000 A 
ATOM     17  C   UNL     1       7.237   5.143  14.279  0.00  0.00    +0.000 A 
ATOM     18  C   UNL     1       7.879   5.252  13.048  0.00  0.00    +0.000 A 
ATOM     19  C   UNL     1       7.434   4.497  11.963  0.00  0.00    +0.000 A 
ATOM     20  C   UNL     1       6.373   3.608  12.118  0.00  0.00    +0.000 A 
ATOM     21  C   UNL     1       5.732   3.494  13.355  0.00  0.00    +0.000 A 
ENDBRANCH   9  16
BRANCH  13  22
ATOM     22  C   UNL     1       2.536   7.017  20.173  0.00  0.00    +0.000 C 
BRANCH  22  23
ATOM     23  C   UNL     1       1.505   8.123  20.180  0.00  0.00    +0.000 A 
ATOM     24  C   UNL     1       0.642   8.308  21.272  0.00  0.00    +0.000 A 
ATOM     25  C   UNL     1      -0.317   9.326  21.255  0.00  0.00    +0.000 A 
ATOM     26  C   UNL     1      -0.425  10.172  20.151  0.00  0.00    +0.000 A 
ATOM     27  C   UNL     1       0.443  10.015  19.073  0.00  0.00    +0.000 A 
ATOM     28  C   UNL     1       1.400   9.003  19.098  0.00  0.00    +0.000 A 
ATOM     29  F   UNL     1       2.235   8.887  18.056  0.00  0.00    +0.000 F 
ENDBRANCH  22  23
ENDBRANCH  13  22
TORSDOF 3
ENDMDL
MODEL 5
REMARK VINA RESULT:      -8.1      3.810      9.011
REMARK  Name = 
REMARK  5 active torsions:
REMARK  status: ('A' for Active; 'I' for Inactive)
REMARK    1  A    between atoms: C_1  and  C_2
REMARK    2  A    between atoms: C_2  and  C_3
REMARK    3  A    between atoms: C_9  and  C_11
REMARK    4  A    between atoms: N_19  and  C_20
REMARK    5  A    between atoms: C_20  and  C_21
REMARK                            x       y       z     vdW  Elec       q    Type
REMARK                         _______ _______ _______ _____ _____    ______ ____
ROOT
ATOM      1  C   UNL     1       0.443  12.630  21.270  0.00  0.00    +0.000 C 
ATOM      2  C   UNL     1      -0.415  11.357  21.378  0.00  0.00    +0.000 C 
ATOM      3  C   UNL     1      -1.410  11.431  22.540  0.00  0.00    +0.000 C 
ATOM      4  C   UNL     1       0.479  10.201  21.537  0.00  0.00    +0.000 A 
ATOM      5  N   UNL     1       1.325   9.722  22.466  0.00  0.00    +0.000 N 
ATOM      6  N   UNL     1       1.881   8.554  22.062  0.00  0.00    +0.000 NA
ATOM      7  C   UNL     1       1.477   8.424  20.783  0.00  0.00    +0.000 A 
ATOM      8  N   UNL     1       2.004   7.414  20.046  0.00  0.00    +0.000 N 
ATOM      9  C   UNL     1       2.336   7.567  18.718  0.00  0.00    +0.000 C 
ATOM     10  O   UNL     1       2.196   8.602  18.070  0.00  0.00    +0.000 OA
ATOM     11  C   UNL     1       0.522   9.381  20.454  0.00  0.00    +0.000 A 
ATOM     12  C   UNL     1      -0.405   9.837  19.417  0.00  0.00    +0.000 C 
ATOM     13  N   UNL     1      -1.158  10.953  20.123  0.00  0.00    +0.000 NA
ATOM     14  H   UNL     1       1.585  10.098  23.371  0.00  0.00    +0.000 HD
ATOM     15  H   UNL     1       2.437   6.704  20.600  0.00  0.00    +0.000 HD
ENDROOT
BRANCH   9  16
ATOM     16  C   UNL     1       2.951   6.384  18.049  0.00  0.00    +0.000 A 
ATOM     17  C   UNL     1       2.253   5.169  18.110  0.00  0.00    +0.000 A 
ATOM     18  C   UNL     1       2.830   3.995  17.631  0.00  0.00    +0.000 A 
ATOM     19  C   UNL     1       4.106   4.027  17.069  0.00  0.00    +0.000 A 
ATOM     20  C   UNL     1       4.789   5.236  16.954  0.00  0.00    +0.000 A 
ATOM     21  C   UNL     1       4.208   6.415  17.429  0.00  0.00    +0.000 A 
ENDBRANCH   9  16
BRANCH  13  22
ATOM     22  C   UNL     1      -1.503  12.049  19.212  0.00  0.00    +0.000 C 
BRANCH  22  23
ATOM     23  C   UNL     1      -2.864  11.900  18.570  0.00  0.00    +0.000 A 
ATOM     24  C   UNL     1      -3.000  11.429  17.254  0.00  0.00    +0.000 A 
ATOM     25  C   UNL     1      -4.265  11.312  16.670  0.00  0.00    +0.000 A 
ATOM     26  C   UNL     1      -5.407  11.661  17.390  0.00  0.00    +0.000 A 
ATOM     27  C   UNL     1      -5.287  12.105  18.704  0.00  0.00    +0.000 A 
ATOM     28  C   UNL     1      -4.025  12.213  19.284  0.00  0.00    +0.000 A 
ATOM     29  F   UNL     1      -3.939  12.624  20.557  0.00  0.00    +0.000 F 
ENDBRANCH  22  23
ENDBRANCH  13  22
TORSDOF 3
ENDMDL
MODEL 6
REMARK VINA RESULT:      -8.1      3.715      8.869
REMARK  Name = 
REMARK  5 active torsions:
REMARK  status: ('A' for Active; 'I' for Inactive)
REMARK    1  A    between atoms: C_1  and  C_2
REMARK    2  A    between atoms: C_2  and  C_3
REMARK    3  A    between atoms: C_9  and  C_11
REMARK    4  A    between atoms: N_19  and  C_20
REMARK    5  A    between atoms: C_20  and  C_21
REMARK                            x       y       z     vdW  Elec       q    Type
REMARK                         _______ _______ _______ _____ _____    ______ ____
ROOT
ATOM      1  C   UNL     1       0.679  12.589  20.988  0.00  0.00    +0.000 C 
ATOM      2  C   UNL     1      -0.245  11.373  21.175  0.00  0.00    +0.000 C 
ATOM      3  C   UNL     1      -1.252  11.585  22.309  0.00  0.00    +0.000 C 
ATOM      4  C   UNL     1       0.584  10.188  21.437  0.00  0.00    +0.000 A 
ATOM      5  N   UNL     1       1.390   9.738  22.415  0.00  0.00    +0.000 N 
ATOM      6  N   UNL     1       1.890   8.516  22.109  0.00  0.00    +0.000 NA
ATOM      7  C   UNL     1       1.499   8.311  20.836  0.00  0.00    +0.000 A 
ATOM      8  N   UNL     1       1.984   7.222  20.187  0.00  0.00    +0.000 N 
ATOM      9  C   UNL     1       2.344   7.257  18.858  0.00  0.00    +0.000 C 
ATOM     10  O   UNL     1       2.268   8.246  18.132  0.00  0.00    +0.000 OA
ATOM     11  C   UNL     1       0.601   9.288  20.419  0.00  0.00    +0.000 A 
ATOM     12  C   UNL     1      -0.285   9.711  19.333  0.00  0.00    +0.000 C 
ATOM     13  N   UNL     1      -0.989  10.914  19.940  0.00  0.00    +0.000 NA
ATOM     14  H   UNL     1       1.656  10.168  23.294  0.00  0.00    +0.000 HD
ATOM     15  H   UNL     1       2.371   6.535  20.800  0.00  0.00    +0.000 HD
ENDROOT
BRANCH   9  16
ATOM     16  C   UNL     1       2.906   5.997  18.291  0.00  0.00    +0.000 A 
ATOM     17  C   UNL     1       4.255   6.004  17.910  0.00  0.00    +0.000 A 
ATOM     18  C   UNL     1       4.810   4.911  17.246  0.00  0.00    +0.000 A 
ATOM     19  C   UNL     1       4.024   3.793  16.973  0.00  0.00    +0.000 A 
ATOM     20  C   UNL     1       2.696   3.752  17.393  0.00  0.00    +0.000 A 
ATOM     21  C   UNL     1       2.141   4.845  18.064  0.00  0.00    +0.000 A 
ENDBRANCH   9  16
BRANCH  13  22
ATOM     22  C   UNL     1      -1.263  11.954  18.943  0.00  0.00    +0.000 C 
BRANCH  22  23
ATOM     23  C   UNL     1      -2.562  11.753  18.195  0.00  0.00    +0.000 A 
ATOM     24  C   UNL     1      -2.574  11.292  16.869  0.00  0.00    +0.000 A 
ATOM     25  C   UNL     1      -3.783  11.126  16.186  0.00  0.00    +0.000 A 
ATOM     26  C   UNL     1      -4.993  11.416  16.818  0.00  0.00    +0.000 A 
ATOM     27  C   UNL     1      -4.995  11.848  18.141  0.00  0.00    +0.000 A 
ATOM     28  C   UNL     1      -3.788  12.004  18.819  0.00  0.00    +0.000 A 
ATOM     29  F   UNL     1      -3.820  12.403  20.098  0.00  0.00    +0.000 F 
ENDBRANCH  22  23
ENDBRANCH  13  22
TORSDOF 3
ENDMDL
MODEL 7
REMARK VINA RESULT:      -8.1      2.504      4.700
REMARK  Name = 
REMARK  5 active torsions:
REMARK  status: ('A' for Active; 'I' for Inactive)
REMARK    1  A    between atoms: C_1  and  C_2
REMARK    2  A    between atoms: C_2  and  C_3
REMARK    3  A    between atoms: C_9  and  C_11
REMARK    4  A    between atoms: N_19  and  C_20
REMARK    5  A    between atoms: C_20  and  C_21
REMARK                            x       y       z     vdW  Elec       q    Type
REMARK                         _______ _______ _______ _____ _____    ______ ____
ROOT
ATOM      1  C   UNL     1       5.971   4.034  17.889  0.00  0.00    +0.000 C 
ATOM      2  C   UNL     1       4.881   4.465  16.891  0.00  0.00    +0.000 C 
ATOM      3  C   UNL     1       5.284   4.183  15.441  0.00  0.00    +0.000 C 
ATOM      4  C   UNL     1       4.610   5.897  17.082  0.00  0.00    +0.000 A 
ATOM      5  N   UNL     1       5.255   7.062  16.895  0.00  0.00    +0.000 N 
ATOM      6  N   UNL     1       4.470   8.113  17.237  0.00  0.00    +0.000 NA
ATOM      7  C   UNL     1       3.387   7.543  17.801  0.00  0.00    +0.000 A 
ATOM      8  N   UNL     1       2.474   8.354  18.392  0.00  0.00    +0.000 N 
ATOM      9  C   UNL     1       1.838   8.015  19.566  0.00  0.00    +0.000 C 
ATOM     10  O   UNL     1       2.019   6.971  20.190  0.00  0.00    +0.000 OA
ATOM     11  C   UNL     1       3.396   6.163  17.632  0.00  0.00    +0.000 A 
ATOM     12  C   UNL     1       2.632   4.929  17.832  0.00  0.00    +0.000 C 
ATOM     13  N   UNL     1       3.501   3.894  17.135  0.00  0.00    +0.000 NA
ATOM     14  H   UNL     1       6.192   7.245  16.554  0.00  0.00    +0.000 HD
ATOM     15  H   UNL     1       2.559   9.312  18.119  0.00  0.00    +0.000 HD
ENDROOT
BRANCH   9  16
ATOM     16  C   UNL     1       0.895   9.026  20.125  0.00  0.00    +0.000 A 
ATOM     17  C   UNL     1       0.410  10.011  19.253  0.00  0.00    +0.000 A 
ATOM     18  C   UNL     1      -0.361  11.067  19.735  0.00  0.00    +0.000 A 
ATOM     19  C   UNL     1      -0.670  11.138  21.093  0.00  0.00    +0.000 A 
ATOM     20  C   UNL     1      -0.238  10.138  21.961  0.00  0.00    +0.000 A 
ATOM     21  C   UNL     1       0.530   9.076  21.478  0.00  0.00    +0.000 A 
ENDBRANCH   9  16
BRANCH  13  22
ATOM     22  C   UNL     1       3.464   2.596  17.815  0.00  0.00    +0.000 C 
BRANCH  22  23
ATOM     23  C   UNL     1       2.726   2.620  19.134  0.00  0.00    +0.000 A 
ATOM     24  C   UNL     1       1.326   2.709  19.183  0.00  0.00    +0.000 A 
ATOM     25  C   UNL     1       0.660   2.746  20.413  0.00  0.00    +0.000 A 
ATOM     26  C   UNL     1       1.382   2.692  21.605  0.00  0.00    +0.000 A 
ATOM     27  C   UNL     1       2.769   2.576  21.569  0.00  0.00    +0.000 A 
ATOM     28  C   UNL     1       3.426   2.533  20.341  0.00  0.00    +0.000 A 
ATOM     29  F   UNL     1       4.761   2.402  20.335  0.00  0.00    +0.000 F 
ENDBRANCH  22  23
ENDBRANCH  13  22
TORSDOF 3
ENDMDL
MODEL 8
REMARK VINA RESULT:      -8.0      3.135      7.249
REMARK  Name = 
REMARK  5 active torsions:
REMARK  status: ('A' for Active; 'I' for Inactive)
REMARK    1  A    between atoms: C_1  and  C_2
REMARK    2  A    between atoms: C_2  and  C_3
REMARK    3  A    between atoms: C_9  and  C_11
REMARK    4  A    between atoms: N_19  and  C_20
REMARK    5  A    between atoms: C_20  and  C_21
REMARK                            x       y       z     vdW  Elec       q    Type
REMARK                         _______ _______ _______ _____ _____    ______ ____
ROOT
ATOM      1  C   UNL     1       2.971   4.037  21.326  0.00  0.00    +0.000 C 
ATOM      2  C   UNL     1       2.062   4.137  20.088  0.00  0.00    +0.000 C 
ATOM      3  C   UNL     1       0.633   3.672  20.384  0.00  0.00    +0.000 C 
ATOM      4  C   UNL     1       2.652   3.336  19.007  0.00  0.00    +0.000 A 
ATOM      5  N   UNL     1       2.879   2.036  18.746  0.00  0.00    +0.000 N 
ATOM      6  N   UNL     1       3.455   1.878  17.530  0.00  0.00    +0.000 NA
ATOM      7  C   UNL     1       3.728   3.135  17.130  0.00  0.00    +0.000 A 
ATOM      8  N   UNL     1       4.458   3.301  15.998  0.00  0.00    +0.000 N 
ATOM      9  C   UNL     1       5.418   4.282  15.877  0.00  0.00    +0.000 C 
ATOM     10  O   UNL     1       5.711   5.094  16.753  0.00  0.00    +0.000 OA
ATOM     11  C   UNL     1       3.153   4.073  17.981  0.00  0.00    +0.000 A 
ATOM     12  C   UNL     1       2.907   5.500  18.195  0.00  0.00    +0.000 C 
ATOM     13  N   UNL     1       2.006   5.494  19.419  0.00  0.00    +0.000 NA
ATOM     14  H   UNL     1       2.689   1.213  19.307  0.00  0.00    +0.000 HD
ATOM     15  H   UNL     1       4.494   2.482  15.426  0.00  0.00    +0.000 HD
ENDROOT
BRANCH   9  16
ATOM     16  C   UNL     1       6.174   4.313  14.592  0.00  0.00    +0.000 A 
ATOM     17  C   UNL     1       7.263   5.192  14.503  0.00  0.00    +0.000 A 
ATOM     18  C   UNL     1       7.928   5.377  13.293  0.00  0.00    +0.000 A 
ATOM     19  C   UNL     1       7.521   4.670  12.162  0.00  0.00    +0.000 A 
ATOM     20  C   UNL     1       6.474   3.755  12.249  0.00  0.00    +0.000 A 
ATOM     21  C   UNL     1       5.811   3.565  13.464  0.00  0.00    +0.000 A 
ENDBRANCH   9  16
BRANCH  13  22
ATOM     22  C   UNL     1       2.257   6.642  20.296  0.00  0.00    +0.000 C 
BRANCH  22  23
ATOM     23  C   UNL     1       1.772   7.957  19.729  0.00  0.00    +0.000 A 
ATOM     24  C   UNL     1       2.080   8.342  18.415  0.00  0.00    +0.000 A 
ATOM     25  C   UNL     1       1.636   9.569  17.911  0.00  0.00    +0.000 A 
ATOM     26  C   UNL     1       0.879  10.425  18.712  0.00  0.00    +0.000 A 
ATOM     27  C   UNL     1       0.545  10.043  20.009  0.00  0.00    +0.000 A 
ATOM     28  C   UNL     1       0.985   8.816  20.502  0.00  0.00    +0.000 A 
ATOM     29  F   UNL     1       0.633   8.465  21.747  0.00  0.00    +0.000 F 
ENDBRANCH  22  23
ENDBRANCH  13  22
TORSDOF 3
ENDMDL
MODEL 9
REMARK VINA RESULT:      -7.9      2.570      4.626
REMARK  Name = 
REMARK  5 active torsions:
REMARK  status: ('A' for Active; 'I' for Inactive)
REMARK    1  A    between atoms: C_1  and  C_2
REMARK    2  A    between atoms: C_2  and  C_3
REMARK    3  A    between atoms: C_9  and  C_11
REMARK    4  A    between atoms: N_19  and  C_20
REMARK    5  A    between atoms: C_20  and  C_21
REMARK                            x       y       z     vdW  Elec       q    Type
REMARK                         _______ _______ _______ _____ _____    ______ ____
ROOT
ATOM      1  C   UNL     1       5.916   3.963  17.835  0.00  0.00    +0.000 C 
ATOM      2  C   UNL     1       4.814   4.415  16.861  0.00  0.00    +0.000 C 
ATOM      3  C   UNL     1       5.189   4.144  15.401  0.00  0.00    +0.000 C 
ATOM      4  C   UNL     1       4.559   5.847  17.071  0.00  0.00    +0.000 A 
ATOM      5  N   UNL     1       5.212   7.008  16.885  0.00  0.00    +0.000 N 
ATOM      6  N   UNL     1       4.444   8.062  17.252  0.00  0.00    +0.000 NA
ATOM      7  C   UNL     1       3.365   7.497  17.828  0.00  0.00    +0.000 A 
ATOM      8  N   UNL     1       2.470   8.310  18.444  0.00  0.00    +0.000 N 
ATOM      9  C   UNL     1       1.851   7.964  19.625  0.00  0.00    +0.000 C 
ATOM     10  O   UNL     1       2.032   6.911  20.234  0.00  0.00    +0.000 OA
ATOM     11  C   UNL     1       3.357   6.118  17.645  0.00  0.00    +0.000 A 
ATOM     12  C   UNL     1       2.586   4.890  17.844  0.00  0.00    +0.000 C 
ATOM     13  N   UNL     1       3.432   3.854  17.122  0.00  0.00    +0.000 NA
ATOM     14  H   UNL     1       6.146   7.185  16.531  0.00  0.00    +0.000 HD
ATOM     15  H   UNL     1       2.559   9.270  18.179  0.00  0.00    +0.000 HD
ENDROOT
BRANCH   9  16
ATOM     16  C   UNL     1       0.927   8.978  20.211  0.00  0.00    +0.000 A 
ATOM     17  C   UNL     1       0.562  10.064  19.403  0.00  0.00    +0.000 A 
ATOM     18  C   UNL     1      -0.183  11.119  19.928  0.00  0.00    +0.000 A 
ATOM     19  C   UNL     1      -0.585  11.089  21.262  0.00  0.00    +0.000 A 
ATOM     20  C   UNL     1      -0.273   9.991  22.061  0.00  0.00    +0.000 A 
ATOM     21  C   UNL     1       0.468   8.931  21.534  0.00  0.00    +0.000 A 
ENDBRANCH   9  16
BRANCH  13  22
ATOM     22  C   UNL     1       3.395   2.549  17.789  0.00  0.00    +0.000 C 
BRANCH  22  23
ATOM     23  C   UNL     1       2.755   2.583  19.158  0.00  0.00    +0.000 A 
ATOM     24  C   UNL     1       3.535   2.637  20.325  0.00  0.00    +0.000 A 
ATOM     25  C   UNL     1       2.927   2.652  21.584  0.00  0.00    +0.000 A 
ATOM     26  C   UNL     1       1.537   2.615  21.695  0.00  0.00    +0.000 A 
ATOM     27  C   UNL     1       0.753   2.587  20.544  0.00  0.00    +0.000 A 
ATOM     28  C   UNL     1       1.364   2.579  19.292  0.00  0.00    +0.000 A 
ATOM     29  F   UNL     1       0.585   2.572  18.201  0.00  0.00    +0.000 F 
ENDBRANCH  22  23
ENDBRANCH  13  22
TORSDOF 3
ENDMDL
