MODEL 1
REMARK VINA RESULT:      -6.4      0.000      0.000
REMARK  Name = 
REMARK  6 active torsions:
REMARK  status: ('A' for Active; 'I' for Inactive)
REMARK    1  A    between atoms: C_1  and  O_2
REMARK    2  A    between atoms: O_2  and  C_3
REMARK    3  A    between atoms: C_3  and  C_5
REMARK    4  A    between atoms: C_9  and  N_10
REMARK    5  A    between atoms: C_11  and  S_12
REMARK    6  A    between atoms: C_18  and  C_19
REMARK                            x       y       z     vdW  Elec       q    Type
REMARK                         _______ _______ _______ _____ _____    ______ ____
ROOT
ATOM      1  N   UNL     1       5.126   4.629  19.052  0.00  0.00    +0.000 NA
ATOM      2  C   UNL     1       3.895   5.037  19.243  0.00  0.00    +0.000 C 
ATOM      3  N   UNL     1       2.883   4.184  19.723  0.00  0.00    +0.000 N 
ATOM      4  C   UNL     1       1.440   4.439  19.541  0.00  0.00    +0.000 C 
ATOM      5  C   UNL     1       0.890   3.545  18.434  0.00  0.00    +0.000 C 
ATOM      6  C   UNL     1       1.132   2.075  18.753  0.00  0.00    +0.000 C 
ATOM      7  C   UNL     1       2.612   1.823  19.042  0.00  0.00    +0.000 C 
ATOM      8  C   UNL     1       3.194   2.783  20.094  0.00  0.00    +0.000 C 
ATOM      9  C   UNL     1       2.680   2.463  21.505  0.00  0.00    +0.000 C 
ENDROOT
BRANCH   1  14
ATOM     10  C   UNL     1       6.237   6.008  17.297  0.00  0.00    +0.000 A 
ATOM     11  S   UNL     1       7.586   7.105  17.181  0.00  0.00    +0.000 S 
ATOM     12  C   UNL     1       8.091   6.782  18.771  0.00  0.00    +0.000 A 
ATOM     13  C   UNL     1       7.291   5.844  19.376  0.00  0.00    +0.000 A 
ATOM     14  C   UNL     1       6.133   5.517  18.594  0.00  0.00    +0.000 A 
BRANCH  10  15
ATOM     15  C   UNL     1       5.495   5.796  16.075  0.00  0.00    +0.000 C 
ATOM     16  O   UNL     1       5.096   6.674  15.305  0.00  0.00    +0.000 OA
BRANCH  15  18
ATOM     17  C   UNL     1       6.134   3.973  14.750  0.00  0.00    +0.000 C 
ATOM     18  O   UNL     1       5.326   4.464  15.822  0.00  0.00    +0.000 OA
ENDBRANCH  15  18
ENDBRANCH  10  15
ENDBRANCH   1  14
BRANCH   2  19
ATOM     19  S   UNL     1       3.380   6.723  18.985  0.00  0.00    +0.000 S 
ATOM     20  H   UNL     1       4.307   6.960  18.044  0.00  0.00    +0.000 HD
ENDBRANCH   2  19
TORSDOF 4
ENDMDL
MODEL 2
REMARK VINA RESULT:      -6.2      1.825      3.045
REMARK  Name = 
REMARK  6 active torsions:
REMARK  status: ('A' for Active; 'I' for Inactive)
REMARK    1  A    between atoms: C_1  and  O_2
REMARK    2  A    between atoms: O_2  and  C_3
REMARK    3  A    between atoms: C_3  and  C_5
REMARK    4  A    between atoms: C_9  and  N_10
REMARK    5  A    between atoms: C_11  and  S_12
REMARK    6  A    between atoms: C_18  and  C_19
REMARK                            x       y       z     vdW  Elec       q    Type
REMARK                         _______ _______ _______ _____ _____    ______ ____
ROOT
ATOM      1  N   UNL     1       4.708   3.508  17.202  0.00  0.00    +0.000 NA
ATOM      2  C   UNL     1       4.119   4.367  17.999  0.00  0.00    +0.000 C 
ATOM      3  N   UNL     1       3.425   3.969  19.157  0.00  0.00    +0.000 N 
ATOM      4  C   UNL     1       2.400   4.796  19.824  0.00  0.00    +0.000 C 
ATOM      5  C   UNL     1       1.008   4.272  19.489  0.00  0.00    +0.000 C 
ATOM      6  C   UNL     1       0.863   2.813  19.904  0.00  0.00    +0.000 C 
ATOM      7  C   UNL     1       1.982   1.965  19.296  0.00  0.00    +0.000 C 
ATOM      8  C   UNL     1       3.385   2.542  19.556  0.00  0.00    +0.000 C 
ATOM      9  C   UNL     1       3.808   2.371  21.022  0.00  0.00    +0.000 C 
ENDROOT
BRANCH   1  14
ATOM     10  C   UNL     1       6.703   4.490  16.075  0.00  0.00    +0.000 A 
ATOM     11  S   UNL     1       7.227   4.830  14.448  0.00  0.00    +0.000 S 
ATOM     12  C   UNL     1       5.721   4.405  13.786  0.00  0.00    +0.000 A 
ATOM     13  C   UNL     1       4.823   4.047  14.760  0.00  0.00    +0.000 A 
ATOM     14  C   UNL     1       5.426   3.938  16.058  0.00  0.00    +0.000 A 
BRANCH  10  15
ATOM     15  C   UNL     1       7.639   4.835  17.120  0.00  0.00    +0.000 C 
ATOM     16  O   UNL     1       8.336   4.045  17.761  0.00  0.00    +0.000 OA
BRANCH  15  18
ATOM     17  C   UNL     1       7.891   6.591  18.651  0.00  0.00    +0.000 C 
ATOM     18  O   UNL     1       7.716   6.189  17.291  0.00  0.00    +0.000 OA
ENDBRANCH  15  18
ENDBRANCH  10  15
ENDBRANCH   1  14
BRANCH   2  19
ATOM     19  S   UNL     1       4.189   6.129  17.747  0.00  0.00    +0.000 S 
ATOM     20  H   UNL     1       3.117   6.151  16.942  0.00  0.00    +0.000 HD
ENDBRANCH   2  19
TORSDOF 4
ENDMDL
MODEL 3
REMARK VINA RESULT:      -5.9      1.836      3.040
REMARK  Name = 
REMARK  6 active torsions:
REMARK  status: ('A' for Active; 'I' for Inactive)
REMARK    1  A    between atoms: C_1  and  O_2
REMARK    2  A    between atoms: O_2  and  C_3
REMARK    3  A    between atoms: C_3  and  C_5
REMARK    4  A    between atoms: C_9  and  N_10
REMARK    5  A    between atoms: C_11  and  S_12
REMARK    6  A    between atoms: C_18  and  C_19
REMARK                            x       y       z     vdW  Elec       q    Type
REMARK                         _______ _______ _______ _____ _____    ______ ____
ROOT
ATOM      1  N   UNL     1       5.101   3.520  16.675  0.00  0.00    +0.000 NA
ATOM      2  C   UNL     1       4.353   4.329  17.387  0.00  0.00    +0.000 C 
ATOM      3  N   UNL     1       3.649   3.899  18.527  0.00  0.00    +0.000 N 
ATOM      4  C   UNL     1       2.482   4.610  19.088  0.00  0.00    +0.000 C 
ATOM      5  C   UNL     1       1.197   3.882  18.709  0.00  0.00    +0.000 C 
ATOM      6  C   UNL     1       1.225   2.440  19.202  0.00  0.00    +0.000 C 
ATOM      7  C   UNL     1       2.483   1.725  18.706  0.00  0.00    +0.000 C 
ATOM      8  C   UNL     1       3.777   2.503  19.007  0.00  0.00    +0.000 C 
ATOM      9  C   UNL     1       4.128   2.467  20.501  0.00  0.00    +0.000 C 
ENDROOT
BRANCH   1  14
ATOM     10  C   UNL     1       6.870   4.902  15.591  0.00  0.00    +0.000 A 
ATOM     11  S   UNL     1       7.505   5.157  13.988  0.00  0.00    +0.000 S 
ATOM     12  C   UNL     1       6.300   4.199  13.269  0.00  0.00    +0.000 A 
ATOM     13  C   UNL     1       5.411   3.721  14.199  0.00  0.00    +0.000 A 
ATOM     14  C   UNL     1       5.823   3.986  15.548  0.00  0.00    +0.000 A 
BRANCH  10  15
ATOM     15  C   UNL     1       7.503   5.662  16.645  0.00  0.00    +0.000 C 
ATOM     16  O   UNL     1       7.683   6.883  16.652  0.00  0.00    +0.000 OA
BRANCH  15  18
ATOM     17  C   UNL     1       7.699   5.496  18.973  0.00  0.00    +0.000 C 
ATOM     18  O   UNL     1       7.840   4.863  17.700  0.00  0.00    +0.000 OA
ENDBRANCH  15  18
ENDBRANCH  10  15
ENDBRANCH   1  14
BRANCH   2  19
ATOM     19  S   UNL     1       4.201   6.069  17.036  0.00  0.00    +0.000 S 
ATOM     20  H   UNL     1       5.483   6.336  17.327  0.00  0.00    +0.000 HD
ENDBRANCH   2  19
TORSDOF 4
ENDMDL
MODEL 4
REMARK VINA RESULT:      -5.5      3.935      5.710
REMARK  Name = 
REMARK  6 active torsions:
REMARK  status: ('A' for Active; 'I' for Inactive)
REMARK    1  A    between atoms: C_1  and  O_2
REMARK    2  A    between atoms: O_2  and  C_3
REMARK    3  A    between atoms: C_3  and  C_5
REMARK    4  A    between atoms: C_9  and  N_10
REMARK    5  A    between atoms: C_11  and  S_12
REMARK    6  A    between atoms: C_18  and  C_19
REMARK                            x       y       z     vdW  Elec       q    Type
REMARK                         _______ _______ _______ _____ _____    ______ ____
ROOT
ATOM      1  N   UNL     1       2.709   7.248  19.533  0.00  0.00    +0.000 NA
ATOM      2  C   UNL     1       2.686   5.941  19.636  0.00  0.00    +0.000 C 
ATOM      3  N   UNL     1       3.706   5.125  19.114  0.00  0.00    +0.000 N 
ATOM      4  C   UNL     1       3.532   3.691  18.805  0.00  0.00    +0.000 C 
ATOM      5  C   UNL     1       3.379   3.497  17.300  0.00  0.00    +0.000 C 
ATOM      6  C   UNL     1       4.584   4.057  16.555  0.00  0.00    +0.000 C 
ATOM      7  C   UNL     1       4.831   5.515  16.946  0.00  0.00    +0.000 C 
ATOM      8  C   UNL     1       4.896   5.728  18.469  0.00  0.00    +0.000 C 
ATOM      9  C   UNL     1       6.191   5.161  19.069  0.00  0.00    +0.000 C 
ENDROOT
BRANCH   1  14
ATOM     10  C   UNL     1       1.175   9.213  19.525  0.00  0.00    +0.000 A 
ATOM     11  S   UNL     1      -0.106   9.852  20.518  0.00  0.00    +0.000 S 
ATOM     12  C   UNL     1       0.147   8.694  21.734  0.00  0.00    +0.000 A 
ATOM     13  C   UNL     1       1.193   7.860  21.430  0.00  0.00    +0.000 A 
ATOM     14  C   UNL     1       1.683   8.049  20.094  0.00  0.00    +0.000 A 
BRANCH  10  15
ATOM     15  C   UNL     1       1.488   9.975  18.337  0.00  0.00    +0.000 C 
ATOM     16  O   UNL     1       1.992   9.532  17.302  0.00  0.00    +0.000 OA
BRANCH  15  18
ATOM     17  C   UNL     1       2.179  12.212  18.420  0.00  0.00    +0.000 C 
ATOM     18  O   UNL     1       1.098  11.278  18.466  0.00  0.00    +0.000 OA
ENDBRANCH  15  18
ENDBRANCH  10  15
ENDBRANCH   1  14
BRANCH   2  19
ATOM     19  S   UNL     1       1.404   5.060  20.504  0.00  0.00    +0.000 S 
ATOM     20  H   UNL     1       1.744   3.869  19.988  0.00  0.00    +0.000 HD
ENDBRANCH   2  19
TORSDOF 4
ENDMDL
MODEL 5
REMARK VINA RESULT:      -5.4      4.059      5.771
REMARK  Name = 
REMARK  6 active torsions:
REMARK  status: ('A' for Active; 'I' for Inactive)
REMARK    1  A    between atoms: C_1  and  O_2
REMARK    2  A    between atoms: O_2  and  C_3
REMARK    3  A    between atoms: C_3  and  C_5
REMARK    4  A    between atoms: C_9  and  N_10
REMARK    5  A    between atoms: C_11  and  S_12
REMARK    6  A    between atoms: C_18  and  C_19
REMARK                            x       y       z     vdW  Elec       q    Type
REMARK                         _______ _______ _______ _____ _____    ______ ____
ROOT
ATOM      1  N   UNL     1       2.229   6.205  19.873  0.00  0.00    +0.000 NA
ATOM      2  C   UNL     1       2.222   7.422  19.383  0.00  0.00    +0.000 C 
ATOM      3  N   UNL     1       1.675   8.513  20.083  0.00  0.00    +0.000 N 
ATOM      4  C   UNL     1       1.241   9.768  19.437  0.00  0.00    +0.000 C 
ATOM      5  C   UNL     1      -0.280   9.799  19.327  0.00  0.00    +0.000 C 
ATOM      6  C   UNL     1      -0.925   9.659  20.700  0.00  0.00    +0.000 C 
ATOM      7  C   UNL     1      -0.404   8.413  21.418  0.00  0.00    +0.000 C 
ATOM      8  C   UNL     1       1.132   8.334  21.451  0.00  0.00    +0.000 C 
ATOM      9  C   UNL     1       1.735   9.362  22.419  0.00  0.00    +0.000 C 
ENDROOT
BRANCH   1  14
ATOM     10  C   UNL     1       2.239   3.870  18.999  0.00  0.00    +0.000 A 
ATOM     11  S   UNL     1       3.267   2.868  18.013  0.00  0.00    +0.000 S 
ATOM     12  C   UNL     1       4.497   4.038  17.960  0.00  0.00    +0.000 A 
ATOM     13  C   UNL     1       4.170   5.150  18.694  0.00  0.00    +0.000 A 
ATOM     14  C   UNL     1       2.812   5.128  19.159  0.00  0.00    +0.000 A 
BRANCH  10  15
ATOM     15  C   UNL     1       1.024   3.247  19.474  0.00  0.00    +0.000 C 
ATOM     16  O   UNL     1       0.248   2.563  18.802  0.00  0.00    +0.000 OA
BRANCH  15  18
ATOM     17  C   UNL     1       1.671   2.630  21.639  0.00  0.00    +0.000 C 
ATOM     18  O   UNL     1       0.849   3.457  20.813  0.00  0.00    +0.000 OA
ENDBRANCH  15  18
ENDBRANCH  10  15
ENDBRANCH   1  14
BRANCH   2  19
ATOM     19  S   UNL     1       2.960   7.841  17.817  0.00  0.00    +0.000 S 
ATOM     20  H   UNL     1       1.921   7.386  17.100  0.00  0.00    +0.000 HD
ENDBRANCH   2  19
TORSDOF 4
ENDMDL
MODEL 6
REMARK VINA RESULT:      -5.3      3.919      5.729
REMARK  Name = 
REMARK  6 active torsions:
REMARK  status: ('A' for Active; 'I' for Inactive)
REMARK    1  A    between atoms: C_1  and  O_2
REMARK    2  A    between atoms: O_2  and  C_3
REMARK    3  A    between atoms: C_3  and  C_5
REMARK    4  A    between atoms: C_9  and  N_10
REMARK    5  A    between atoms: C_11  and  S_12
REMARK    6  A    between atoms: C_18  and  C_19
REMARK                            x       y       z     vdW  Elec       q    Type
REMARK                         _______ _______ _______ _____ _____    ______ ____
ROOT
ATOM      1  N   UNL     1       2.684   7.342  19.623  0.00  0.00    +0.000 NA
ATOM      2  C   UNL     1       2.639   6.034  19.700  0.00  0.00    +0.000 C 
ATOM      3  N   UNL     1       3.617   5.209  19.113  0.00  0.00    +0.000 N 
ATOM      4  C   UNL     1       3.400   3.786  18.783  0.00  0.00    +0.000 C 
ATOM      5  C   UNL     1       3.172   3.628  17.284  0.00  0.00    +0.000 C 
ATOM      6  C   UNL     1       4.352   4.181  16.494  0.00  0.00    +0.000 C 
ATOM      7  C   UNL     1       4.646   5.625  16.903  0.00  0.00    +0.000 C 
ATOM      8  C   UNL     1       4.788   5.804  18.425  0.00  0.00    +0.000 C 
ATOM      9  C   UNL     1       6.097   5.199  18.950  0.00  0.00    +0.000 C 
ENDROOT
BRANCH   1  14
ATOM     10  C   UNL     1       0.946   9.129  19.611  0.00  0.00    +0.000 A 
ATOM     11  S   UNL     1      -0.175   9.845  20.736  0.00  0.00    +0.000 S 
ATOM     12  C   UNL     1       0.466   8.980  22.051  0.00  0.00    +0.000 A 
ATOM     13  C   UNL     1       1.524   8.193  21.672  0.00  0.00    +0.000 A 
ATOM     14  C   UNL     1       1.702   8.150  20.249  0.00  0.00    +0.000 A 
BRANCH  10  15
ATOM     15  C   UNL     1       0.911   9.660  18.267  0.00  0.00    +0.000 C 
ATOM     16  O   UNL     1       1.707   9.399  17.361  0.00  0.00    +0.000 OA
BRANCH  15  18
ATOM     17  C   UNL     1      -1.240   9.848  17.357  0.00  0.00    +0.000 C 
ATOM     18  O   UNL     1      -0.175  10.468  18.081  0.00  0.00    +0.000 OA
ENDBRANCH  15  18
ENDBRANCH  10  15
ENDBRANCH   1  14
BRANCH   2  19
ATOM     19  S   UNL     1       1.382   5.158  20.609  0.00  0.00    +0.000 S 
ATOM     20  H   UNL     1       0.441   6.089  20.387  0.00  0.00    +0.000 HD
ENDBRANCH   2  19
TORSDOF 4
ENDMDL
MODEL 7
REMARK VINA RESULT:      -5.2      8.173     10.112
REMARK  Name = 
REMARK  6 active torsions:
REMARK  status: ('A' for Active; 'I' for Inactive)
REMARK    1  A    between atoms: C_1  and  O_2
REMARK    2  A    between atoms: O_2  and  C_3
REMARK    3  A    between atoms: C_3  and  C_5
REMARK    4  A    between atoms: C_9  and  N_10
REMARK    5  A    between atoms: C_11  and  S_12
REMARK    6  A    between atoms: C_18  and  C_19
REMARK                            x       y       z     vdW  Elec       q    Type
REMARK                         _______ _______ _______ _____ _____    ______ ____
ROOT
ATOM      1  N   UNL     1      -1.676   9.943  18.586  0.00  0.00    +0.000 NA
ATOM      2  C   UNL     1      -0.969  10.841  19.229  0.00  0.00    +0.000 C 
ATOM      3  N   UNL     1      -0.168  10.517  20.340  0.00  0.00    +0.000 N 
ATOM      4  C   UNL     1       0.277  11.503  21.346  0.00  0.00    +0.000 C 
ATOM      5  C   UNL     1      -0.557  11.364  22.615  0.00  0.00    +0.000 C 
ATOM      6  C   UNL     1      -0.458   9.951  23.178  0.00  0.00    +0.000 C 
ATOM      7  C   UNL     1      -0.822   8.919  22.110  0.00  0.00    +0.000 C 
ATOM      8  C   UNL     1      -0.046   9.112  20.795  0.00  0.00    +0.000 C 
ATOM      9  C   UNL     1       1.428   8.708  20.938  0.00  0.00    +0.000 C 
ENDROOT
BRANCH   1  14
ATOM     10  C   UNL     1      -3.705  10.893  17.494  0.00  0.00    +0.000 A 
ATOM     11  S   UNL     1      -4.278  11.191  15.875  0.00  0.00    +0.000 S 
ATOM     12  C   UNL     1      -2.960  10.383  15.171  0.00  0.00    +0.000 A 
ATOM     13  C   UNL     1      -2.117   9.865  16.123  0.00  0.00    +0.000 A 
ATOM     14  C   UNL     1      -2.452  10.291  17.451  0.00  0.00    +0.000 A 
BRANCH  10  15
ATOM     15  C   UNL     1      -4.597  11.294  18.558  0.00  0.00    +0.000 C 
ATOM     16  O   UNL     1      -4.405  12.212  19.360  0.00  0.00    +0.000 OA
BRANCH  15  18
ATOM     17  C   UNL     1      -6.939  11.346  18.586  0.00  0.00    +0.000 C 
ATOM     18  O   UNL     1      -5.748  10.557  18.546  0.00  0.00    +0.000 OA
ENDBRANCH  15  18
ENDBRANCH  10  15
ENDBRANCH   1  14
BRANCH   2  19
ATOM     19  S   UNL     1      -0.887  12.549  18.730  0.00  0.00    +0.000 S 
ATOM     20  H   UNL     1      -0.849  13.012  19.989  0.00  0.00    +0.000 HD
ENDBRANCH   2  19
TORSDOF 4
ENDMDL
MODEL 8
REMARK VINA RESULT:      -5.2      8.722     11.050
REMARK  Name = 
REMARK  6 active torsions:
REMARK  status: ('A' for Active; 'I' for Inactive)
REMARK    1  A    between atoms: C_1  and  O_2
REMARK    2  A    between atoms: O_2  and  C_3
REMARK    3  A    between atoms: C_3  and  C_5
REMARK    4  A    between atoms: C_9  and  N_10
REMARK    5  A    between atoms: C_11  and  S_12
REMARK    6  A    between atoms: C_18  and  C_19
REMARK                            x       y       z     vdW  Elec       q    Type
REMARK                         _______ _______ _______ _____ _____    ______ ____
ROOT
ATOM      1  N   UNL     1       9.103  13.039  21.829  0.00  0.00    +0.000 NA
ATOM      2  C   UNL     1       8.711  13.310  20.607  0.00  0.00    +0.000 C 
ATOM      3  N   UNL     1       9.075  12.515  19.504  0.00  0.00    +0.000 N 
ATOM      4  C   UNL     1       9.051  12.990  18.106  0.00  0.00    +0.000 C 
ATOM      5  C   UNL     1      10.469  13.299  17.637  0.00  0.00    +0.000 C 
ATOM      6  C   UNL     1      11.362  12.071  17.764  0.00  0.00    +0.000 C 
ATOM      7  C   UNL     1      11.313  11.513  19.187  0.00  0.00    +0.000 C 
ATOM      8  C   UNL     1       9.879  11.285  19.697  0.00  0.00    +0.000 C 
ATOM      9  C   UNL     1       9.215  10.083  19.011  0.00  0.00    +0.000 C 
ENDROOT
BRANCH   1  14
ATOM     10  C   UNL     1       7.550  13.636  23.685  0.00  0.00    +0.000 A 
ATOM     11  S   UNL     1       7.462  14.818  24.963  0.00  0.00    +0.000 S 
ATOM     12  C   UNL     1       8.826  15.655  24.394  0.00  0.00    +0.000 A 
ATOM     13  C   UNL     1       9.326  15.090  23.247  0.00  0.00    +0.000 A 
ATOM     14  C   UNL     1       8.698  13.840  22.926  0.00  0.00    +0.000 A 
BRANCH  10  15
ATOM     15  C   UNL     1       6.455  12.694  23.627  0.00  0.00    +0.000 C 
ATOM     16  O   UNL     1       5.389  12.856  23.028  0.00  0.00    +0.000 OA
BRANCH  15  18
ATOM     17  C   UNL     1       5.837  11.194  25.317  0.00  0.00    +0.000 C 
ATOM     18  O   UNL     1       6.762  11.535  24.282  0.00  0.00    +0.000 OA
ENDBRANCH  15  18
ENDBRANCH  10  15
ENDBRANCH   1  14
BRANCH   2  19
ATOM     19  S   UNL     1       7.625  14.666  20.215  0.00  0.00    +0.000 S 
ATOM     20  H   UNL     1       6.545  13.883  20.075  0.00  0.00    +0.000 HD
ENDBRANCH   2  19
TORSDOF 4
ENDMDL
MODEL 9
REMARK VINA RESULT:      -5.1      3.664      5.153
REMARK  Name = 
REMARK  6 active torsions:
REMARK  status: ('A' for Active; 'I' for Inactive)
REMARK    1  A    between atoms: C_1  and  O_2
REMARK    2  A    between atoms: O_2  and  C_3
REMARK    3  A    between atoms: C_3  and  C_5
REMARK    4  A    between atoms: C_9  and  N_10
REMARK    5  A    between atoms: C_11  and  S_12
REMARK    6  A    between atoms: C_18  and  C_19
REMARK                            x       y       z     vdW  Elec       q    Type
REMARK                         _______ _______ _______ _____ _____    ______ ____
ROOT
ATOM      1  N   UNL     1       2.162   6.255  19.554  0.00  0.00    +0.000 NA
ATOM      2  C   UNL     1       2.129   7.501  19.147  0.00  0.00    +0.000 C 
ATOM      3  N   UNL     1       1.691   8.553  19.973  0.00  0.00    +0.000 N 
ATOM      4  C   UNL     1       1.217   9.855  19.462  0.00  0.00    +0.000 C 
ATOM      5  C   UNL     1      -0.305   9.918  19.529  0.00  0.00    +0.000 C 
ATOM      6  C   UNL     1      -0.795   9.699  20.955  0.00  0.00    +0.000 C 
ATOM      7  C   UNL     1      -0.227   8.399  21.527  0.00  0.00    +0.000 C 
ATOM      8  C   UNL     1       1.302   8.293  21.379  0.00  0.00    +0.000 C 
ATOM      9  C   UNL     1       2.034   9.244  22.336  0.00  0.00    +0.000 C 
ENDROOT
BRANCH   1  14
ATOM     10  C   UNL     1       3.974   4.950  18.446  0.00  0.00    +0.000 A 
ATOM     11  S   UNL     1       4.110   3.562  17.401  0.00  0.00    +0.000 S 
ATOM     12  C   UNL     1       2.427   3.451  17.194  0.00  0.00    +0.000 A 
ATOM     13  C   UNL     1       1.768   4.453  17.861  0.00  0.00    +0.000 A 
ATOM     14  C   UNL     1       2.635   5.218  18.711  0.00  0.00    +0.000 A 
BRANCH  10  15
ATOM     15  C   UNL     1       5.223   5.569  18.832  0.00  0.00    +0.000 C 
ATOM     16  O   UNL     1       5.858   5.339  19.864  0.00  0.00    +0.000 OA
BRANCH  15  18
ATOM     17  C   UNL     1       7.089   6.401  17.688  0.00  0.00    +0.000 C 
ATOM     18  O   UNL     1       5.672   6.425  17.867  0.00  0.00    +0.000 OA
ENDBRANCH  15  18
ENDBRANCH  10  15
ENDBRANCH   1  14
BRANCH   2  19
ATOM     19  S   UNL     1       2.696   8.011  17.537  0.00  0.00    +0.000 S 
ATOM     20  H   UNL     1       2.675   9.318  17.841  0.00  0.00    +0.000 HD
ENDBRANCH   2  19
TORSDOF 4
ENDMDL
