MODEL 1
REMARK VINA RESULT:      -7.7      0.000      0.000
REMARK  Name = 
REMARK  9 active torsions:
REMARK  status: ('A' for Active; 'I' for Inactive)
REMARK    1  A    between atoms: C_1  and  C_2
REMARK    2  A    between atoms: C_2  and  C_3
REMARK    3  A    between atoms: C_3  and  C_4
REMARK    4  A    between atoms: C_9  and  O_10
REMARK    5  A    between atoms: O_10  and  S_11
REMARK    6  A    between atoms: S_11  and  C_14
REMARK    7  A    between atoms: C_18  and  N_19
REMARK    8  A    between atoms: N_22  and  C_23
REMARK    9  A    between atoms: C_23  and  C_24
REMARK                            x       y       z     vdW  Elec       q    Type
REMARK                         _______ _______ _______ _____ _____    ______ ____
ROOT
ATOM      1  C   UNL     1       6.647   5.809  17.197  0.00  0.00    +0.000 A 
ATOM      2  C   UNL     1       7.139   5.113  18.297  0.00  0.00    +0.000 A 
ATOM      3  C   UNL     1       7.984   5.782  19.180  0.00  0.00    +0.000 A 
ATOM      4  C   UNL     1       8.314   7.126  18.964  0.00  0.00    +0.000 A 
ATOM      5  C   UNL     1       7.795   7.840  17.879  0.00  0.00    +0.000 A 
ATOM      6  C   UNL     1       6.962   7.166  16.985  0.00  0.00    +0.000 A 
ENDROOT
BRANCH   5   7
ATOM      7  N   UNL     1       8.074   9.205  17.641  0.00  0.00    +0.000 N 
ATOM      8  C   UNL     1       8.815  10.035  18.454  0.00  0.00    +0.000 C 
ATOM      9  O   UNL     1       9.307   9.742  19.534  0.00  0.00    +0.000 OA
ATOM     10  N   UNL     1       8.922  11.312  17.944  0.00  0.00    +0.000 N 
ATOM     11  H   UNL     1       7.564   9.658  16.894  0.00  0.00    +0.000 HD
ATOM     12  H   UNL     1       8.933  11.402  16.937  0.00  0.00    +0.000 HD
BRANCH  10  13
ATOM     13  C   UNL     1       9.681  12.305  18.695  0.00  0.00    +0.000 C 
BRANCH  13  14
ATOM     14  C   UNL     1      11.123  12.462  18.214  0.00  0.00    +0.000 C 
ATOM     15 CL   UNL     1      11.168  13.277  16.625  0.00  0.00    +0.000 Cl
ENDBRANCH  13  14
ENDBRANCH  10  13
ENDBRANCH   5   7
BRANCH   1  16
ATOM     16  S   UNL     1       5.595   5.028  15.997  0.00  0.00    +0.000 S 
ATOM     17  O   UNL     1       6.284   3.798  15.663  0.00  0.00    +0.000 OA
ATOM     18  O   UNL     1       5.359   6.069  15.013  0.00  0.00    +0.000 OA
BRANCH  16  19
ATOM     19  O   UNL     1       4.188   4.683  16.754  0.00  0.00    +0.000 OA
BRANCH  19  25
ATOM     20  C   UNL     1       3.287   5.054  19.048  0.00  0.00    +0.000 A 
ATOM     21  C   UNL     1       2.650   5.984  19.902  0.00  0.00    +0.000 A 
ATOM     22  C   UNL     1       2.359   7.281  19.487  0.00  0.00    +0.000 A 
ATOM     23  C   UNL     1       2.716   7.682  18.208  0.00  0.00    +0.000 A 
ATOM     24  C   UNL     1       3.363   6.786  17.352  0.00  0.00    +0.000 A 
ATOM     25  C   UNL     1       3.664   5.471  17.758  0.00  0.00    +0.000 A 
BRANCH  20  26
ATOM     26  C   UNL     1       3.457   3.666  19.616  0.00  0.00    +0.000 C 
BRANCH  26  28
ATOM     27  C   UNL     1       2.156   2.747  21.576  0.00  0.00    +0.000 C 
ATOM     28  C   UNL     1       2.133   3.059  20.090  0.00  0.00    +0.000 C 
ENDBRANCH  26  28
ENDBRANCH  20  26
ENDBRANCH  19  25
ENDBRANCH  16  19
ENDBRANCH   1  16
TORSDOF 8
ENDMDL
MODEL 2
REMARK VINA RESULT:      -7.6      2.089      2.841
REMARK  Name = 
REMARK  9 active torsions:
REMARK  status: ('A' for Active; 'I' for Inactive)
REMARK    1  A    between atoms: C_1  and  C_2
REMARK    2  A    between atoms: C_2  and  C_3
REMARK    3  A    between atoms: C_3  and  C_4
REMARK    4  A    between atoms: C_9  and  O_10
REMARK    5  A    between atoms: O_10  and  S_11
REMARK    6  A    between atoms: S_11  and  C_14
REMARK    7  A    between atoms: C_18  and  N_19
REMARK    8  A    between atoms: N_22  and  C_23
REMARK    9  A    between atoms: C_23  and  C_24
REMARK                            x       y       z     vdW  Elec       q    Type
REMARK                         _______ _______ _______ _____ _____    ______ ____
ROOT
ATOM      1  C   UNL     1       5.246   3.941  17.200  0.00  0.00    +0.000 A 
ATOM      2  C   UNL     1       5.486   3.660  15.858  0.00  0.00    +0.000 A 
ATOM      3  C   UNL     1       6.507   4.350  15.210  0.00  0.00    +0.000 A 
ATOM      4  C   UNL     1       7.278   5.292  15.903  0.00  0.00    +0.000 A 
ATOM      5  C   UNL     1       7.063   5.553  17.260  0.00  0.00    +0.000 A 
ATOM      6  C   UNL     1       6.029   4.874  17.906  0.00  0.00    +0.000 A 
ENDROOT
BRANCH   5   7
ATOM      7  N   UNL     1       7.837   6.470  18.008  0.00  0.00    +0.000 N 
ATOM      8  C   UNL     1       7.856   7.838  17.844  0.00  0.00    +0.000 C 
ATOM      9  O   UNL     1       7.250   8.475  16.995  0.00  0.00    +0.000 OA
ATOM     10  N   UNL     1       8.703   8.463  18.736  0.00  0.00    +0.000 N 
ATOM     11  H   UNL     1       8.553   6.087  18.611  0.00  0.00    +0.000 HD
ATOM     12  H   UNL     1       8.806   8.032  19.645  0.00  0.00    +0.000 HD
BRANCH  10  13
ATOM     13  C   UNL     1       8.827   9.914  18.684  0.00  0.00    +0.000 C 
BRANCH  13  14
ATOM     14  C   UNL     1       9.520  10.512  19.908  0.00  0.00    +0.000 C 
ATOM     15 CL   UNL     1      10.930  11.491  19.414  0.00  0.00    +0.000 Cl
ENDBRANCH  13  14
ENDBRANCH  10  13
ENDBRANCH   5   7
BRANCH   1  16
ATOM     16  S   UNL     1       3.939   3.139  18.098  0.00  0.00    +0.000 S 
ATOM     17  O   UNL     1       4.403   3.128  19.471  0.00  0.00    +0.000 OA
ATOM     18  O   UNL     1       3.708   1.914  17.354  0.00  0.00    +0.000 OA
BRANCH  16  19
ATOM     19  O   UNL     1       2.620   4.096  17.971  0.00  0.00    +0.000 OA
BRANCH  19  25
ATOM     20  C   UNL     1       1.370   4.946  19.952  0.00  0.00    +0.000 A 
ATOM     21  C   UNL     1       1.086   6.089  20.735  0.00  0.00    +0.000 A 
ATOM     22  C   UNL     1       1.674   7.322  20.472  0.00  0.00    +0.000 A 
ATOM     23  C   UNL     1       2.577   7.437  19.426  0.00  0.00    +0.000 A 
ATOM     24  C   UNL     1       2.888   6.316  18.649  0.00  0.00    +0.000 A 
ATOM     25  C   UNL     1       2.301   5.062  18.904  0.00  0.00    +0.000 A 
BRANCH  20  26
ATOM     26  C   UNL     1       0.589   3.705  20.312  0.00  0.00    +0.000 C 
BRANCH  26  28
ATOM     27  C   UNL     1       2.177   2.842  22.076  0.00  0.00    +0.000 C 
ATOM     28  C   UNL     1       1.493   2.550  20.752  0.00  0.00    +0.000 C 
ENDBRANCH  26  28
ENDBRANCH  20  26
ENDBRANCH  19  25
ENDBRANCH  16  19
ENDBRANCH   1  16
TORSDOF 8
ENDMDL
MODEL 3
REMARK VINA RESULT:      -7.5      1.286      1.523
REMARK  Name = 
REMARK  9 active torsions:
REMARK  status: ('A' for Active; 'I' for Inactive)
REMARK    1  A    between atoms: C_1  and  C_2
REMARK    2  A    between atoms: C_2  and  C_3
REMARK    3  A    between atoms: C_3  and  C_4
REMARK    4  A    between atoms: C_9  and  O_10
REMARK    5  A    between atoms: O_10  and  S_11
REMARK    6  A    between atoms: S_11  and  C_14
REMARK    7  A    between atoms: C_18  and  N_19
REMARK    8  A    between atoms: N_22  and  C_23
REMARK    9  A    between atoms: C_23  and  C_24
REMARK                            x       y       z     vdW  Elec       q    Type
REMARK                         _______ _______ _______ _____ _____    ______ ____
ROOT
ATOM      1  C   UNL     1       6.409   6.025  17.387  0.00  0.00    +0.000 A 
ATOM      2  C   UNL     1       6.972   5.279  18.418  0.00  0.00    +0.000 A 
ATOM      3  C   UNL     1       7.961   5.870  19.200  0.00  0.00    +0.000 A 
ATOM      4  C   UNL     1       8.363   7.189  18.956  0.00  0.00    +0.000 A 
ATOM      5  C   UNL     1       7.777   7.956  17.943  0.00  0.00    +0.000 A 
ATOM      6  C   UNL     1       6.798   7.358  17.149  0.00  0.00    +0.000 A 
ENDROOT
BRANCH   5   7
ATOM      7  N   UNL     1       8.128   9.300  17.683  0.00  0.00    +0.000 N 
ATOM      8  C   UNL     1       8.891  10.110  18.495  0.00  0.00    +0.000 C 
ATOM      9  O   UNL     1       9.344   9.818  19.592  0.00  0.00    +0.000 OA
ATOM     10  N   UNL     1       9.072  11.369  17.960  0.00  0.00    +0.000 N 
ATOM     11  H   UNL     1       7.658   9.760  16.915  0.00  0.00    +0.000 HD
ATOM     12  H   UNL     1       9.110  11.436  16.952  0.00  0.00    +0.000 HD
BRANCH  10  13
ATOM     13  C   UNL     1       9.862  12.340  18.708  0.00  0.00    +0.000 C 
BRANCH  13  14
ATOM     14  C   UNL     1      11.350  12.311  18.362  0.00  0.00    +0.000 C 
ATOM     15 CL   UNL     1      12.333  12.108  19.839  0.00  0.00    +0.000 Cl
ENDBRANCH  13  14
ENDBRANCH  10  13
ENDBRANCH   5   7
BRANCH   1  16
ATOM     16  S   UNL     1       5.170   5.342  16.313  0.00  0.00    +0.000 S 
ATOM     17  O   UNL     1       5.180   3.924  16.611  0.00  0.00    +0.000 OA
ATOM     18  O   UNL     1       5.525   5.855  15.002  0.00  0.00    +0.000 OA
BRANCH  16  19
ATOM     19  O   UNL     1       3.740   5.990  16.768  0.00  0.00    +0.000 OA
BRANCH  19  25
ATOM     20  C   UNL     1       2.383   4.547  18.281  0.00  0.00    +0.000 A 
ATOM     21  C   UNL     1       1.731   4.480  19.535  0.00  0.00    +0.000 A 
ATOM     22  C   UNL     1       1.785   5.530  20.446  0.00  0.00    +0.000 A 
ATOM     23  C   UNL     1       2.509   6.670  20.130  0.00  0.00    +0.000 A 
ATOM     24  C   UNL     1       3.178   6.752  18.904  0.00  0.00    +0.000 A 
ATOM     25  C   UNL     1       3.132   5.697  17.973  0.00  0.00    +0.000 A 
BRANCH  20  26
ATOM     26  C   UNL     1       2.161   3.363  17.372  0.00  0.00    +0.000 C 
BRANCH  26  28
ATOM     27  C   UNL     1       3.564   1.516  18.371  0.00  0.00    +0.000 C 
ATOM     28  C   UNL     1       2.157   2.033  18.132  0.00  0.00    +0.000 C 
ENDBRANCH  26  28
ENDBRANCH  20  26
ENDBRANCH  19  25
ENDBRANCH  16  19
ENDBRANCH   1  16
TORSDOF 8
ENDMDL
MODEL 4
REMARK VINA RESULT:      -7.4      0.804      1.042
REMARK  Name = 
REMARK  9 active torsions:
REMARK  status: ('A' for Active; 'I' for Inactive)
REMARK    1  A    between atoms: C_1  and  C_2
REMARK    2  A    between atoms: C_2  and  C_3
REMARK    3  A    between atoms: C_3  and  C_4
REMARK    4  A    between atoms: C_9  and  O_10
REMARK    5  A    between atoms: O_10  and  S_11
REMARK    6  A    between atoms: S_11  and  C_14
REMARK    7  A    between atoms: C_18  and  N_19
REMARK    8  A    between atoms: N_22  and  C_23
REMARK    9  A    between atoms: C_23  and  C_24
REMARK                            x       y       z     vdW  Elec       q    Type
REMARK                         _______ _______ _______ _____ _____    ______ ____
ROOT
ATOM      1  C   UNL     1       6.700   5.907  17.103  0.00  0.00    +0.000 A 
ATOM      2  C   UNL     1       7.186   5.179  18.185  0.00  0.00    +0.000 A 
ATOM      3  C   UNL     1       8.014   5.825  19.099  0.00  0.00    +0.000 A 
ATOM      4  C   UNL     1       8.333   7.178  18.934  0.00  0.00    +0.000 A 
ATOM      5  C   UNL     1       7.820   7.924  17.868  0.00  0.00    +0.000 A 
ATOM      6  C   UNL     1       7.004   7.273  16.942  0.00  0.00    +0.000 A 
ENDROOT
BRANCH   5   7
ATOM      7  N   UNL     1       8.088   9.299  17.680  0.00  0.00    +0.000 N 
ATOM      8  C   UNL     1       8.817  10.106  18.527  0.00  0.00    +0.000 C 
ATOM      9  O   UNL     1       9.306   9.779  19.598  0.00  0.00    +0.000 OA
ATOM     10  N   UNL     1       8.915  11.402  18.062  0.00  0.00    +0.000 N 
ATOM     11  H   UNL     1       7.578   9.774  16.947  0.00  0.00    +0.000 HD
ATOM     12  H   UNL     1       8.931  11.527  17.059  0.00  0.00    +0.000 HD
BRANCH  10  13
ATOM     13  C   UNL     1       9.661  12.373  18.853  0.00  0.00    +0.000 C 
BRANCH  13  14
ATOM     14  C   UNL     1       8.948  13.717  18.999  0.00  0.00    +0.000 C 
ATOM     15 CL   UNL     1       9.629  14.915  17.863  0.00  0.00    +0.000 Cl
ENDBRANCH  13  14
ENDBRANCH  10  13
ENDBRANCH   5   7
BRANCH   1  16
ATOM     16  S   UNL     1       5.669   5.158  15.865  0.00  0.00    +0.000 S 
ATOM     17  O   UNL     1       6.422   4.001  15.424  0.00  0.00    +0.000 OA
ATOM     18  O   UNL     1       5.349   6.255  14.970  0.00  0.00    +0.000 OA
BRANCH  16  19
ATOM     19  O   UNL     1       4.302   4.671  16.619  0.00  0.00    +0.000 OA
BRANCH  19  25
ATOM     20  C   UNL     1       3.589   4.753  19.005  0.00  0.00    +0.000 A 
ATOM     21  C   UNL     1       2.934   5.531  19.988  0.00  0.00    +0.000 A 
ATOM     22  C   UNL     1       2.456   6.809  19.714  0.00  0.00    +0.000 A 
ATOM     23  C   UNL     1       2.639   7.346  18.449  0.00  0.00    +0.000 A 
ATOM     24  C   UNL     1       3.300   6.604  17.466  0.00  0.00    +0.000 A 
ATOM     25  C   UNL     1       3.789   5.310  17.729  0.00  0.00    +0.000 A 
BRANCH  20  26
ATOM     26  C   UNL     1       3.973   3.358  19.434  0.00  0.00    +0.000 C 
BRANCH  26  28
ATOM     27  C   UNL     1       2.078   2.260  18.175  0.00  0.00    +0.000 C 
ATOM     28  C   UNL     1       2.767   2.417  19.519  0.00  0.00    +0.000 C 
ENDBRANCH  26  28
ENDBRANCH  20  26
ENDBRANCH  19  25
ENDBRANCH  16  19
ENDBRANCH   1  16
TORSDOF 8
ENDMDL
MODEL 5
REMARK VINA RESULT:      -7.4      5.589      7.958
REMARK  Name = 
REMARK  9 active torsions:
REMARK  status: ('A' for Active; 'I' for Inactive)
REMARK    1  A    between atoms: C_1  and  C_2
REMARK    2  A    between atoms: C_2  and  C_3
REMARK    3  A    between atoms: C_3  and  C_4
REMARK    4  A    between atoms: C_9  and  O_10
REMARK    5  A    between atoms: O_10  and  S_11
REMARK    6  A    between atoms: S_11  and  C_14
REMARK    7  A    between atoms: C_18  and  N_19
REMARK    8  A    between atoms: N_22  and  C_23
REMARK    9  A    between atoms: C_23  and  C_24
REMARK                            x       y       z     vdW  Elec       q    Type
REMARK                         _______ _______ _______ _____ _____    ______ ____
ROOT
ATOM      1  C   UNL     1       1.823   8.163  19.009  0.00  0.00    +0.000 A 
ATOM      2  C   UNL     1       1.756   8.366  20.385  0.00  0.00    +0.000 A 
ATOM      3  C   UNL     1       0.946   9.393  20.863  0.00  0.00    +0.000 A 
ATOM      4  C   UNL     1       0.209  10.187  19.975  0.00  0.00    +0.000 A 
ATOM      5  C   UNL     1       0.246   9.965  18.595  0.00  0.00    +0.000 A 
ATOM      6  C   UNL     1       1.071   8.947  18.114  0.00  0.00    +0.000 A 
ENDROOT
BRANCH   5   7
ATOM      7  N   UNL     1      -0.505  10.719  17.665  0.00  0.00    +0.000 N 
ATOM      8  C   UNL     1      -1.816  10.492  17.308  0.00  0.00    +0.000 C 
ATOM      9  O   UNL     1      -2.525   9.575  17.695  0.00  0.00    +0.000 OA
ATOM     10  N   UNL     1      -2.276  11.409  16.385  0.00  0.00    +0.000 N 
ATOM     11  H   UNL     1      -0.001  11.387  17.097  0.00  0.00    +0.000 HD
ATOM     12  H   UNL     1      -1.891  12.343  16.439  0.00  0.00    +0.000 HD
BRANCH  10  13
ATOM     13  C   UNL     1      -3.651  11.297  15.913  0.00  0.00    +0.000 C 
BRANCH  13  14
ATOM     14  C   UNL     1      -3.920  10.020  15.117  0.00  0.00    +0.000 C 
ATOM     15 CL   UNL     1      -2.908   9.975  13.646  0.00  0.00    +0.000 Cl
ENDBRANCH  13  14
ENDBRANCH  10  13
ENDBRANCH   5   7
BRANCH   1  16
ATOM     16  S   UNL     1       2.860   6.903  18.305  0.00  0.00    +0.000 S 
ATOM     17  O   UNL     1       3.900   7.639  17.616  0.00  0.00    +0.000 OA
ATOM     18  O   UNL     1       1.928   6.043  17.598  0.00  0.00    +0.000 OA
BRANCH  16  19
ATOM     19  O   UNL     1       3.509   6.071  19.554  0.00  0.00    +0.000 OA
BRANCH  19  25
ATOM     20  C   UNL     1       3.581   3.585  19.402  0.00  0.00    +0.000 A 
ATOM     21  C   UNL     1       2.944   2.385  19.796  0.00  0.00    +0.000 A 
ATOM     22  C   UNL     1       1.834   2.386  20.635  0.00  0.00    +0.000 A 
ATOM     23  C   UNL     1       1.345   3.591  21.116  0.00  0.00    +0.000 A 
ATOM     24  C   UNL     1       1.970   4.789  20.756  0.00  0.00    +0.000 A 
ATOM     25  C   UNL     1       3.093   4.804  19.908  0.00  0.00    +0.000 A 
BRANCH  20  26
ATOM     26  C   UNL     1       4.718   3.422  18.423  0.00  0.00    +0.000 C 
BRANCH  26  28
ATOM     27  C   UNL     1       5.354   4.433  16.198  0.00  0.00    +0.000 C 
ATOM     28  C   UNL     1       4.289   3.681  16.976  0.00  0.00    +0.000 C 
ENDBRANCH  26  28
ENDBRANCH  20  26
ENDBRANCH  19  25
ENDBRANCH  16  19
ENDBRANCH   1  16
TORSDOF 8
ENDMDL
MODEL 6
REMARK VINA RESULT:      -7.4      2.518      3.843
REMARK  Name = 
REMARK  9 active torsions:
REMARK  status: ('A' for Active; 'I' for Inactive)
REMARK    1  A    between atoms: C_1  and  C_2
REMARK    2  A    between atoms: C_2  and  C_3
REMARK    3  A    between atoms: C_3  and  C_4
REMARK    4  A    between atoms: C_9  and  O_10
REMARK    5  A    between atoms: O_10  and  S_11
REMARK    6  A    between atoms: S_11  and  C_14
REMARK    7  A    between atoms: C_18  and  N_19
REMARK    8  A    between atoms: N_22  and  C_23
REMARK    9  A    between atoms: C_23  and  C_24
REMARK                            x       y       z     vdW  Elec       q    Type
REMARK                         _______ _______ _______ _____ _____    ______ ____
ROOT
ATOM      1  C   UNL     1       4.270   4.814  18.019  0.00  0.00    +0.000 A 
ATOM      2  C   UNL     1       4.492   3.950  16.951  0.00  0.00    +0.000 A 
ATOM      3  C   UNL     1       5.741   3.964  16.336  0.00  0.00    +0.000 A 
ATOM      4  C   UNL     1       6.748   4.821  16.796  0.00  0.00    +0.000 A 
ATOM      5  C   UNL     1       6.543   5.667  17.891  0.00  0.00    +0.000 A 
ATOM      6  C   UNL     1       5.286   5.665  18.497  0.00  0.00    +0.000 A 
ENDROOT
BRANCH   5   7
ATOM      7  N   UNL     1       7.540   6.524  18.410  0.00  0.00    +0.000 N 
ATOM      8  C   UNL     1       7.737   7.843  18.062  0.00  0.00    +0.000 C 
ATOM      9  O   UNL     1       7.117   8.470  17.216  0.00  0.00    +0.000 OA
ATOM     10  N   UNL     1       8.782   8.418  18.754  0.00  0.00    +0.000 N 
ATOM     11  H   UNL     1       8.269   6.100  18.968  0.00  0.00    +0.000 HD
ATOM     12  H   UNL     1       8.948   8.082  19.694  0.00  0.00    +0.000 HD
BRANCH  10  13
ATOM     13  C   UNL     1       9.110   9.815  18.494  0.00  0.00    +0.000 C 
BRANCH  13  14
ATOM     14  C   UNL     1       9.540  10.583  19.742  0.00  0.00    +0.000 C 
ATOM     15 CL   UNL     1      11.021  11.527  19.417  0.00  0.00    +0.000 Cl
ENDBRANCH  13  14
ENDBRANCH  10  13
ENDBRANCH   5   7
BRANCH   1  16
ATOM     16  S   UNL     1       2.697   4.894  18.841  0.00  0.00    +0.000 S 
ATOM     17  O   UNL     1       2.650   3.686  19.641  0.00  0.00    +0.000 OA
ATOM     18  O   UNL     1       1.755   5.140  17.764  0.00  0.00    +0.000 OA
BRANCH  16  19
ATOM     19  O   UNL     1       2.740   6.202  19.820  0.00  0.00    +0.000 OA
BRANCH  19  25
ATOM     20  C   UNL     1       1.407   8.280  20.160  0.00  0.00    +0.000 A 
ATOM     21  C   UNL     1       0.939   9.465  19.547  0.00  0.00    +0.000 A 
ATOM     22  C   UNL     1       1.287   9.801  18.242  0.00  0.00    +0.000 A 
ATOM     23  C   UNL     1       2.127   8.963  17.524  0.00  0.00    +0.000 A 
ATOM     24  C   UNL     1       2.617   7.795  18.116  0.00  0.00    +0.000 A 
ATOM     25  C   UNL     1       2.274   7.443  19.435  0.00  0.00    +0.000 A 
BRANCH  20  26
ATOM     26  C   UNL     1       0.873   8.016  21.548  0.00  0.00    +0.000 C 
BRANCH  26  28
ATOM     27  C   UNL     1      -0.351   9.571  23.117  0.00  0.00    +0.000 C 
ATOM     28  C   UNL     1       0.978   9.242  22.460  0.00  0.00    +0.000 C 
ENDBRANCH  26  28
ENDBRANCH  20  26
ENDBRANCH  19  25
ENDBRANCH  16  19
ENDBRANCH   1  16
TORSDOF 8
ENDMDL
MODEL 7
REMARK VINA RESULT:      -7.4      5.988      8.355
REMARK  Name = 
REMARK  9 active torsions:
REMARK  status: ('A' for Active; 'I' for Inactive)
REMARK    1  A    between atoms: C_1  and  C_2
REMARK    2  A    between atoms: C_2  and  C_3
REMARK    3  A    between atoms: C_3  and  C_4
REMARK    4  A    between atoms: C_9  and  O_10
REMARK    5  A    between atoms: O_10  and  S_11
REMARK    6  A    between atoms: S_11  and  C_14
REMARK    7  A    between atoms: C_18  and  N_19
REMARK    8  A    between atoms: N_22  and  C_23
REMARK    9  A    between atoms: C_23  and  C_24
REMARK                            x       y       z     vdW  Elec       q    Type
REMARK                         _______ _______ _______ _____ _____    ______ ____
ROOT
ATOM      1  C   UNL     1       1.652   8.434  19.154  0.00  0.00    +0.000 A 
ATOM      2  C   UNL     1       1.649   8.666  20.526  0.00  0.00    +0.000 A 
ATOM      3  C   UNL     1       0.839   9.684  21.023  0.00  0.00    +0.000 A 
ATOM      4  C   UNL     1       0.040  10.442  20.157  0.00  0.00    +0.000 A 
ATOM      5  C   UNL     1       0.014  10.190  18.781  0.00  0.00    +0.000 A 
ATOM      6  C   UNL     1       0.838   9.181  18.281  0.00  0.00    +0.000 A 
ENDROOT
BRANCH   5   7
ATOM      7  N   UNL     1      -0.800  10.906  17.875  0.00  0.00    +0.000 N 
ATOM      8  C   UNL     1      -2.083  10.572  17.499  0.00  0.00    +0.000 C 
ATOM      9  O   UNL     1      -2.705   9.579  17.846  0.00  0.00    +0.000 OA
ATOM     10  N   UNL     1      -2.623  11.477  16.609  0.00  0.00    +0.000 N 
ATOM     11  H   UNL     1      -0.359  11.640  17.336  0.00  0.00    +0.000 HD
ATOM     12  H   UNL     1      -2.327  12.440  16.700  0.00  0.00    +0.000 HD
BRANCH  10  13
ATOM     13  C   UNL     1      -3.979  11.256  16.121  0.00  0.00    +0.000 C 
BRANCH  13  14
ATOM     14  C   UNL     1      -5.044  12.008  16.918  0.00  0.00    +0.000 C 
ATOM     15 CL   UNL     1      -5.880  10.905  18.046  0.00  0.00    +0.000 Cl
ENDBRANCH  13  14
ENDBRANCH  10  13
ENDBRANCH   5   7
BRANCH   1  16
ATOM     16  S   UNL     1       2.682   7.183  18.425  0.00  0.00    +0.000 S 
ATOM     17  O   UNL     1       3.779   7.923  17.834  0.00  0.00    +0.000 OA
ATOM     18  O   UNL     1       1.761   6.400  17.622  0.00  0.00    +0.000 OA
BRANCH  16  19
ATOM     19  O   UNL     1       3.240   6.256  19.651  0.00  0.00    +0.000 OA
BRANCH  19  25
ATOM     20  C   UNL     1       3.495   3.818  19.203  0.00  0.00    +0.000 A 
ATOM     21  C   UNL     1       2.914   2.543  19.391  0.00  0.00    +0.000 A 
ATOM     22  C   UNL     1       1.746   2.371  20.128  0.00  0.00    +0.000 A 
ATOM     23  C   UNL     1       1.139   3.474  20.709  0.00  0.00    +0.000 A 
ATOM     24  C   UNL     1       1.706   4.743  20.553  0.00  0.00    +0.000 A 
ATOM     25  C   UNL     1       2.887   4.932  19.811  0.00  0.00    +0.000 A 
BRANCH  20  26
ATOM     26  C   UNL     1       4.712   3.849  18.310  0.00  0.00    +0.000 C 
BRANCH  26  28
ATOM     27  C   UNL     1       5.576   3.995  15.941  0.00  0.00    +0.000 C 
ATOM     28  C   UNL     1       4.357   4.101  16.842  0.00  0.00    +0.000 C 
ENDBRANCH  26  28
ENDBRANCH  20  26
ENDBRANCH  19  25
ENDBRANCH  16  19
ENDBRANCH   1  16
TORSDOF 8
ENDMDL
MODEL 8
REMARK VINA RESULT:      -7.3      5.619      8.184
REMARK  Name = 
REMARK  9 active torsions:
REMARK  status: ('A' for Active; 'I' for Inactive)
REMARK    1  A    between atoms: C_1  and  C_2
REMARK    2  A    between atoms: C_2  and  C_3
REMARK    3  A    between atoms: C_3  and  C_4
REMARK    4  A    between atoms: C_9  and  O_10
REMARK    5  A    between atoms: O_10  and  S_11
REMARK    6  A    between atoms: S_11  and  C_14
REMARK    7  A    between atoms: C_18  and  N_19
REMARK    8  A    between atoms: N_22  and  C_23
REMARK    9  A    between atoms: C_23  and  C_24
REMARK                            x       y       z     vdW  Elec       q    Type
REMARK                         _______ _______ _______ _____ _____    ______ ____
ROOT
ATOM      1  C   UNL     1       1.933   8.027  19.115  0.00  0.00    +0.000 A 
ATOM      2  C   UNL     1       1.775   8.101  20.496  0.00  0.00    +0.000 A 
ATOM      3  C   UNL     1       0.885   9.041  21.011  0.00  0.00    +0.000 A 
ATOM      4  C   UNL     1       0.161   9.876  20.151  0.00  0.00    +0.000 A 
ATOM      5  C   UNL     1       0.290   9.782  18.762  0.00  0.00    +0.000 A 
ATOM      6  C   UNL     1       1.194   8.853  18.246  0.00  0.00    +0.000 A 
ENDROOT
BRANCH   5   7
ATOM      7  N   UNL     1      -0.445  10.581  17.856  0.00  0.00    +0.000 N 
ATOM      8  C   UNL     1      -1.782  10.444  17.555  0.00  0.00    +0.000 C 
ATOM      9  O   UNL     1      -2.537   9.582  17.980  0.00  0.00    +0.000 OA
ATOM     10  N   UNL     1      -2.215  11.385  16.643  0.00  0.00    +0.000 N 
ATOM     11  H   UNL     1       0.080  11.208  17.261  0.00  0.00    +0.000 HD
ATOM     12  H   UNL     1      -1.763  12.290  16.672  0.00  0.00    +0.000 HD
BRANCH  10  13
ATOM     13  C   UNL     1      -3.612  11.367  16.228  0.00  0.00    +0.000 C 
BRANCH  13  14
ATOM     14  C   UNL     1      -4.590  11.671  17.363  0.00  0.00    +0.000 C 
ATOM     15 CL   UNL     1      -5.912  12.723  16.786  0.00  0.00    +0.000 Cl
ENDBRANCH  13  14
ENDBRANCH  10  13
ENDBRANCH   5   7
BRANCH   1  16
ATOM     16  S   UNL     1       3.074   6.887  18.371  0.00  0.00    +0.000 S 
ATOM     17  O   UNL     1       3.833   6.360  19.486  0.00  0.00    +0.000 OA
ATOM     18  O   UNL     1       3.698   7.661  17.313  0.00  0.00    +0.000 OA
BRANCH  16  19
ATOM     19  O   UNL     1       2.181   5.693  17.700  0.00  0.00    +0.000 OA
BRANCH  19  25
ATOM     20  C   UNL     1       3.392   3.524  17.510  0.00  0.00    +0.000 A 
ATOM     21  C   UNL     1       3.351   2.146  17.827  0.00  0.00    +0.000 A 
ATOM     22  C   UNL     1       2.312   1.597  18.572  0.00  0.00    +0.000 A 
ATOM     23  C   UNL     1       1.295   2.420  19.033  0.00  0.00    +0.000 A 
ATOM     24  C   UNL     1       1.325   3.789  18.748  0.00  0.00    +0.000 A 
ATOM     25  C   UNL     1       2.369   4.358  17.995  0.00  0.00    +0.000 A 
BRANCH  20  26
ATOM     26  C   UNL     1       4.539   3.949  16.625  0.00  0.00    +0.000 C 
BRANCH  26  28
ATOM     27  C   UNL     1       6.960   4.659  16.515  0.00  0.00    +0.000 C 
ATOM     28  C   UNL     1       5.794   4.313  17.424  0.00  0.00    +0.000 C 
ENDBRANCH  26  28
ENDBRANCH  20  26
ENDBRANCH  19  25
ENDBRANCH  16  19
ENDBRANCH   1  16
TORSDOF 8
ENDMDL
MODEL 9
REMARK VINA RESULT:      -7.2      6.100      8.096
REMARK  Name = 
REMARK  9 active torsions:
REMARK  status: ('A' for Active; 'I' for Inactive)
REMARK    1  A    between atoms: C_1  and  C_2
REMARK    2  A    between atoms: C_2  and  C_3
REMARK    3  A    between atoms: C_3  and  C_4
REMARK    4  A    between atoms: C_9  and  O_10
REMARK    5  A    between atoms: O_10  and  S_11
REMARK    6  A    between atoms: S_11  and  C_14
REMARK    7  A    between atoms: C_18  and  N_19
REMARK    8  A    between atoms: N_22  and  C_23
REMARK    9  A    between atoms: C_23  and  C_24
REMARK                            x       y       z     vdW  Elec       q    Type
REMARK                         _______ _______ _______ _____ _____    ______ ____
ROOT
ATOM      1  C   UNL     1       1.685   8.164  19.344  0.00  0.00    +0.000 A 
ATOM      2  C   UNL     1       1.471   8.145  20.719  0.00  0.00    +0.000 A 
ATOM      3  C   UNL     1       0.540   9.031  21.256  0.00  0.00    +0.000 A 
ATOM      4  C   UNL     1      -0.168   9.906  20.423  0.00  0.00    +0.000 A 
ATOM      5  C   UNL     1       0.018   9.905  19.037  0.00  0.00    +0.000 A 
ATOM      6  C   UNL     1       0.963   9.029  18.500  0.00  0.00    +0.000 A 
ENDROOT
BRANCH   5   7
ATOM      7  N   UNL     1      -0.699  10.746  18.155  0.00  0.00    +0.000 N 
ATOM      8  C   UNL     1      -1.916  10.463  17.575  0.00  0.00    +0.000 C 
ATOM      9  O   UNL     1      -2.549   9.423  17.687  0.00  0.00    +0.000 OA
ATOM     10  N   UNL     1      -2.367  11.491  16.772  0.00  0.00    +0.000 N 
ATOM     11  H   UNL     1      -0.215  11.557  17.794  0.00  0.00    +0.000 HD
ATOM     12  H   UNL     1      -2.110  12.430  17.045  0.00  0.00    +0.000 HD
BRANCH  10  13
ATOM     13  C   UNL     1      -3.647  11.336  16.091  0.00  0.00    +0.000 C 
BRANCH  13  14
ATOM     14  C   UNL     1      -4.807  12.022  16.810  0.00  0.00    +0.000 C 
ATOM     15 CL   UNL     1      -5.598  10.892  17.944  0.00  0.00    +0.000 Cl
ENDBRANCH  13  14
ENDBRANCH  10  13
ENDBRANCH   5   7
BRANCH   1  16
ATOM     16  S   UNL     1       2.881   7.098  18.575  0.00  0.00    +0.000 S 
ATOM     17  O   UNL     1       3.648   6.563  19.681  0.00  0.00    +0.000 OA
ATOM     18  O   UNL     1       3.485   7.935  17.554  0.00  0.00    +0.000 OA
BRANCH  16  19
ATOM     19  O   UNL     1       2.045   5.894  17.850  0.00  0.00    +0.000 OA
BRANCH  19  25
ATOM     20  C   UNL     1       2.048   3.483  18.478  0.00  0.00    +0.000 A 
ATOM     21  C   UNL     1       2.741   2.257  18.347  0.00  0.00    +0.000 A 
ATOM     22  C   UNL     1       3.885   2.141  17.563  0.00  0.00    +0.000 A 
ATOM     23  C   UNL     1       4.354   3.250  16.876  0.00  0.00    +0.000 A 
ATOM     24  C   UNL     1       3.675   4.468  16.974  0.00  0.00    +0.000 A 
ATOM     25  C   UNL     1       2.517   4.600  17.764  0.00  0.00    +0.000 A 
BRANCH  20  26
ATOM     26  C   UNL     1       0.877   3.465  19.430  0.00  0.00    +0.000 C 
BRANCH  26  28
ATOM     27  C   UNL     1       1.554   2.666  21.728  0.00  0.00    +0.000 C 
ATOM     28  C   UNL     1       1.269   3.874  20.852  0.00  0.00    +0.000 C 
ENDBRANCH  26  28
ENDBRANCH  20  26
ENDBRANCH  19  25
ENDBRANCH  16  19
ENDBRANCH   1  16
TORSDOF 8
ENDMDL
