MODEL 1
REMARK VINA RESULT:      -7.7      0.000      0.000
REMARK  Name = 
REMARK  2 active torsions:
REMARK  status: ('A' for Active; 'I' for Inactive)
REMARK    1  A    between atoms: C_2  and  C_3
REMARK    2  A    between atoms: C_14  and  C_16
REMARK                            x       y       z     vdW  Elec       q    Type
REMARK                         _______ _______ _______ _____ _____    ______ ____
ROOT
ATOM      1  O   UNL     1       2.224   8.882  17.140  0.00  0.00    +0.000 OA
ATOM      2  C   UNL     1       2.113   8.173  18.142  0.00  0.00    +0.000 C 
ATOM      3  N   UNL     1       1.434   8.600  19.283  0.00  0.00    +0.000 N 
ATOM      4  C   UNL     1       1.323   7.888  20.574  0.00  0.00    +0.000 C 
ATOM      5  C   UNL     1       1.543   8.800  21.789  0.00  0.00    +0.000 C 
ATOM      6  N   UNL     1       0.776  10.039  21.675  0.00  0.00    +0.000 N 
ATOM      7  C   UNL     1      -0.101  10.374  22.702  0.00  0.00    +0.000 C 
ATOM      8  O   UNL     1      -0.216   9.685  23.718  0.00  0.00    +0.000 OA
ATOM      9  C   UNL     1       1.067  10.768  20.431  0.00  0.00    +0.000 C 
ATOM     10  C   UNL     1       0.712   9.883  19.225  0.00  0.00    +0.000 C 
ENDROOT
BRANCH   2  11
ATOM     11  C   UNL     1       2.786   6.845  18.101  0.00  0.00    +0.000 A 
ATOM     12  C   UNL     1       4.185   6.815  18.014  0.00  0.00    +0.000 A 
ATOM     13  C   UNL     1       4.868   5.598  18.022  0.00  0.00    +0.000 A 
ATOM     14  C   UNL     1       4.158   4.404  18.139  0.00  0.00    +0.000 A 
ATOM     15  C   UNL     1       2.765   4.432  18.185  0.00  0.00    +0.000 A 
ATOM     16 BR   UNL     1       1.797   2.822  18.391  0.00  0.00    +0.000 Br
ATOM     17  C   UNL     1       2.074   5.642  18.114  0.00  0.00    +0.000 A 
ENDBRANCH   2  11
BRANCH   7  18
ATOM     18  C   UNL     1      -0.921  11.611  22.641  0.00  0.00    +0.000 A 
ATOM     19  C   UNL     1      -0.560  12.720  21.869  0.00  0.00    +0.000 A 
ATOM     20  C   UNL     1      -1.329  13.883  21.909  0.00  0.00    +0.000 A 
ATOM     21  C   UNL     1      -2.509  13.912  22.653  0.00  0.00    +0.000 A 
ATOM     22  C   UNL     1      -2.922  12.770  23.338  0.00  0.00    +0.000 A 
ATOM     23 BR   UNL     1      -4.572  12.780  24.260  0.00  0.00    +0.000 Br
ATOM     24  C   UNL     1      -2.133  11.623  23.342  0.00  0.00    +0.000 A 
ENDBRANCH   7  18
TORSDOF 2
ENDMDL
MODEL 2
REMARK VINA RESULT:      -7.7      1.125      1.487
REMARK  Name = 
REMARK  2 active torsions:
REMARK  status: ('A' for Active; 'I' for Inactive)
REMARK    1  A    between atoms: C_2  and  C_3
REMARK    2  A    between atoms: C_14  and  C_16
REMARK                            x       y       z     vdW  Elec       q    Type
REMARK                         _______ _______ _______ _____ _____    ______ ____
ROOT
ATOM      1  O   UNL     1       2.239   8.802  17.191  0.00  0.00    +0.000 OA
ATOM      2  C   UNL     1       2.138   8.107  18.204  0.00  0.00    +0.000 C 
ATOM      3  N   UNL     1       1.456   8.542  19.340  0.00  0.00    +0.000 N 
ATOM      4  C   UNL     1       1.355   7.848  20.641  0.00  0.00    +0.000 C 
ATOM      5  C   UNL     1       1.567   8.781  21.842  0.00  0.00    +0.000 C 
ATOM      6  N   UNL     1       0.785  10.008  21.712  0.00  0.00    +0.000 N 
ATOM      7  C   UNL     1      -0.094  10.348  22.735  0.00  0.00    +0.000 C 
ATOM      8  O   UNL     1      -0.199   9.673  23.761  0.00  0.00    +0.000 OA
ATOM      9  C   UNL     1       1.065  10.722  20.456  0.00  0.00    +0.000 C 
ATOM     10  C   UNL     1       0.719   9.815  19.264  0.00  0.00    +0.000 C 
ENDROOT
BRANCH   2  11
ATOM     11  C   UNL     1       2.827   6.786  18.182  0.00  0.00    +0.000 A 
ATOM     12  C   UNL     1       2.048   5.639  17.970  0.00  0.00    +0.000 A 
ATOM     13  C   UNL     1       2.649   4.381  17.891  0.00  0.00    +0.000 A 
ATOM     14  C   UNL     1       4.034   4.266  18.002  0.00  0.00    +0.000 A 
ATOM     15  C   UNL     1       4.803   5.401  18.253  0.00  0.00    +0.000 A 
ATOM     16 BR   UNL     1       6.684   5.260  18.357  0.00  0.00    +0.000 Br
ATOM     17  C   UNL     1       4.202   6.651  18.395  0.00  0.00    +0.000 A 
ENDBRANCH   2  11
BRANCH   7  18
ATOM     18  C   UNL     1      -0.929  11.574  22.657  0.00  0.00    +0.000 A 
ATOM     19  C   UNL     1      -0.577  12.681  21.878  0.00  0.00    +0.000 A 
ATOM     20  C   UNL     1      -1.361  13.834  21.903  0.00  0.00    +0.000 A 
ATOM     21  C   UNL     1      -2.546  13.855  22.637  0.00  0.00    +0.000 A 
ATOM     22  C   UNL     1      -2.950  12.714  23.329  0.00  0.00    +0.000 A 
ATOM     23 BR   UNL     1      -4.607  12.711  24.239  0.00  0.00    +0.000 Br
ATOM     24  C   UNL     1      -2.147  11.577  23.349  0.00  0.00    +0.000 A 
ENDBRANCH   7  18
TORSDOF 2
ENDMDL
MODEL 3
REMARK VINA RESULT:      -7.6      1.192      1.534
REMARK  Name = 
REMARK  2 active torsions:
REMARK  status: ('A' for Active; 'I' for Inactive)
REMARK    1  A    between atoms: C_2  and  C_3
REMARK    2  A    between atoms: C_14  and  C_16
REMARK                            x       y       z     vdW  Elec       q    Type
REMARK                         _______ _______ _______ _____ _____    ______ ____
ROOT
ATOM      1  O   UNL     1       2.148   9.057  17.163  0.00  0.00    +0.000 OA
ATOM      2  C   UNL     1       2.047   8.331  18.154  0.00  0.00    +0.000 C 
ATOM      3  N   UNL     1       1.365   8.732  19.303  0.00  0.00    +0.000 N 
ATOM      4  C   UNL     1       1.263   7.998  20.583  0.00  0.00    +0.000 C 
ATOM      5  C   UNL     1       1.475   8.894  21.811  0.00  0.00    +0.000 C 
ATOM      6  N   UNL     1       0.694  10.125  21.718  0.00  0.00    +0.000 N 
ATOM      7  C   UNL     1      -0.185  10.434  22.751  0.00  0.00    +0.000 C 
ATOM      8  O   UNL     1      -0.291   9.728  23.756  0.00  0.00    +0.000 OA
ATOM      9  C   UNL     1       0.975  10.877  20.485  0.00  0.00    +0.000 C 
ATOM     10  C   UNL     1       0.628  10.007  19.266  0.00  0.00    +0.000 C 
ENDROOT
BRANCH   2  11
ATOM     11  C   UNL     1       2.734   7.011  18.092  0.00  0.00    +0.000 A 
ATOM     12  C   UNL     1       4.116   6.996  17.851  0.00  0.00    +0.000 A 
ATOM     13  C   UNL     1       4.818   5.789  17.832  0.00  0.00    +0.000 A 
ATOM     14  C   UNL     1       4.146   4.592  18.075  0.00  0.00    +0.000 A 
ATOM     15  C   UNL     1       2.766   4.604  18.273  0.00  0.00    +0.000 A 
ATOM     16 BR   UNL     1       1.856   2.991  18.649  0.00  0.00    +0.000 Br
ATOM     17  C   UNL     1       2.051   5.800  18.231  0.00  0.00    +0.000 A 
ENDBRANCH   2  11
BRANCH   7  18
ATOM     18  C   UNL     1      -1.020  11.662  22.710  0.00  0.00    +0.000 A 
ATOM     19  C   UNL     1      -2.348  11.688  23.148  0.00  0.00    +0.000 A 
ATOM     20  C   UNL     1      -3.108  12.851  23.015  0.00  0.00    +0.000 A 
ATOM     21  C   UNL     1      -2.517  14.016  22.527  0.00  0.00    +0.000 A 
ATOM     22  C   UNL     1      -1.164  14.016  22.189  0.00  0.00    +0.000 A 
ATOM     23 BR   UNL     1      -0.343  15.623  21.625  0.00  0.00    +0.000 Br
ATOM     24  C   UNL     1      -0.414  12.847  22.272  0.00  0.00    +0.000 A 
ENDBRANCH   7  18
TORSDOF 2
ENDMDL
MODEL 4
REMARK VINA RESULT:      -7.5      1.364      1.456
REMARK  Name = 
REMARK  2 active torsions:
REMARK  status: ('A' for Active; 'I' for Inactive)
REMARK    1  A    between atoms: C_2  and  C_3
REMARK    2  A    between atoms: C_14  and  C_16
REMARK                            x       y       z     vdW  Elec       q    Type
REMARK                         _______ _______ _______ _____ _____    ______ ____
ROOT
ATOM      1  O   UNL     1       2.285   9.015  17.311  0.00  0.00    +0.000 OA
ATOM      2  C   UNL     1       2.084   8.405  18.363  0.00  0.00    +0.000 C 
ATOM      3  N   UNL     1       1.313   8.938  19.396  0.00  0.00    +0.000 N 
ATOM      4  C   UNL     1       1.086   8.353  20.734  0.00  0.00    +0.000 C 
ATOM      5  C   UNL     1       1.208   9.378  21.871  0.00  0.00    +0.000 C 
ATOM      6  N   UNL     1       0.463  10.599  21.575  0.00  0.00    +0.000 N 
ATOM      7  C   UNL     1      -0.496  11.030  22.486  0.00  0.00    +0.000 C 
ATOM      8  O   UNL     1      -0.702  10.441  23.549  0.00  0.00    +0.000 OA
ATOM      9  C   UNL     1       0.864  11.206  20.296  0.00  0.00    +0.000 C 
ATOM     10  C   UNL     1       0.607  10.209  19.154  0.00  0.00    +0.000 C 
ENDROOT
BRANCH   2  11
ATOM     11  C   UNL     1       2.747   7.080  18.507  0.00  0.00    +0.000 A 
ATOM     12  C   UNL     1       3.897   6.830  17.743  0.00  0.00    +0.000 A 
ATOM     13  C   UNL     1       4.586   5.623  17.876  0.00  0.00    +0.000 A 
ATOM     14  C   UNL     1       4.142   4.668  18.790  0.00  0.00    +0.000 A 
ATOM     15  C   UNL     1       2.977   4.900  19.519  0.00  0.00    +0.000 A 
ATOM     16 BR   UNL     1       2.396   3.631  20.792  0.00  0.00    +0.000 Br
ATOM     17  C   UNL     1       2.250   6.077  19.344  0.00  0.00    +0.000 A 
ENDBRANCH   2  11
BRANCH   7  18
ATOM     18  C   UNL     1      -1.299  12.254  22.237  0.00  0.00    +0.000 A 
ATOM     19  C   UNL     1      -2.248  12.340  21.213  0.00  0.00    +0.000 A 
ATOM     20  C   UNL     1      -2.918  13.541  20.977  0.00  0.00    +0.000 A 
ATOM     21  C   UNL     1      -2.708  14.632  21.819  0.00  0.00    +0.000 A 
ATOM     22  C   UNL     1      -1.840  14.512  22.904  0.00  0.00    +0.000 A 
ATOM     23 BR   UNL     1      -1.635  15.960  24.102  0.00  0.00    +0.000 Br
ATOM     24  C   UNL     1      -1.130  13.333  23.114  0.00  0.00    +0.000 A 
ENDBRANCH   7  18
TORSDOF 2
ENDMDL
MODEL 5
REMARK VINA RESULT:      -7.5      1.666      2.162
REMARK  Name = 
REMARK  2 active torsions:
REMARK  status: ('A' for Active; 'I' for Inactive)
REMARK    1  A    between atoms: C_2  and  C_3
REMARK    2  A    between atoms: C_14  and  C_16
REMARK                            x       y       z     vdW  Elec       q    Type
REMARK                         _______ _______ _______ _____ _____    ______ ____
ROOT
ATOM      1  O   UNL     1       2.158   9.107  17.136  0.00  0.00    +0.000 OA
ATOM      2  C   UNL     1       2.137   8.382  18.133  0.00  0.00    +0.000 C 
ATOM      3  N   UNL     1       1.459   8.741  19.298  0.00  0.00    +0.000 N 
ATOM      4  C   UNL     1       1.445   8.011  20.583  0.00  0.00    +0.000 C 
ATOM      5  C   UNL     1       1.624   8.928  21.802  0.00  0.00    +0.000 C 
ATOM      6  N   UNL     1       0.754  10.099  21.724  0.00  0.00    +0.000 N 
ATOM      7  C   UNL     1      -0.117  10.351  22.779  0.00  0.00    +0.000 C 
ATOM      8  O   UNL     1      -0.144   9.645  23.790  0.00  0.00    +0.000 OA
ATOM      9  C   UNL     1       0.946  10.860  20.480  0.00  0.00    +0.000 C 
ATOM     10  C   UNL     1       0.631   9.959  19.275  0.00  0.00    +0.000 C 
ENDROOT
BRANCH   2  11
ATOM     11  C   UNL     1       2.916   7.115  18.058  0.00  0.00    +0.000 A 
ATOM     12  C   UNL     1       2.243   5.910  18.306  0.00  0.00    +0.000 A 
ATOM     13  C   UNL     1       2.915   4.690  18.201  0.00  0.00    +0.000 A 
ATOM     14  C   UNL     1       4.258   4.668  17.826  0.00  0.00    +0.000 A 
ATOM     15  C   UNL     1       4.937   5.868  17.620  0.00  0.00    +0.000 A 
ATOM     16 BR   UNL     1       6.743   5.845  17.067  0.00  0.00    +0.000 Br
ATOM     17  C   UNL     1       4.287   7.091  17.785  0.00  0.00    +0.000 A 
ENDBRANCH   2  11
BRANCH   7  18
ATOM     18  C   UNL     1      -1.039  11.514  22.755  0.00  0.00    +0.000 A 
ATOM     19  C   UNL     1      -2.347  11.452  23.247  0.00  0.00    +0.000 A 
ATOM     20  C   UNL     1      -3.194  12.555  23.128  0.00  0.00    +0.000 A 
ATOM     21  C   UNL     1      -2.710  13.751  22.600  0.00  0.00    +0.000 A 
ATOM     22  C   UNL     1      -1.375  13.843  22.207  0.00  0.00    +0.000 A 
ATOM     23 BR   UNL     1      -0.695  15.494  21.586  0.00  0.00    +0.000 Br
ATOM     24  C   UNL     1      -0.539  12.732  22.275  0.00  0.00    +0.000 A 
ENDBRANCH   7  18
TORSDOF 2
ENDMDL
MODEL 6
REMARK VINA RESULT:      -7.4      1.364      1.406
REMARK  Name = 
REMARK  2 active torsions:
REMARK  status: ('A' for Active; 'I' for Inactive)
REMARK    1  A    between atoms: C_2  and  C_3
REMARK    2  A    between atoms: C_14  and  C_16
REMARK                            x       y       z     vdW  Elec       q    Type
REMARK                         _______ _______ _______ _____ _____    ______ ____
ROOT
ATOM      1  O   UNL     1       2.355   8.740  17.398  0.00  0.00    +0.000 OA
ATOM      2  C   UNL     1       2.122   8.190  18.476  0.00  0.00    +0.000 C 
ATOM      3  N   UNL     1       1.357   8.798  19.472  0.00  0.00    +0.000 N 
ATOM      4  C   UNL     1       1.097   8.288  20.834  0.00  0.00    +0.000 C 
ATOM      5  C   UNL     1       1.240   9.363  21.920  0.00  0.00    +0.000 C 
ATOM      6  N   UNL     1       0.537  10.591  21.555  0.00  0.00    +0.000 N 
ATOM      7  C   UNL     1      -0.417  11.097  22.431  0.00  0.00    +0.000 C 
ATOM      8  O   UNL     1      -0.654  10.568  23.519  0.00  0.00    +0.000 OA
ATOM      9  C   UNL     1       0.972  11.120  20.252  0.00  0.00    +0.000 C 
ATOM     10  C   UNL     1       0.696  10.076  19.158  0.00  0.00    +0.000 C 
ENDROOT
BRANCH   2  11
ATOM     11  C   UNL     1       2.742   6.853  18.694  0.00  0.00    +0.000 A 
ATOM     12  C   UNL     1       3.897   6.534  17.966  0.00  0.00    +0.000 A 
ATOM     13  C   UNL     1       4.546   5.314  18.168  0.00  0.00    +0.000 A 
ATOM     14  C   UNL     1       4.055   4.416  19.115  0.00  0.00    +0.000 A 
ATOM     15  C   UNL     1       2.884   4.716  19.809  0.00  0.00    +0.000 A 
ATOM     16 BR   UNL     1       2.239   3.525  21.126  0.00  0.00    +0.000 Br
ATOM     17  C   UNL     1       2.197   5.905  19.565  0.00  0.00    +0.000 A 
ENDBRANCH   2  11
BRANCH   7  18
ATOM     18  C   UNL     1      -1.178  12.331  22.111  0.00  0.00    +0.000 A 
ATOM     19  C   UNL     1      -0.681  13.613  22.368  0.00  0.00    +0.000 A 
ATOM     20  C   UNL     1      -1.472  14.735  22.118  0.00  0.00    +0.000 A 
ATOM     21  C   UNL     1      -2.726  14.585  21.528  0.00  0.00    +0.000 A 
ATOM     22  C   UNL     1      -3.177  13.314  21.176  0.00  0.00    +0.000 A 
ATOM     23 BR   UNL     1      -4.833  13.123  20.285  0.00  0.00    +0.000 Br
ATOM     24  C   UNL     1      -2.415  12.187  21.469  0.00  0.00    +0.000 A 
ENDBRANCH   7  18
TORSDOF 2
ENDMDL
MODEL 7
REMARK VINA RESULT:      -7.4      1.574      1.870
REMARK  Name = 
REMARK  2 active torsions:
REMARK  status: ('A' for Active; 'I' for Inactive)
REMARK    1  A    between atoms: C_2  and  C_3
REMARK    2  A    between atoms: C_14  and  C_16
REMARK                            x       y       z     vdW  Elec       q    Type
REMARK                         _______ _______ _______ _____ _____    ______ ____
ROOT
ATOM      1  O   UNL     1       2.194   9.521  17.158  0.00  0.00    +0.000 OA
ATOM      2  C   UNL     1       2.042   8.786  18.135  0.00  0.00    +0.000 C 
ATOM      3  N   UNL     1       1.297   9.173  19.249  0.00  0.00    +0.000 N 
ATOM      4  C   UNL     1       1.129   8.427  20.514  0.00  0.00    +0.000 C 
ATOM      5  C   UNL     1       1.271   9.311  21.761  0.00  0.00    +0.000 C 
ATOM      6  N   UNL     1       0.492  10.540  21.638  0.00  0.00    +0.000 N 
ATOM      7  C   UNL     1      -0.443  10.837  22.625  0.00  0.00    +0.000 C 
ATOM      8  O   UNL     1      -0.601  10.120  23.616  0.00  0.00    +0.000 OA
ATOM      9  C   UNL     1       0.836  11.305  20.429  0.00  0.00    +0.000 C 
ATOM     10  C   UNL     1       0.559  10.446  19.184  0.00  0.00    +0.000 C 
ENDROOT
BRANCH   2  11
ATOM     11  C   UNL     1       2.737   7.469  18.097  0.00  0.00    +0.000 A 
ATOM     12  C   UNL     1       1.974   6.313  18.320  0.00  0.00    +0.000 A 
ATOM     13  C   UNL     1       2.566   5.050  18.246  0.00  0.00    +0.000 A 
ATOM     14  C   UNL     1       3.919   4.935  17.930  0.00  0.00    +0.000 A 
ATOM     15  C   UNL     1       4.685   6.086  17.749  0.00  0.00    +0.000 A 
ATOM     16 BR   UNL     1       6.508   5.938  17.274  0.00  0.00    +0.000 Br
ATOM     17  C   UNL     1       4.113   7.351  17.883  0.00  0.00    +0.000 A 
ENDBRANCH   2  11
BRANCH   7  18
ATOM     18  C   UNL     1      -1.279  12.062  22.551  0.00  0.00    +0.000 A 
ATOM     19  C   UNL     1      -0.877  13.285  23.099  0.00  0.00    +0.000 A 
ATOM     20  C   UNL     1      -1.737  14.384  23.067  0.00  0.00    +0.000 A 
ATOM     21  C   UNL     1      -2.963  14.289  22.410  0.00  0.00    +0.000 A 
ATOM     22  C   UNL     1      -3.316  13.100  21.772  0.00  0.00    +0.000 A 
ATOM     23 BR   UNL     1      -4.932  13.009  20.796  0.00  0.00    +0.000 Br
ATOM     24  C   UNL     1      -2.486  11.986  21.844  0.00  0.00    +0.000 A 
ENDBRANCH   7  18
TORSDOF 2
ENDMDL
MODEL 8
REMARK VINA RESULT:      -7.4      0.761      8.554
REMARK  Name = 
REMARK  2 active torsions:
REMARK  status: ('A' for Active; 'I' for Inactive)
REMARK    1  A    between atoms: C_2  and  C_3
REMARK    2  A    between atoms: C_14  and  C_16
REMARK                            x       y       z     vdW  Elec       q    Type
REMARK                         _______ _______ _______ _____ _____    ______ ____
ROOT
ATOM      1  O   UNL     1      -0.381   9.882  23.834  0.00  0.00    +0.000 OA
ATOM      2  C   UNL     1      -0.586  10.452  22.760  0.00  0.00    +0.000 C 
ATOM      3  N   UNL     1      -0.111   9.949  21.549  0.00  0.00    +0.000 N 
ATOM      4  C   UNL     1      -0.202  10.589  20.219  0.00  0.00    +0.000 C 
ATOM      5  C   UNL     1       1.107  10.516  19.421  0.00  0.00    +0.000 C 
ATOM      6  N   UNL     1       1.673   9.169  19.443  0.00  0.00    +0.000 N 
ATOM      7  C   UNL     1       1.938   8.539  18.231  0.00  0.00    +0.000 C 
ATOM      8  O   UNL     1       1.751   9.098  17.147  0.00  0.00    +0.000 OA
ATOM      9  C   UNL     1       1.881   8.669  20.811  0.00  0.00    +0.000 C 
ATOM     10  C   UNL     1       0.533   8.625  21.550  0.00  0.00    +0.000 C 
ENDROOT
BRANCH   2  11
ATOM     11  C   UNL     1      -1.330  11.741  22.817  0.00  0.00    +0.000 A 
ATOM     12  C   UNL     1      -0.652  12.911  22.443  0.00  0.00    +0.000 A 
ATOM     13  C   UNL     1      -1.316  14.139  22.431  0.00  0.00    +0.000 A 
ATOM     14  C   UNL     1      -2.667  14.201  22.771  0.00  0.00    +0.000 A 
ATOM     15  C   UNL     1      -3.329  13.045  23.181  0.00  0.00    +0.000 A 
ATOM     16 BR   UNL     1      -5.170  13.112  23.599  0.00  0.00    +0.000 Br
ATOM     17  C   UNL     1      -2.654  11.826  23.256  0.00  0.00    +0.000 A 
ENDBRANCH   2  11
BRANCH   7  18
ATOM     18  C   UNL     1       2.498   7.165  18.183  0.00  0.00    +0.000 A 
ATOM     19  C   UNL     1       3.764   6.883  17.658  0.00  0.00    +0.000 A 
ATOM     20  C   UNL     1       4.208   5.563  17.569  0.00  0.00    +0.000 A 
ATOM     21  C   UNL     1       3.427   4.530  18.085  0.00  0.00    +0.000 A 
ATOM     22  C   UNL     1       2.212   4.824  18.703  0.00  0.00    +0.000 A 
ATOM     23 BR   UNL     1       1.204   3.432  19.492  0.00  0.00    +0.000 Br
ATOM     24  C   UNL     1       1.740   6.133  18.750  0.00  0.00    +0.000 A 
ENDBRANCH   7  18
TORSDOF 2
ENDMDL
MODEL 9
REMARK VINA RESULT:      -7.4      2.292      2.971
REMARK  Name = 
REMARK  2 active torsions:
REMARK  status: ('A' for Active; 'I' for Inactive)
REMARK    1  A    between atoms: C_2  and  C_3
REMARK    2  A    between atoms: C_14  and  C_16
REMARK                            x       y       z     vdW  Elec       q    Type
REMARK                         _______ _______ _______ _____ _____    ______ ____
ROOT
ATOM      1  O   UNL     1       1.794   5.517  20.997  0.00  0.00    +0.000 OA
ATOM      2  C   UNL     1       2.243   6.235  20.101  0.00  0.00    +0.000 C 
ATOM      3  N   UNL     1       1.867   7.571  19.961  0.00  0.00    +0.000 N 
ATOM      4  C   UNL     1       2.252   8.498  18.876  0.00  0.00    +0.000 C 
ATOM      5  C   UNL     1       1.076   9.328  18.343  0.00  0.00    +0.000 C 
ATOM      6  N   UNL     1       0.294   9.910  19.431  0.00  0.00    +0.000 N 
ATOM      7  C   UNL     1       0.103  11.288  19.448  0.00  0.00    +0.000 C 
ATOM      8  O   UNL     1       0.532  12.021  18.555  0.00  0.00    +0.000 OA
ATOM      9  C   UNL     1      -0.187   8.896  20.382  0.00  0.00    +0.000 C 
ATOM     10  C   UNL     1       1.016   8.168  21.004  0.00  0.00    +0.000 C 
ENDROOT
BRANCH   2  11
ATOM     11  C   UNL     1       3.176   5.595  19.133  0.00  0.00    +0.000 A 
ATOM     12  C   UNL     1       2.627   4.860  18.072  0.00  0.00    +0.000 A 
ATOM     13  C   UNL     1       3.455   4.282  17.108  0.00  0.00    +0.000 A 
ATOM     14  C   UNL     1       4.837   4.453  17.188  0.00  0.00    +0.000 A 
ATOM     15  C   UNL     1       5.385   5.149  18.265  0.00  0.00    +0.000 A 
ATOM     16 BR   UNL     1       7.252   5.425  18.355  0.00  0.00    +0.000 Br
ATOM     17  C   UNL     1       4.566   5.675  19.264  0.00  0.00    +0.000 A 
ENDBRANCH   2  11
BRANCH   7  18
ATOM     18  C   UNL     1      -0.668  11.945  20.534  0.00  0.00    +0.000 A 
ATOM     19  C   UNL     1      -0.084  12.344  21.741  0.00  0.00    +0.000 A 
ATOM     20  C   UNL     1      -0.873  12.887  22.756  0.00  0.00    +0.000 A 
ATOM     21  C   UNL     1      -2.231  13.113  22.536  0.00  0.00    +0.000 A 
ATOM     22  C   UNL     1      -2.790  12.811  21.296  0.00  0.00    +0.000 A 
ATOM     23 BR   UNL     1      -4.608  13.215  20.968  0.00  0.00    +0.000 Br
ATOM     24  C   UNL     1      -2.020  12.223  20.297  0.00  0.00    +0.000 A 
ENDBRANCH   7  18
TORSDOF 2
ENDMDL
