MODEL 1
REMARK VINA RESULT:      -7.9      0.000      0.000
REMARK  Name = 
REMARK  12 active torsions:
REMARK  status: ('A' for Active; 'I' for Inactive)
REMARK    1  A    between atoms: C_1  and  C_2
REMARK    2  A    between atoms: C_2  and  C_3
REMARK    3  A    between atoms: C_2  and  C_4
REMARK    4  A    between atoms: C_2  and  O_5
REMARK    5  A    between atoms: O_5  and  C_6
REMARK    6  A    between atoms: N_8  and  C_9
REMARK    7  A    between atoms: C_12  and  N_13
REMARK    8  A    between atoms: N_15  and  C_16
REMARK    9  A    between atoms: N_18  and  C_19
REMARK   10  A    between atoms: C_19  and  C_20
REMARK   11  A    between atoms: C_22  and  C_23
REMARK   12  A    between atoms: C_28  and  N_29
REMARK                            x       y       z     vdW  Elec       q    Type
REMARK                         _______ _______ _______ _____ _____    ______ ____
ROOT
ATOM      1  N   UNL     1       3.244   6.458  19.693  0.00  0.00    +0.000 N 
ATOM      2  C   UNL     1       3.012   5.202  19.157  0.00  0.00    +0.000 C 
ATOM      3  N   UNL     1       1.799   4.810  18.921  0.00  0.00    +0.000 NA
ATOM      4  N   UNL     1       4.214   4.547  18.965  0.00  0.00    +0.000 N 
ATOM      5  H   UNL     1       3.765   6.449  20.562  0.00  0.00    +0.000 HD
ATOM      6  H   UNL     1       5.050   5.119  19.075  0.00  0.00    +0.000 HD
ENDROOT
BRANCH   1  10
ATOM      7  C   UNL     1       0.530   9.729  19.317  0.00  0.00    +0.000 A 
ATOM      8  C   UNL     1       1.323   9.309  18.240  0.00  0.00    +0.000 A 
ATOM      9  C   UNL     1       2.216   8.229  18.354  0.00  0.00    +0.000 A 
ATOM     10  C   UNL     1       2.350   7.546  19.563  0.00  0.00    +0.000 A 
ATOM     11  C   UNL     1       1.544   7.966  20.634  0.00  0.00    +0.000 A 
ATOM     12  C   UNL     1       0.656   9.048  20.522  0.00  0.00    +0.000 A 
BRANCH   7  15
ATOM     13  C   UNL     1      -0.055  12.126  19.417  0.00  0.00    +0.000 C 
ATOM     14  O   UNL     1       1.077  12.526  19.622  0.00  0.00    +0.000 OA
ATOM     15  N   UNL     1      -0.393  10.805  19.235  0.00  0.00    +0.000 N 
ATOM     16  H   UNL     1      -1.335  10.626  18.913  0.00  0.00    +0.000 HD
BRANCH  13  17
ATOM     17  O   UNL     1      -1.135  12.960  19.278  0.00  0.00    +0.000 OA
BRANCH  17  19
ATOM     18  C   UNL     1      -1.871  14.812  20.723  0.00  0.00    +0.000 C 
ATOM     19  C   UNL     1      -1.852  13.288  20.510  0.00  0.00    +0.000 C 
ATOM     20  C   UNL     1      -1.268  12.536  21.722  0.00  0.00    +0.000 C 
ATOM     21  C   UNL     1      -3.318  12.841  20.355  0.00  0.00    +0.000 C 
ENDBRANCH  17  19
ENDBRANCH  13  17
ENDBRANCH   7  15
ENDBRANCH   1  10
BRANCH   3  22
ATOM     22  C   UNL     1       1.529   3.594  18.451  0.00  0.00    +0.000 C 
ATOM     23  N   UNL     1       1.269   2.554  18.010  0.00  0.00    +0.000 NA
ENDBRANCH   3  22
BRANCH   4  24
ATOM     24  C   UNL     1       4.415   3.569  17.887  0.00  0.00    +0.000 C 
BRANCH  24  25
ATOM     25  C   UNL     1       5.444   3.974  16.847  0.00  0.00    +0.000 A 
ATOM     26  N   UNL     1       5.100   3.942  15.522  0.00  0.00    +0.000 NA
ATOM     27  C   UNL     1       6.059   4.320  14.631  0.00  0.00    +0.000 A 
ATOM     28  C   UNL     1       7.319   4.703  15.095  0.00  0.00    +0.000 A 
ATOM     29  N   UNL     1       7.677   4.728  16.400  0.00  0.00    +0.000 NA
ATOM     30  C   UNL     1       6.728   4.357  17.275  0.00  0.00    +0.000 A 
BRANCH  27  31
ATOM     31  C   UNL     1       5.731   4.370  13.159  0.00  0.00    +0.000 C 
ATOM     32  C   UNL     1       6.454   3.490  12.162  0.00  0.00    +0.000 C 
ATOM     33  C   UNL     1       5.025   3.202  12.512  0.00  0.00    +0.000 C 
ENDBRANCH  27  31
BRANCH  30  34
ATOM     34  N   UNL     1       7.109   4.432  18.612  0.00  0.00    +0.000 N 
ATOM     35  H   UNL     1       7.536   5.348  18.747  0.00  0.00    +0.000 HD
ATOM     36  H   UNL     1       7.735   3.693  18.905  0.00  0.00    +0.000 HD
ENDBRANCH  30  34
ENDBRANCH  24  25
ENDBRANCH   4  24
TORSDOF 9
ENDMDL
MODEL 2
REMARK VINA RESULT:      -7.9      0.798      1.187
REMARK  Name = 
REMARK  12 active torsions:
REMARK  status: ('A' for Active; 'I' for Inactive)
REMARK    1  A    between atoms: C_1  and  C_2
REMARK    2  A    between atoms: C_2  and  C_3
REMARK    3  A    between atoms: C_2  and  C_4
REMARK    4  A    between atoms: C_2  and  O_5
REMARK    5  A    between atoms: O_5  and  C_6
REMARK    6  A    between atoms: N_8  and  C_9
REMARK    7  A    between atoms: C_12  and  N_13
REMARK    8  A    between atoms: N_15  and  C_16
REMARK    9  A    between atoms: N_18  and  C_19
REMARK   10  A    between atoms: C_19  and  C_20
REMARK   11  A    between atoms: C_22  and  C_23
REMARK   12  A    between atoms: C_28  and  N_29
REMARK                            x       y       z     vdW  Elec       q    Type
REMARK                         _______ _______ _______ _____ _____    ______ ____
ROOT
ATOM      1  N   UNL     1       3.213   6.319  19.800  0.00  0.00    +0.000 N 
ATOM      2  C   UNL     1       2.948   5.105  19.190  0.00  0.00    +0.000 C 
ATOM      3  N   UNL     1       1.726   4.680  19.093  0.00  0.00    +0.000 NA
ATOM      4  N   UNL     1       4.130   4.526  18.768  0.00  0.00    +0.000 N 
ATOM      5  H   UNL     1       3.854   6.260  20.582  0.00  0.00    +0.000 HD
ATOM      6  H   UNL     1       4.953   5.125  18.812  0.00  0.00    +0.000 HD
ENDROOT
BRANCH   1  10
ATOM      7  C   UNL     1       0.394   9.510  20.089  0.00  0.00    +0.000 A 
ATOM      8  C   UNL     1       0.583   8.603  21.142  0.00  0.00    +0.000 A 
ATOM      9  C   UNL     1       1.513   7.552  21.056  0.00  0.00    +0.000 A 
ATOM     10  C   UNL     1       2.273   7.372  19.900  0.00  0.00    +0.000 A 
ATOM     11  C   UNL     1       2.086   8.291  18.855  0.00  0.00    +0.000 A 
ATOM     12  C   UNL     1       1.153   9.337  18.938  0.00  0.00    +0.000 A 
BRANCH   7  15
ATOM     13  C   UNL     1      -0.270  11.787  20.777  0.00  0.00    +0.000 C 
ATOM     14  O   UNL     1       0.784  12.070  21.317  0.00  0.00    +0.000 OA
ATOM     15  N   UNL     1      -0.525  10.591  20.145  0.00  0.00    +0.000 N 
ATOM     16  H   UNL     1      -1.375  10.548  19.599  0.00  0.00    +0.000 HD
BRANCH  13  17
ATOM     17  O   UNL     1      -1.324  12.659  20.676  0.00  0.00    +0.000 OA
BRANCH  17  19
ATOM     18  C   UNL     1      -1.794  14.269  22.478  0.00  0.00    +0.000 C 
ATOM     19  C   UNL     1      -2.095  12.875  21.900  0.00  0.00    +0.000 C 
ATOM     20  C   UNL     1      -1.852  11.752  22.926  0.00  0.00    +0.000 C 
ATOM     21  C   UNL     1      -3.593  12.855  21.541  0.00  0.00    +0.000 C 
ENDBRANCH  17  19
ENDBRANCH  13  17
ENDBRANCH   7  15
ENDBRANCH   1  10
BRANCH   3  22
ATOM     22  C   UNL     1       1.431   3.497  18.556  0.00  0.00    +0.000 C 
ATOM     23  N   UNL     1       1.218   2.460  18.086  0.00  0.00    +0.000 NA
ENDBRANCH   3  22
BRANCH   4  24
ATOM     24  C   UNL     1       4.204   3.655  17.588  0.00  0.00    +0.000 C 
BRANCH  24  25
ATOM     25  C   UNL     1       5.314   4.003  16.613  0.00  0.00    +0.000 A 
ATOM     26  N   UNL     1       5.062   3.945  15.268  0.00  0.00    +0.000 NA
ATOM     27  C   UNL     1       6.092   4.272  14.437  0.00  0.00    +0.000 A 
ATOM     28  C   UNL     1       7.328   4.631  14.979  0.00  0.00    +0.000 A 
ATOM     29  N   UNL     1       7.594   4.681  16.305  0.00  0.00    +0.000 NA
ATOM     30  C   UNL     1       6.577   4.361  17.120  0.00  0.00    +0.000 A 
BRANCH  27  31
ATOM     31  C   UNL     1       5.868   4.291  12.946  0.00  0.00    +0.000 C 
ATOM     32  C   UNL     1       6.173   3.081  12.089  0.00  0.00    +0.000 C 
ATOM     33  C   UNL     1       4.749   3.472  12.348  0.00  0.00    +0.000 C 
ENDBRANCH  27  31
BRANCH  30  34
ATOM     34  N   UNL     1       6.866   4.461  18.478  0.00  0.00    +0.000 N 
ATOM     35  H   UNL     1       7.806   4.847  18.552  0.00  0.00    +0.000 HD
ATOM     36  H   UNL     1       6.792   3.586  18.981  0.00  0.00    +0.000 HD
ENDBRANCH  30  34
ENDBRANCH  24  25
ENDBRANCH   4  24
TORSDOF 9
ENDMDL
MODEL 3
REMARK VINA RESULT:      -7.7      0.774      1.183
REMARK  Name = 
REMARK  12 active torsions:
REMARK  status: ('A' for Active; 'I' for Inactive)
REMARK    1  A    between atoms: C_1  and  C_2
REMARK    2  A    between atoms: C_2  and  C_3
REMARK    3  A    between atoms: C_2  and  C_4
REMARK    4  A    between atoms: C_2  and  O_5
REMARK    5  A    between atoms: O_5  and  C_6
REMARK    6  A    between atoms: N_8  and  C_9
REMARK    7  A    between atoms: C_12  and  N_13
REMARK    8  A    between atoms: N_15  and  C_16
REMARK    9  A    between atoms: N_18  and  C_19
REMARK   10  A    between atoms: C_19  and  C_20
REMARK   11  A    between atoms: C_22  and  C_23
REMARK   12  A    between atoms: C_28  and  N_29
REMARK                            x       y       z     vdW  Elec       q    Type
REMARK                         _______ _______ _______ _____ _____    ______ ____
ROOT
ATOM      1  N   UNL     1       3.648   6.406  19.010  0.00  0.00    +0.000 N 
ATOM      2  C   UNL     1       3.427   5.141  18.495  0.00  0.00    +0.000 C 
ATOM      3  N   UNL     1       2.220   4.671  18.419  0.00  0.00    +0.000 NA
ATOM      4  N   UNL     1       4.631   4.566  18.133  0.00  0.00    +0.000 N 
ATOM      5  H   UNL     1       4.281   6.428  19.801  0.00  0.00    +0.000 HD
ATOM      6  H   UNL     1       5.436   5.192  18.137  0.00  0.00    +0.000 HD
ENDROOT
BRANCH   1  10
ATOM      7  C   UNL     1       0.730   9.521  19.015  0.00  0.00    +0.000 A 
ATOM      8  C   UNL     1       1.006   8.774  20.170  0.00  0.00    +0.000 A 
ATOM      9  C   UNL     1       1.969   7.750  20.177  0.00  0.00    +0.000 A 
ATOM     10  C   UNL     1       2.676   7.434  19.017  0.00  0.00    +0.000 A 
ATOM     11  C   UNL     1       2.403   8.195  17.868  0.00  0.00    +0.000 A 
ATOM     12  C   UNL     1       1.437   9.214  17.859  0.00  0.00    +0.000 A 
BRANCH   7  15
ATOM     13  C   UNL     1       0.089  11.903  19.133  0.00  0.00    +0.000 C 
ATOM     14  O   UNL     1       1.218  12.333  19.281  0.00  0.00    +0.000 OA
ATOM     15  N   UNL     1      -0.223  10.572  18.974  0.00  0.00    +0.000 N 
ATOM     16  H   UNL     1      -1.175  10.367  18.699  0.00  0.00    +0.000 HD
BRANCH  13  17
ATOM     17  O   UNL     1      -1.019  12.707  19.044  0.00  0.00    +0.000 OA
BRANCH  17  19
ATOM     18  C   UNL     1      -1.585  14.551  20.573  0.00  0.00    +0.000 C 
ATOM     19  C   UNL     1      -1.672  13.038  20.309  0.00  0.00    +0.000 C 
ATOM     20  C   UNL     1      -1.101  12.208  21.475  0.00  0.00    +0.000 C 
ATOM     21  C   UNL     1      -3.169  12.692  20.189  0.00  0.00    +0.000 C 
ENDBRANCH  17  19
ENDBRANCH  13  17
ENDBRANCH   7  15
ENDBRANCH   1  10
BRANCH   3  22
ATOM     22  C   UNL     1       1.967   3.442  17.974  0.00  0.00    +0.000 C 
ATOM     23  N   UNL     1       1.708   2.386  17.573  0.00  0.00    +0.000 NA
ENDBRANCH   3  22
BRANCH   4  24
ATOM     24  C   UNL     1       4.746   3.608  17.025  0.00  0.00    +0.000 C 
BRANCH  24  25
ATOM     25  C   UNL     1       5.660   4.051  15.896  0.00  0.00    +0.000 A 
ATOM     26  N   UNL     1       5.374   3.659  14.616  0.00  0.00    +0.000 NA
ATOM     27  C   UNL     1       6.224   4.088  13.640  0.00  0.00    +0.000 A 
ATOM     28  C   UNL     1       7.323   4.878  13.982  0.00  0.00    +0.000 A 
ATOM     29  N   UNL     1       7.623   5.264  15.244  0.00  0.00    +0.000 NA
ATOM     30  C   UNL     1       6.782   4.841  16.202  0.00  0.00    +0.000 A 
BRANCH  27  31
ATOM     31  C   UNL     1       5.936   3.746  12.199  0.00  0.00    +0.000 C 
ATOM     32  C   UNL     1       5.730   2.313  11.757  0.00  0.00    +0.000 C 
ATOM     33  C   UNL     1       4.564   3.253  11.809  0.00  0.00    +0.000 C 
ENDBRANCH  27  31
BRANCH  30  34
ATOM     34  N   UNL     1       7.091   5.287  17.484  0.00  0.00    +0.000 N 
ATOM     35  H   UNL     1       7.897   5.904  17.396  0.00  0.00    +0.000 HD
ATOM     36  H   UNL     1       7.273   4.543  18.146  0.00  0.00    +0.000 HD
ENDBRANCH  30  34
ENDBRANCH  24  25
ENDBRANCH   4  24
TORSDOF 9
ENDMDL
MODEL 4
REMARK VINA RESULT:      -7.7      0.969      1.036
REMARK  Name = 
REMARK  12 active torsions:
REMARK  status: ('A' for Active; 'I' for Inactive)
REMARK    1  A    between atoms: C_1  and  C_2
REMARK    2  A    between atoms: C_2  and  C_3
REMARK    3  A    between atoms: C_2  and  C_4
REMARK    4  A    between atoms: C_2  and  O_5
REMARK    5  A    between atoms: O_5  and  C_6
REMARK    6  A    between atoms: N_8  and  C_9
REMARK    7  A    between atoms: C_12  and  N_13
REMARK    8  A    between atoms: N_15  and  C_16
REMARK    9  A    between atoms: N_18  and  C_19
REMARK   10  A    between atoms: C_19  and  C_20
REMARK   11  A    between atoms: C_22  and  C_23
REMARK   12  A    between atoms: C_28  and  N_29
REMARK                            x       y       z     vdW  Elec       q    Type
REMARK                         _______ _______ _______ _____ _____    ______ ____
ROOT
ATOM      1  N   UNL     1       3.454   6.727  18.976  0.00  0.00    +0.000 N 
ATOM      2  C   UNL     1       3.237   5.451  18.484  0.00  0.00    +0.000 C 
ATOM      3  N   UNL     1       2.069   4.900  18.601  0.00  0.00    +0.000 NA
ATOM      4  N   UNL     1       4.401   4.964  17.919  0.00  0.00    +0.000 N 
ATOM      5  H   UNL     1       4.206   6.789  19.652  0.00  0.00    +0.000 HD
ATOM      6  H   UNL     1       5.151   5.644  17.801  0.00  0.00    +0.000 HD
ENDROOT
BRANCH   1  10
ATOM      7  C   UNL     1       0.351   9.602  19.544  0.00  0.00    +0.000 A 
ATOM      8  C   UNL     1       0.996   9.454  18.307  0.00  0.00    +0.000 A 
ATOM      9  C   UNL     1       2.015   8.507  18.111  0.00  0.00    +0.000 A 
ATOM     10  C   UNL     1       2.430   7.685  19.159  0.00  0.00    +0.000 A 
ATOM     11  C   UNL     1       1.772   7.831  20.391  0.00  0.00    +0.000 A 
ATOM     12  C   UNL     1       0.757   8.781  20.589  0.00  0.00    +0.000 A 
BRANCH   7  15
ATOM     13  C   UNL     1      -0.490  11.820  20.228  0.00  0.00    +0.000 C 
ATOM     14  O   UNL     1       0.604  12.313  20.436  0.00  0.00    +0.000 OA
ATOM     15  N   UNL     1      -0.692  10.536  19.775  0.00  0.00    +0.000 N 
ATOM     16  H   UNL     1      -1.635  10.308  19.489  0.00  0.00    +0.000 HD
BRANCH  13  17
ATOM     17  O   UNL     1      -1.667  12.512  20.361  0.00  0.00    +0.000 OA
BRANCH  17  19
ATOM     18  C   UNL     1      -1.636  14.188  22.164  0.00  0.00    +0.000 C 
ATOM     19  C   UNL     1      -2.097  12.785  21.732  0.00  0.00    +0.000 C 
ATOM     20  C   UNL     1      -1.619  11.689  22.703  0.00  0.00    +0.000 C 
ATOM     21  C   UNL     1      -3.637  12.791  21.766  0.00  0.00    +0.000 C 
ENDBRANCH  17  19
ENDBRANCH  13  17
ENDBRANCH   7  15
ENDBRANCH   1  10
BRANCH   3  22
ATOM     22  C   UNL     1       1.830   3.658  18.184  0.00  0.00    +0.000 C 
ATOM     23  N   UNL     1       1.660   2.578  17.798  0.00  0.00    +0.000 NA
ENDBRANCH   3  22
BRANCH   4  24
ATOM     24  C   UNL     1       4.396   4.021  16.793  0.00  0.00    +0.000 C 
BRANCH  24  25
ATOM     25  C   UNL     1       5.453   4.290  15.737  0.00  0.00    +0.000 A 
ATOM     26  N   UNL     1       5.247   3.843  14.459  0.00  0.00    +0.000 NA
ATOM     27  C   UNL     1       6.225   4.116  13.550  0.00  0.00    +0.000 A 
ATOM     28  C   UNL     1       7.367   4.811  13.952  0.00  0.00    +0.000 A 
ATOM     29  N   UNL     1       7.588   5.249  15.214  0.00  0.00    +0.000 NA
ATOM     30  C   UNL     1       6.622   4.981  16.106  0.00  0.00    +0.000 A 
BRANCH  27  31
ATOM     31  C   UNL     1       6.037   3.708  12.110  0.00  0.00    +0.000 C 
ATOM     32  C   UNL     1       5.815   2.261  11.724  0.00  0.00    +0.000 C 
ATOM     33  C   UNL     1       4.682   3.238  11.638  0.00  0.00    +0.000 C 
ENDBRANCH  27  31
BRANCH  30  34
ATOM     34  N   UNL     1       6.856   5.478  17.385  0.00  0.00    +0.000 N 
ATOM     35  H   UNL     1       6.283   4.931  18.025  0.00  0.00    +0.000 HD
ATOM     36  H   UNL     1       6.666   6.468  17.483  0.00  0.00    +0.000 HD
ENDBRANCH  30  34
ENDBRANCH  24  25
ENDBRANCH   4  24
TORSDOF 9
ENDMDL
MODEL 5
REMARK VINA RESULT:      -7.6      0.773      1.249
REMARK  Name = 
REMARK  12 active torsions:
REMARK  status: ('A' for Active; 'I' for Inactive)
REMARK    1  A    between atoms: C_1  and  C_2
REMARK    2  A    between atoms: C_2  and  C_3
REMARK    3  A    between atoms: C_2  and  C_4
REMARK    4  A    between atoms: C_2  and  O_5
REMARK    5  A    between atoms: O_5  and  C_6
REMARK    6  A    between atoms: N_8  and  C_9
REMARK    7  A    between atoms: C_12  and  N_13
REMARK    8  A    between atoms: N_15  and  C_16
REMARK    9  A    between atoms: N_18  and  C_19
REMARK   10  A    between atoms: C_19  and  C_20
REMARK   11  A    between atoms: C_22  and  C_23
REMARK   12  A    between atoms: C_28  and  N_29
REMARK                            x       y       z     vdW  Elec       q    Type
REMARK                         _______ _______ _______ _____ _____    ______ ____
ROOT
ATOM      1  N   UNL     1       3.207   6.368  19.773  0.00  0.00    +0.000 N 
ATOM      2  C   UNL     1       2.928   5.156  19.164  0.00  0.00    +0.000 C 
ATOM      3  N   UNL     1       1.704   4.842  18.872  0.00  0.00    +0.000 NA
ATOM      4  N   UNL     1       4.100   4.450  18.970  0.00  0.00    +0.000 N 
ATOM      5  H   UNL     1       3.699   6.286  20.655  0.00  0.00    +0.000 HD
ATOM      6  H   UNL     1       4.961   4.970  19.135  0.00  0.00    +0.000 HD
ENDROOT
BRANCH   1  10
ATOM      7  C   UNL     1       0.711   9.816  19.471  0.00  0.00    +0.000 A 
ATOM      8  C   UNL     1       0.795   9.074  20.659  0.00  0.00    +0.000 A 
ATOM      9  C   UNL     1       1.619   7.941  20.768  0.00  0.00    +0.000 A 
ATOM     10  C   UNL     1       2.374   7.507  19.678  0.00  0.00    +0.000 A 
ATOM     11  C   UNL     1       2.293   8.261  18.496  0.00  0.00    +0.000 A 
ATOM     12  C   UNL     1       1.466   9.390  18.385  0.00  0.00    +0.000 A 
BRANCH   7  15
ATOM     13  C   UNL     1      -1.399  10.955  18.882  0.00  0.00    +0.000 C 
ATOM     14  O   UNL     1      -2.017   9.944  18.603  0.00  0.00    +0.000 OA
ATOM     15  N   UNL     1      -0.098  10.974  19.329  0.00  0.00    +0.000 N 
ATOM     16  H   UNL     1       0.241  11.861  19.678  0.00  0.00    +0.000 HD
BRANCH  13  17
ATOM     17  O   UNL     1      -1.950  12.211  18.843  0.00  0.00    +0.000 OA
BRANCH  17  19
ATOM     18  C   UNL     1      -1.918  14.227  20.256  0.00  0.00    +0.000 C 
ATOM     19  C   UNL     1      -2.374  12.762  20.130  0.00  0.00    +0.000 C 
ATOM     20  C   UNL     1      -1.885  11.895  21.306  0.00  0.00    +0.000 C 
ATOM     21  C   UNL     1      -3.914  12.769  20.172  0.00  0.00    +0.000 C 
ENDBRANCH  17  19
ENDBRANCH  13  17
ENDBRANCH   7  15
ENDBRANCH   1  10
BRANCH   3  22
ATOM     22  C   UNL     1       1.387   3.668  18.329  0.00  0.00    +0.000 C 
ATOM     23  N   UNL     1       1.118   2.664  17.817  0.00  0.00    +0.000 NA
ENDBRANCH   3  22
BRANCH   4  24
ATOM     24  C   UNL     1       4.284   3.521  17.847  0.00  0.00    +0.000 C 
BRANCH  24  25
ATOM     25  C   UNL     1       5.336   3.946  16.838  0.00  0.00    +0.000 A 
ATOM     26  N   UNL     1       5.028   3.922  15.504  0.00  0.00    +0.000 NA
ATOM     27  C   UNL     1       6.007   4.318  14.642  0.00  0.00    +0.000 A 
ATOM     28  C   UNL     1       7.249   4.710  15.143  0.00  0.00    +0.000 A 
ATOM     29  N   UNL     1       7.571   4.728  16.458  0.00  0.00    +0.000 NA
ATOM     30  C   UNL     1       6.604   4.340  17.304  0.00  0.00    +0.000 A 
BRANCH  27  31
ATOM     31  C   UNL     1       5.717   4.376  13.163  0.00  0.00    +0.000 C 
ATOM     32  C   UNL     1       6.320   3.372  12.204  0.00  0.00    +0.000 C 
ATOM     33  C   UNL     1       4.858   3.309  12.528  0.00  0.00    +0.000 C 
ENDBRANCH  27  31
BRANCH  30  34
ATOM     34  N   UNL     1       6.947   4.408  18.651  0.00  0.00    +0.000 N 
ATOM     35  H   UNL     1       6.794   3.480  19.043  0.00  0.00    +0.000 HD
ATOM     36  H   UNL     1       6.437   5.111  19.172  0.00  0.00    +0.000 HD
ENDBRANCH  30  34
ENDBRANCH  24  25
ENDBRANCH   4  24
TORSDOF 9
ENDMDL
MODEL 6
REMARK VINA RESULT:      -7.6      4.296     11.298
REMARK  Name = 
REMARK  12 active torsions:
REMARK  status: ('A' for Active; 'I' for Inactive)
REMARK    1  A    between atoms: C_1  and  C_2
REMARK    2  A    between atoms: C_2  and  C_3
REMARK    3  A    between atoms: C_2  and  C_4
REMARK    4  A    between atoms: C_2  and  O_5
REMARK    5  A    between atoms: O_5  and  C_6
REMARK    6  A    between atoms: N_8  and  C_9
REMARK    7  A    between atoms: C_12  and  N_13
REMARK    8  A    between atoms: N_15  and  C_16
REMARK    9  A    between atoms: N_18  and  C_19
REMARK   10  A    between atoms: C_19  and  C_20
REMARK   11  A    between atoms: C_22  and  C_23
REMARK   12  A    between atoms: C_28  and  N_29
REMARK                            x       y       z     vdW  Elec       q    Type
REMARK                         _______ _______ _______ _____ _____    ______ ____
ROOT
ATOM      1  N   UNL     1      -0.430  11.006  19.177  0.00  0.00    +0.000 N 
ATOM      2  C   UNL     1      -1.504  11.025  18.303  0.00  0.00    +0.000 C 
ATOM      3  N   UNL     1      -1.542  10.202  17.302  0.00  0.00    +0.000 NA
ATOM      4  N   UNL     1      -2.404  12.000  18.691  0.00  0.00    +0.000 N 
ATOM      5  H   UNL     1       0.053  11.892  19.262  0.00  0.00    +0.000 HD
ATOM      6  H   UNL     1      -2.236  12.415  19.606  0.00  0.00    +0.000 HD
ENDROOT
BRANCH   1  10
ATOM      7  C   UNL     1       2.053   7.588  19.786  0.00  0.00    +0.000 A 
ATOM      8  C   UNL     1       1.166   8.035  20.776  0.00  0.00    +0.000 A 
ATOM      9  C   UNL     1       0.341   9.157  20.582  0.00  0.00    +0.000 A 
ATOM     10  C   UNL     1       0.394   9.875  19.387  0.00  0.00    +0.000 A 
ATOM     11  C   UNL     1       1.276   9.415  18.396  0.00  0.00    +0.000 A 
ATOM     12  C   UNL     1       2.103   8.298  18.592  0.00  0.00    +0.000 A 
BRANCH   7  15
ATOM     13  C   UNL     1       2.708   5.264  19.269  0.00  0.00    +0.000 C 
ATOM     14  O   UNL     1       1.843   5.069  18.435  0.00  0.00    +0.000 OA
ATOM     15  N   UNL     1       2.889   6.452  19.940  0.00  0.00    +0.000 N 
ATOM     16  H   UNL     1       3.739   6.532  20.482  0.00  0.00    +0.000 HD
BRANCH  13  17
ATOM     17  O   UNL     1       3.659   4.334  19.600  0.00  0.00    +0.000 OA
BRANCH  17  19
ATOM     18  C   UNL     1       2.415   2.295  19.004  0.00  0.00    +0.000 C 
ATOM     19  C   UNL     1       3.157   3.060  20.114  0.00  0.00    +0.000 C 
ATOM     20  C   UNL     1       2.285   3.262  21.368  0.00  0.00    +0.000 C 
ATOM     21  C   UNL     1       4.362   2.192  20.526  0.00  0.00    +0.000 C 
ENDBRANCH  17  19
ENDBRANCH  13  17
ENDBRANCH   7  15
ENDBRANCH   1  10
BRANCH   3  22
ATOM     22  C   UNL     1      -2.532  10.219  16.412  0.00  0.00    +0.000 C 
ATOM     23  N   UNL     1      -3.366  10.218  15.607  0.00  0.00    +0.000 NA
ENDBRANCH   3  22
BRANCH   4  24
ATOM     24  C   UNL     1      -3.848  11.881  18.450  0.00  0.00    +0.000 C 
BRANCH  24  25
ATOM     25  C   UNL     1      -4.718  12.167  19.662  0.00  0.00    +0.000 A 
ATOM     26  N   UNL     1      -4.127  12.602  20.818  0.00  0.00    +0.000 NA
ATOM     27  C   UNL     1      -4.954  12.848  21.873  0.00  0.00    +0.000 A 
ATOM     28  C   UNL     1      -6.329  12.642  21.735  0.00  0.00    +0.000 A 
ATOM     29  N   UNL     1      -6.924  12.201  20.602  0.00  0.00    +0.000 NA
ATOM     30  C   UNL     1      -6.106  11.962  19.564  0.00  0.00    +0.000 A 
BRANCH  27  31
ATOM     31  C   UNL     1      -4.381  13.390  23.159  0.00  0.00    +0.000 C 
ATOM     32  C   UNL     1      -4.119  12.487  24.345  0.00  0.00    +0.000 C 
ATOM     33  C   UNL     1      -2.968  13.032  23.555  0.00  0.00    +0.000 C 
ENDBRANCH  27  31
BRANCH  30  34
ATOM     34  N   UNL     1      -6.749  11.551  18.400  0.00  0.00    +0.000 N 
ATOM     35  H   UNL     1      -6.114  11.746  17.627  0.00  0.00    +0.000 HD
ATOM     36  H   UNL     1      -7.649  11.989  18.249  0.00  0.00    +0.000 HD
ENDBRANCH  30  34
ENDBRANCH  24  25
ENDBRANCH   4  24
TORSDOF 9
ENDMDL
MODEL 7
REMARK VINA RESULT:      -7.6      1.864      2.962
REMARK  Name = 
REMARK  12 active torsions:
REMARK  status: ('A' for Active; 'I' for Inactive)
REMARK    1  A    between atoms: C_1  and  C_2
REMARK    2  A    between atoms: C_2  and  C_3
REMARK    3  A    between atoms: C_2  and  C_4
REMARK    4  A    between atoms: C_2  and  O_5
REMARK    5  A    between atoms: O_5  and  C_6
REMARK    6  A    between atoms: N_8  and  C_9
REMARK    7  A    between atoms: C_12  and  N_13
REMARK    8  A    between atoms: N_15  and  C_16
REMARK    9  A    between atoms: N_18  and  C_19
REMARK   10  A    between atoms: C_19  and  C_20
REMARK   11  A    between atoms: C_22  and  C_23
REMARK   12  A    between atoms: C_28  and  N_29
REMARK                            x       y       z     vdW  Elec       q    Type
REMARK                         _______ _______ _______ _____ _____    ______ ____
ROOT
ATOM      1  N   UNL     1       2.339   6.157  21.123  0.00  0.00    +0.000 N 
ATOM      2  C   UNL     1       2.088   4.916  20.562  0.00  0.00    +0.000 C 
ATOM      3  N   UNL     1       1.001   4.716  19.885  0.00  0.00    +0.000 NA
ATOM      4  N   UNL     1       3.126   4.052  20.857  0.00  0.00    +0.000 N 
ATOM      5  H   UNL     1       2.485   6.138  22.126  0.00  0.00    +0.000 HD
ATOM      6  H   UNL     1       3.953   4.481  21.270  0.00  0.00    +0.000 HD
ENDROOT
BRANCH   1  10
ATOM      7  C   UNL     1       0.642   9.797  19.681  0.00  0.00    +0.000 A 
ATOM      8  C   UNL     1       1.487   9.015  18.880  0.00  0.00    +0.000 A 
ATOM      9  C   UNL     1       2.046   7.813  19.346  0.00  0.00    +0.000 A 
ATOM     10  C   UNL     1       1.783   7.365  20.641  0.00  0.00    +0.000 A 
ATOM     11  C   UNL     1       0.928   8.148  21.433  0.00  0.00    +0.000 A 
ATOM     12  C   UNL     1       0.374   9.352  20.970  0.00  0.00    +0.000 A 
BRANCH   7  15
ATOM     13  C   UNL     1       0.761  12.113  18.833  0.00  0.00    +0.000 C 
ATOM     14  O   UNL     1       1.975  12.162  18.761  0.00  0.00    +0.000 OA
ATOM     15  N   UNL     1       0.048  11.009  19.240  0.00  0.00    +0.000 N 
ATOM     16  H   UNL     1      -0.953  11.047  19.099  0.00  0.00    +0.000 HD
BRANCH  13  17
ATOM     17  O   UNL     1      -0.059  13.146  18.454  0.00  0.00    +0.000 OA
BRANCH  17  19
ATOM     18  C   UNL     1      -0.332  15.573  18.757  0.00  0.00    +0.000 C 
ATOM     19  C   UNL     1      -0.261  14.200  19.447  0.00  0.00    +0.000 C 
ATOM     20  C   UNL     1       0.816  14.154  20.547  0.00  0.00    +0.000 C 
ATOM     21  C   UNL     1      -1.625  13.972  20.128  0.00  0.00    +0.000 C 
ENDBRANCH  17  19
ENDBRANCH  13  17
ENDBRANCH   7  15
ENDBRANCH   1  10
BRANCH   3  22
ATOM     22  C   UNL     1       0.699   3.527  19.369  0.00  0.00    +0.000 C 
ATOM     23  N   UNL     1       0.425   2.511  18.882  0.00  0.00    +0.000 NA
ENDBRANCH   3  22
BRANCH   4  24
ATOM     24  C   UNL     1       3.524   2.961  19.957  0.00  0.00    +0.000 C 
BRANCH  24  25
ATOM     25  C   UNL     1       4.377   3.392  18.778  0.00  0.00    +0.000 A 
ATOM     26  N   UNL     1       5.538   4.081  19.011  0.00  0.00    +0.000 NA
ATOM     27  C   UNL     1       6.268   4.439  17.917  0.00  0.00    +0.000 A 
ATOM     28  C   UNL     1       5.807   4.107  16.641  0.00  0.00    +0.000 A 
ATOM     29  N   UNL     1       4.657   3.437  16.396  0.00  0.00    +0.000 NA
ATOM     30  C   UNL     1       3.942   3.083  17.476  0.00  0.00    +0.000 A 
BRANCH  27  31
ATOM     31  C   UNL     1       7.588   5.145  18.101  0.00  0.00    +0.000 C 
ATOM     32  C   UNL     1       7.668   6.654  18.184  0.00  0.00    +0.000 C 
ATOM     33  C   UNL     1       7.893   5.827  19.413  0.00  0.00    +0.000 C 
ENDBRANCH  27  31
BRANCH  30  34
ATOM     34  N   UNL     1       2.787   2.359  17.197  0.00  0.00    +0.000 N 
ATOM     35  H   UNL     1       2.815   2.127  16.205  0.00  0.00    +0.000 HD
ATOM     36  H   UNL     1       1.929   2.844  17.432  0.00  0.00    +0.000 HD
ENDBRANCH  30  34
ENDBRANCH  24  25
ENDBRANCH   4  24
TORSDOF 9
ENDMDL
MODEL 8
REMARK VINA RESULT:      -7.6      1.536      1.924
REMARK  Name = 
REMARK  12 active torsions:
REMARK  status: ('A' for Active; 'I' for Inactive)
REMARK    1  A    between atoms: C_1  and  C_2
REMARK    2  A    between atoms: C_2  and  C_3
REMARK    3  A    between atoms: C_2  and  C_4
REMARK    4  A    between atoms: C_2  and  O_5
REMARK    5  A    between atoms: O_5  and  C_6
REMARK    6  A    between atoms: N_8  and  C_9
REMARK    7  A    between atoms: C_12  and  N_13
REMARK    8  A    between atoms: N_15  and  C_16
REMARK    9  A    between atoms: N_18  and  C_19
REMARK   10  A    between atoms: C_19  and  C_20
REMARK   11  A    between atoms: C_22  and  C_23
REMARK   12  A    between atoms: C_28  and  N_29
REMARK                            x       y       z     vdW  Elec       q    Type
REMARK                         _______ _______ _______ _____ _____    ______ ____
ROOT
ATOM      1  N   UNL     1       3.225   6.635  19.469  0.00  0.00    +0.000 N 
ATOM      2  C   UNL     1       3.080   5.323  19.051  0.00  0.00    +0.000 C 
ATOM      3  N   UNL     1       1.898   4.839  18.826  0.00  0.00    +0.000 NA
ATOM      4  N   UNL     1       4.322   4.726  18.948  0.00  0.00    +0.000 N 
ATOM      5  H   UNL     1       3.721   6.740  20.346  0.00  0.00    +0.000 HD
ATOM      6  H   UNL     1       5.121   5.355  19.023  0.00  0.00    +0.000 HD
ENDROOT
BRANCH   1  10
ATOM      7  C   UNL     1       0.339   9.690  18.722  0.00  0.00    +0.000 A 
ATOM      8  C   UNL     1       1.181   9.213  17.706  0.00  0.00    +0.000 A 
ATOM      9  C   UNL     1       2.131   8.204  17.943  0.00  0.00    +0.000 A 
ATOM     10  C   UNL     1       2.274   7.651  19.216  0.00  0.00    +0.000 A 
ATOM     11  C   UNL     1       1.420   8.126  20.225  0.00  0.00    +0.000 A 
ATOM     12  C   UNL     1       0.475   9.137  19.990  0.00  0.00    +0.000 A 
BRANCH   7  15
ATOM     13  C   UNL     1      -1.617  10.635  17.550  0.00  0.00    +0.000 C 
ATOM     14  O   UNL     1      -1.781   9.695  16.794  0.00  0.00    +0.000 OA
ATOM     15  N   UNL     1      -0.641  10.696  18.517  0.00  0.00    +0.000 N 
ATOM     16  H   UNL     1      -0.717  11.456  19.180  0.00  0.00    +0.000 HD
BRANCH  13  17
ATOM     17  O   UNL     1      -2.436  11.735  17.572  0.00  0.00    +0.000 OA
BRANCH  17  19
ATOM     18  C   UNL     1      -4.776  11.883  16.822  0.00  0.00    +0.000 C 
ATOM     19  C   UNL     1      -3.823  11.493  17.965  0.00  0.00    +0.000 C 
ATOM     20  C   UNL     1      -4.170  12.208  19.285  0.00  0.00    +0.000 C 
ATOM     21  C   UNL     1      -4.005   9.980  18.200  0.00  0.00    +0.000 C 
ENDBRANCH  17  19
ENDBRANCH  13  17
ENDBRANCH   7  15
ENDBRANCH   1  10
BRANCH   3  22
ATOM     22  C   UNL     1       1.711   3.570  18.469  0.00  0.00    +0.000 C 
ATOM     23  N   UNL     1       1.535   2.457  18.199  0.00  0.00    +0.000 NA
ENDBRANCH   3  22
BRANCH   4  24
ATOM     24  C   UNL     1       4.609   3.664  17.975  0.00  0.00    +0.000 C 
BRANCH  24  25
ATOM     25  C   UNL     1       5.595   4.051  16.887  0.00  0.00    +0.000 A 
ATOM     26  N   UNL     1       5.197   3.998  15.578  0.00  0.00    +0.000 NA
ATOM     27  C   UNL     1       6.119   4.360  14.642  0.00  0.00    +0.000 A 
ATOM     28  C   UNL     1       7.398   4.749  15.048  0.00  0.00    +0.000 A 
ATOM     29  N   UNL     1       7.808   4.794  16.337  0.00  0.00    +0.000 NA
ATOM     30  C   UNL     1       6.895   4.439  17.256  0.00  0.00    +0.000 A 
BRANCH  27  31
ATOM     31  C   UNL     1       5.732   4.387  13.185  0.00  0.00    +0.000 C 
ATOM     32  C   UNL     1       6.336   3.416  12.192  0.00  0.00    +0.000 C 
ATOM     33  C   UNL     1       4.905   3.260  12.612  0.00  0.00    +0.000 C 
ENDBRANCH  27  31
BRANCH  30  34
ATOM     34  N   UNL     1       7.330   4.535  18.575  0.00  0.00    +0.000 N 
ATOM     35  H   UNL     1       7.864   5.400  18.648  0.00  0.00    +0.000 HD
ATOM     36  H   UNL     1       7.878   3.743  18.887  0.00  0.00    +0.000 HD
ENDBRANCH  30  34
ENDBRANCH  24  25
ENDBRANCH   4  24
TORSDOF 9
ENDMDL
MODEL 9
REMARK VINA RESULT:      -7.6      1.221      1.330
REMARK  Name = 
REMARK  12 active torsions:
REMARK  status: ('A' for Active; 'I' for Inactive)
REMARK    1  A    between atoms: C_1  and  C_2
REMARK    2  A    between atoms: C_2  and  C_3
REMARK    3  A    between atoms: C_2  and  C_4
REMARK    4  A    between atoms: C_2  and  O_5
REMARK    5  A    between atoms: O_5  and  C_6
REMARK    6  A    between atoms: N_8  and  C_9
REMARK    7  A    between atoms: C_12  and  N_13
REMARK    8  A    between atoms: N_15  and  C_16
REMARK    9  A    between atoms: N_18  and  C_19
REMARK   10  A    between atoms: C_19  and  C_20
REMARK   11  A    between atoms: C_22  and  C_23
REMARK   12  A    between atoms: C_28  and  N_29
REMARK                            x       y       z     vdW  Elec       q    Type
REMARK                         _______ _______ _______ _____ _____    ______ ____
ROOT
ATOM      1  N   UNL     1       2.826   6.236  20.225  0.00  0.00    +0.000 N 
ATOM      2  C   UNL     1       2.884   5.126  19.398  0.00  0.00    +0.000 C 
ATOM      3  N   UNL     1       2.009   4.974  18.453  0.00  0.00    +0.000 NA
ATOM      4  N   UNL     1       3.946   4.323  19.769  0.00  0.00    +0.000 N 
ATOM      5  H   UNL     1       2.752   6.016  21.211  0.00  0.00    +0.000 HD
ATOM      6  H   UNL     1       4.593   4.731  20.442  0.00  0.00    +0.000 HD
ENDROOT
BRANCH   1  10
ATOM      7  C   UNL     1       0.982   9.925  19.129  0.00  0.00    +0.000 A 
ATOM      8  C   UNL     1       1.743   9.186  18.212  0.00  0.00    +0.000 A 
ATOM      9  C   UNL     1       2.349   7.968  18.564  0.00  0.00    +0.000 A 
ATOM     10  C   UNL     1       2.221   7.460  19.857  0.00  0.00    +0.000 A 
ATOM     11  C   UNL     1       1.449   8.201  20.767  0.00  0.00    +0.000 A 
ATOM     12  C   UNL     1       0.848   9.420  20.417  0.00  0.00    +0.000 A 
BRANCH   7  15
ATOM     13  C   UNL     1       1.007  12.342  18.624  0.00  0.00    +0.000 C 
ATOM     14  O   UNL     1       2.217  12.471  18.672  0.00  0.00    +0.000 OA
ATOM     15  N   UNL     1       0.343  11.151  18.807  0.00  0.00    +0.000 N 
ATOM     16  H   UNL     1      -0.643  11.151  18.580  0.00  0.00    +0.000 HD
BRANCH  13  17
ATOM     17  O   UNL     1       0.151  13.369  18.316  0.00  0.00    +0.000 OA
BRANCH  17  19
ATOM     18  C   UNL     1      -0.394  15.701  18.885  0.00  0.00    +0.000 C 
ATOM     19  C   UNL     1      -0.186  14.272  19.416  0.00  0.00    +0.000 C 
ATOM     20  C   UNL     1       0.868  14.213  20.539  0.00  0.00    +0.000 C 
ATOM     21  C   UNL     1      -1.529  13.821  20.021  0.00  0.00    +0.000 C 
ENDBRANCH  17  19
ENDBRANCH  13  17
ENDBRANCH   7  15
ENDBRANCH   1  10
BRANCH   3  22
ATOM     22  C   UNL     1       2.000   3.899  17.667  0.00  0.00    +0.000 C 
ATOM     23  N   UNL     1       2.006   2.940  17.016  0.00  0.00    +0.000 NA
ENDBRANCH   3  22
BRANCH   4  24
ATOM     24  C   UNL     1       4.682   3.494  18.805  0.00  0.00    +0.000 C 
BRANCH  24  25
ATOM     25  C   UNL     1       5.573   4.271  17.852  0.00  0.00    +0.000 A 
ATOM     26  N   UNL     1       5.322   4.212  16.507  0.00  0.00    +0.000 NA
ATOM     27  C   UNL     1       6.149   4.932  15.697  0.00  0.00    +0.000 A 
ATOM     28  C   UNL     1       7.194   5.669  16.259  0.00  0.00    +0.000 A 
ATOM     29  N   UNL     1       7.460   5.727  17.585  0.00  0.00    +0.000 NA
ATOM     30  C   UNL     1       6.642   5.019  18.379  0.00  0.00    +0.000 A 
BRANCH  27  31
ATOM     31  C   UNL     1       5.894   4.964  14.211  0.00  0.00    +0.000 C 
ATOM     32  C   UNL     1       6.817   4.262  13.239  0.00  0.00    +0.000 C 
ATOM     33  C   UNL     1       5.450   3.706  13.503  0.00  0.00    +0.000 C 
ENDBRANCH  27  31
BRANCH  30  34
ATOM     34  N   UNL     1       6.912   5.130  19.740  0.00  0.00    +0.000 N 
ATOM     35  H   UNL     1       6.129   4.704  20.233  0.00  0.00    +0.000 HD
ATOM     36  H   UNL     1       7.065   6.080  20.054  0.00  0.00    +0.000 HD
ENDBRANCH  30  34
ENDBRANCH  24  25
ENDBRANCH   4  24
TORSDOF 9
ENDMDL
