MODEL 1
REMARK VINA RESULT:      -8.3      0.000      0.000
REMARK  Name = 
REMARK  3 active torsions:
REMARK  status: ('A' for Active; 'I' for Inactive)
REMARK    1  A    between atoms: C_7  and  C_8
REMARK    2  A    between atoms: N_13  and  C_14
REMARK    3  A    between atoms: C_14  and  C_15
REMARK                            x       y       z     vdW  Elec       q    Type
REMARK                         _______ _______ _______ _____ _____    ______ ____
ROOT
ATOM      1  C   UNL     1       8.344   9.163  18.246  0.00  0.00    +0.000 A 
ATOM      2  N   UNL     1       8.709   8.033  18.995  0.00  0.00    +0.000 NA
ATOM      3  C   UNL     1       7.982   7.093  18.482  0.00  0.00    +0.000 A 
ATOM      4  C   UNL     1       7.893   5.661  18.791  0.00  0.00    +0.000 A 
ATOM      5  C   UNL     1       7.034   4.952  18.042  0.00  0.00    +0.000 A 
ATOM      6  N   UNL     1       6.221   5.479  17.026  0.00  0.00    +0.000 N 
ATOM      7  C   UNL     1       6.334   6.847  16.750  0.00  0.00    +0.000 A 
ATOM      8  C   UNL     1       7.153   7.654  17.418  0.00  0.00    +0.000 A 
ATOM      9  N   UNL     1       7.435   8.982  17.327  0.00  0.00    +0.000 NA
ENDROOT
BRANCH   1  16
ATOM     10  F   UNL     1       7.625  11.628  16.985  0.00  0.00    +0.000 F 
ATOM     11  C   UNL     1       8.624  11.617  17.878  0.00  0.00    +0.000 A 
ATOM     12  C   UNL     1       9.271  12.824  18.137  0.00  0.00    +0.000 A 
ATOM     13  C   UNL     1      10.321  12.869  19.054  0.00  0.00    +0.000 A 
ATOM     14  C   UNL     1      10.720  11.706  19.710  0.00  0.00    +0.000 A 
ATOM     15  C   UNL     1      10.070  10.496  19.452  0.00  0.00    +0.000 A 
ATOM     16  C   UNL     1       9.014  10.447  18.530  0.00  0.00    +0.000 A 
ENDBRANCH   1  16
BRANCH   6  17
ATOM     17  C   UNL     1       5.243   4.641  16.300  0.00  0.00    +0.000 C 
BRANCH  17  18
ATOM     18  C   UNL     1       4.085   4.237  17.188  0.00  0.00    +0.000 A 
ATOM     19  C   UNL     1       3.166   5.196  17.640  0.00  0.00    +0.000 A 
ATOM     20  C   UNL     1       2.177   4.853  18.564  0.00  0.00    +0.000 A 
ATOM     21  C   UNL     1       2.088   3.543  19.028  0.00  0.00    +0.000 A 
ATOM     22 BR   UNL     1       0.825   3.104  20.364  0.00  0.00    +0.000 Br
ATOM     23  C   UNL     1       2.947   2.562  18.539  0.00  0.00    +0.000 A 
ATOM     24  C   UNL     1       3.944   2.909  17.623  0.00  0.00    +0.000 A 
ENDBRANCH  17  18
ENDBRANCH   6  17
TORSDOF 3
ENDMDL
MODEL 2
REMARK VINA RESULT:      -8.2      1.107      1.331
REMARK  Name = 
REMARK  3 active torsions:
REMARK  status: ('A' for Active; 'I' for Inactive)
REMARK    1  A    between atoms: C_7  and  C_8
REMARK    2  A    between atoms: N_13  and  C_14
REMARK    3  A    between atoms: C_14  and  C_15
REMARK                            x       y       z     vdW  Elec       q    Type
REMARK                         _______ _______ _______ _____ _____    ______ ____
ROOT
ATOM      1  C   UNL     1       8.635   9.271  18.430  0.00  0.00    +0.000 A 
ATOM      2  N   UNL     1       8.884   8.086  19.141  0.00  0.00    +0.000 NA
ATOM      3  C   UNL     1       8.082   7.236  18.584  0.00  0.00    +0.000 A 
ATOM      4  C   UNL     1       7.859   5.808  18.839  0.00  0.00    +0.000 A 
ATOM      5  C   UNL     1       6.951   5.208  18.053  0.00  0.00    +0.000 A 
ATOM      6  N   UNL     1       6.206   5.843  17.047  0.00  0.00    +0.000 N 
ATOM      7  C   UNL     1       6.447   7.205  16.824  0.00  0.00    +0.000 A 
ATOM      8  C   UNL     1       7.325   7.909  17.532  0.00  0.00    +0.000 A 
ATOM      9  N   UNL     1       7.728   9.208  17.494  0.00  0.00    +0.000 NA
ENDROOT
BRANCH   1  16
ATOM     10  F   UNL     1       8.943  10.245  21.103  0.00  0.00    +0.000 F 
ATOM     11  C   UNL     1       9.523  10.909  20.093  0.00  0.00    +0.000 A 
ATOM     12  C   UNL     1      10.245  12.059  20.407  0.00  0.00    +0.000 A 
ATOM     13  C   UNL     1      10.865  12.792  19.395  0.00  0.00    +0.000 A 
ATOM     14  C   UNL     1      10.761  12.371  18.071  0.00  0.00    +0.000 A 
ATOM     15  C   UNL     1      10.038  11.217  17.756  0.00  0.00    +0.000 A 
ATOM     16  C   UNL     1       9.414  10.478  18.771  0.00  0.00    +0.000 A 
ENDBRANCH   1  16
BRANCH   6  17
ATOM     17  C   UNL     1       5.167   5.126  16.278  0.00  0.00    +0.000 C 
BRANCH  17  18
ATOM     18  C   UNL     1       4.054   4.624  17.174  0.00  0.00    +0.000 A 
ATOM     19  C   UNL     1       3.206   5.529  17.830  0.00  0.00    +0.000 A 
ATOM     20  C   UNL     1       2.267   5.077  18.760  0.00  0.00    +0.000 A 
ATOM     21  C   UNL     1       2.155   3.715  19.024  0.00  0.00    +0.000 A 
ATOM     22 BR   UNL     1       0.965   3.114  20.364  0.00  0.00    +0.000 Br
ATOM     23  C   UNL     1       2.939   2.795  18.332  0.00  0.00    +0.000 A 
ATOM     24  C   UNL     1       3.888   3.250  17.411  0.00  0.00    +0.000 A 
ENDBRANCH  17  18
ENDBRANCH   6  17
TORSDOF 3
ENDMDL
MODEL 3
REMARK VINA RESULT:      -8.0      0.411      1.066
REMARK  Name = 
REMARK  3 active torsions:
REMARK  status: ('A' for Active; 'I' for Inactive)
REMARK    1  A    between atoms: C_7  and  C_8
REMARK    2  A    between atoms: N_13  and  C_14
REMARK    3  A    between atoms: C_14  and  C_15
REMARK                            x       y       z     vdW  Elec       q    Type
REMARK                         _______ _______ _______ _____ _____    ______ ____
ROOT
ATOM      1  C   UNL     1       8.498   9.371  18.282  0.00  0.00    +0.000 A 
ATOM      2  N   UNL     1       8.785   8.268  19.101  0.00  0.00    +0.000 NA
ATOM      3  C   UNL     1       8.097   7.313  18.560  0.00  0.00    +0.000 A 
ATOM      4  C   UNL     1       7.969   5.895  18.912  0.00  0.00    +0.000 A 
ATOM      5  C   UNL     1       7.173   5.164  18.116  0.00  0.00    +0.000 A 
ATOM      6  N   UNL     1       6.458   5.657  17.013  0.00  0.00    +0.000 N 
ATOM      7  C   UNL     1       6.607   7.013  16.699  0.00  0.00    +0.000 A 
ATOM      8  C   UNL     1       7.371   7.840  17.407  0.00  0.00    +0.000 A 
ATOM      9  N   UNL     1       7.672   9.162  17.293  0.00  0.00    +0.000 NA
ENDROOT
BRANCH   1  16
ATOM     10  F   UNL     1       7.731  11.843  17.061  0.00  0.00    +0.000 F 
ATOM     11  C   UNL     1       8.738  11.834  17.945  0.00  0.00    +0.000 A 
ATOM     12  C   UNL     1       9.370  13.047  18.215  0.00  0.00    +0.000 A 
ATOM     13  C   UNL     1      10.427  13.095  19.124  0.00  0.00    +0.000 A 
ATOM     14  C   UNL     1      10.849  11.930  19.760  0.00  0.00    +0.000 A 
ATOM     15  C   UNL     1      10.215  10.714  19.491  0.00  0.00    +0.000 A 
ATOM     16  C   UNL     1       9.151  10.662  18.578  0.00  0.00    +0.000 A 
ENDBRANCH   1  16
BRANCH   6  17
ATOM     17  C   UNL     1       5.540   4.799  16.234  0.00  0.00    +0.000 C 
BRANCH  17  18
ATOM     18  C   UNL     1       4.397   4.286  17.084  0.00  0.00    +0.000 A 
ATOM     19  C   UNL     1       4.248   2.911  17.321  0.00  0.00    +0.000 A 
ATOM     20  C   UNL     1       3.123   2.423  17.990  0.00  0.00    +0.000 A 
ATOM     21  C   UNL     1       2.151   3.309  18.447  0.00  0.00    +0.000 A 
ATOM     22 BR   UNL     1       0.577   2.642  19.251  0.00  0.00    +0.000 Br
ATOM     23  C   UNL     1       2.317   4.683  18.284  0.00  0.00    +0.000 A 
ATOM     24  C   UNL     1       3.436   5.169  17.602  0.00  0.00    +0.000 A 
ENDBRANCH  17  18
ENDBRANCH   6  17
TORSDOF 3
ENDMDL
MODEL 4
REMARK VINA RESULT:      -8.0      1.207      1.723
REMARK  Name = 
REMARK  3 active torsions:
REMARK  status: ('A' for Active; 'I' for Inactive)
REMARK    1  A    between atoms: C_7  and  C_8
REMARK    2  A    between atoms: N_13  and  C_14
REMARK    3  A    between atoms: C_14  and  C_15
REMARK                            x       y       z     vdW  Elec       q    Type
REMARK                         _______ _______ _______ _____ _____    ______ ____
ROOT
ATOM      1  C   UNL     1       8.717   9.423  18.518  0.00  0.00    +0.000 A 
ATOM      2  N   UNL     1       8.944   8.223  19.211  0.00  0.00    +0.000 NA
ATOM      3  C   UNL     1       8.155   7.387  18.616  0.00  0.00    +0.000 A 
ATOM      4  C   UNL     1       7.920   5.955  18.834  0.00  0.00    +0.000 A 
ATOM      5  C   UNL     1       7.032   5.375  18.013  0.00  0.00    +0.000 A 
ATOM      6  N   UNL     1       6.315   6.033  17.001  0.00  0.00    +0.000 N 
ATOM      7  C   UNL     1       6.566   7.398  16.813  0.00  0.00    +0.000 A 
ATOM      8  C   UNL     1       7.427   8.084  17.558  0.00  0.00    +0.000 A 
ATOM      9  N   UNL     1       7.835   9.382  17.558  0.00  0.00    +0.000 NA
ENDROOT
BRANCH   1  16
ATOM     10  F   UNL     1       8.995  10.315  21.223  0.00  0.00    +0.000 F 
ATOM     11  C   UNL     1       9.585  11.010  20.240  0.00  0.00    +0.000 A 
ATOM     12  C   UNL     1      10.301  12.151  20.598  0.00  0.00    +0.000 A 
ATOM     13  C   UNL     1      10.931  12.915  19.615  0.00  0.00    +0.000 A 
ATOM     14  C   UNL     1      10.842  12.535  18.278  0.00  0.00    +0.000 A 
ATOM     15  C   UNL     1      10.125  11.391  17.919  0.00  0.00    +0.000 A 
ATOM     16  C   UNL     1       9.491  10.620  18.905  0.00  0.00    +0.000 A 
ENDBRANCH   1  16
BRANCH   6  17
ATOM     17  C   UNL     1       5.294   5.335  16.190  0.00  0.00    +0.000 C 
BRANCH  17  18
ATOM     18  C   UNL     1       4.242   4.679  17.060  0.00  0.00    +0.000 A 
ATOM     19  C   UNL     1       4.155   3.281  17.138  0.00  0.00    +0.000 A 
ATOM     20  C   UNL     1       3.106   2.672  17.830  0.00  0.00    +0.000 A 
ATOM     21  C   UNL     1       2.149   3.458  18.466  0.00  0.00    +0.000 A 
ATOM     22 BR   UNL     1       0.667   2.636  19.305  0.00  0.00    +0.000 Br
ATOM     23  C   UNL     1       2.258   4.846  18.459  0.00  0.00    +0.000 A 
ATOM     24  C   UNL     1       3.301   5.455  17.755  0.00  0.00    +0.000 A 
ENDBRANCH  17  18
ENDBRANCH   6  17
TORSDOF 3
ENDMDL
MODEL 5
REMARK VINA RESULT:      -8.0      1.022      1.081
REMARK  Name = 
REMARK  3 active torsions:
REMARK  status: ('A' for Active; 'I' for Inactive)
REMARK    1  A    between atoms: C_7  and  C_8
REMARK    2  A    between atoms: N_13  and  C_14
REMARK    3  A    between atoms: C_14  and  C_15
REMARK                            x       y       z     vdW  Elec       q    Type
REMARK                         _______ _______ _______ _____ _____    ______ ____
ROOT
ATOM      1  C   UNL     1       8.699   9.339  18.713  0.00  0.00    +0.000 A 
ATOM      2  N   UNL     1       8.944   8.091  19.306  0.00  0.00    +0.000 NA
ATOM      3  C   UNL     1       8.156   7.296  18.655  0.00  0.00    +0.000 A 
ATOM      4  C   UNL     1       7.937   5.849  18.762  0.00  0.00    +0.000 A 
ATOM      5  C   UNL     1       7.045   5.327  17.906  0.00  0.00    +0.000 A 
ATOM      6  N   UNL     1       6.311   6.056  16.957  0.00  0.00    +0.000 N 
ATOM      7  C   UNL     1       6.547   7.433  16.875  0.00  0.00    +0.000 A 
ATOM      8  C   UNL     1       7.410   8.068  17.663  0.00  0.00    +0.000 A 
ATOM      9  N   UNL     1       7.806   9.365  17.761  0.00  0.00    +0.000 NA
ENDROOT
BRANCH   1  16
ATOM     10  F   UNL     1      10.497  10.819  17.051  0.00  0.00    +0.000 F 
ATOM     11  C   UNL     1      10.333  11.188  18.329  0.00  0.00    +0.000 A 
ATOM     12  C   UNL     1      11.068  12.281  18.785  0.00  0.00    +0.000 A 
ATOM     13  C   UNL     1      10.941  12.705  20.108  0.00  0.00    +0.000 A 
ATOM     14  C   UNL     1      10.077  12.034  20.971  0.00  0.00    +0.000 A 
ATOM     15  C   UNL     1       9.340  10.938  20.515  0.00  0.00    +0.000 A 
ATOM     16  C   UNL     1       9.465  10.509  19.185  0.00  0.00    +0.000 A 
ENDBRANCH   1  16
BRANCH   6  17
ATOM     17  C   UNL     1       5.288   5.414  16.104  0.00  0.00    +0.000 C 
BRANCH  17  18
ATOM     18  C   UNL     1       4.143   4.860  16.925  0.00  0.00    +0.000 A 
ATOM     19  C   UNL     1       3.327   5.719  17.677  0.00  0.00    +0.000 A 
ATOM     20  C   UNL     1       2.356   5.204  18.539  0.00  0.00    +0.000 A 
ATOM     21  C   UNL     1       2.180   3.827  18.638  0.00  0.00    +0.000 A 
ATOM     22 BR   UNL     1       0.947   3.126  19.887  0.00  0.00    +0.000 Br
ATOM     23  C   UNL     1       2.932   2.961  17.848  0.00  0.00    +0.000 A 
ATOM     24  C   UNL     1       3.912   3.477  16.995  0.00  0.00    +0.000 A 
ENDBRANCH  17  18
ENDBRANCH   6  17
TORSDOF 3
ENDMDL
MODEL 6
REMARK VINA RESULT:      -7.9      6.530      8.876
REMARK  Name = 
REMARK  3 active torsions:
REMARK  status: ('A' for Active; 'I' for Inactive)
REMARK    1  A    between atoms: C_7  and  C_8
REMARK    2  A    between atoms: N_13  and  C_14
REMARK    3  A    between atoms: C_14  and  C_15
REMARK                            x       y       z     vdW  Elec       q    Type
REMARK                         _______ _______ _______ _____ _____    ______ ____
ROOT
ATOM      1  C   UNL     1       2.585   7.413  18.393  0.00  0.00    +0.000 A 
ATOM      2  N   UNL     1       2.166   7.376  19.733  0.00  0.00    +0.000 NA
ATOM      3  C   UNL     1       1.502   8.480  19.864  0.00  0.00    +0.000 A 
ATOM      4  C   UNL     1       0.783   9.045  21.010  0.00  0.00    +0.000 A 
ATOM      5  C   UNL     1       0.175  10.223  20.798  0.00  0.00    +0.000 A 
ATOM      6  N   UNL     1       0.199  10.940  19.591  0.00  0.00    +0.000 N 
ATOM      7  C   UNL     1       0.889  10.371  18.514  0.00  0.00    +0.000 A 
ATOM      8  C   UNL     1       1.527   9.207  18.597  0.00  0.00    +0.000 A 
ATOM      9  N   UNL     1       2.240   8.468  17.705  0.00  0.00    +0.000 NA
ENDROOT
BRANCH   1  16
ATOM     10  F   UNL     1       1.529   4.763  18.178  0.00  0.00    +0.000 F 
ATOM     11  C   UNL     1       2.789   5.000  17.787  0.00  0.00    +0.000 A 
ATOM     12  C   UNL     1       3.527   3.922  17.300  0.00  0.00    +0.000 A 
ATOM     13  C   UNL     1       4.844   4.110  16.883  0.00  0.00    +0.000 A 
ATOM     14  C   UNL     1       5.420   5.377  16.954  0.00  0.00    +0.000 A 
ATOM     15  C   UNL     1       4.681   6.458  17.441  0.00  0.00    +0.000 A 
ATOM     16  C   UNL     1       3.355   6.272  17.861  0.00  0.00    +0.000 A 
ENDBRANCH   1  16
BRANCH   6  17
ATOM     17  C   UNL     1      -0.433  12.271  19.464  0.00  0.00    +0.000 C 
BRANCH  17  18
ATOM     18  C   UNL     1      -1.900  12.161  19.105  0.00  0.00    +0.000 A 
ATOM     19  C   UNL     1      -2.887  12.566  20.016  0.00  0.00    +0.000 A 
ATOM     20  C   UNL     1      -4.239  12.344  19.745  0.00  0.00    +0.000 A 
ATOM     21  C   UNL     1      -4.614  11.734  18.551  0.00  0.00    +0.000 A 
ATOM     22 BR   UNL     1      -6.433  11.330  18.234  0.00  0.00    +0.000 Br
ATOM     23  C   UNL     1      -3.652  11.390  17.603  0.00  0.00    +0.000 A 
ATOM     24  C   UNL     1      -2.299  11.601  17.882  0.00  0.00    +0.000 A 
ENDBRANCH  17  18
ENDBRANCH   6  17
TORSDOF 3
ENDMDL
MODEL 7
REMARK VINA RESULT:      -7.9      6.644      8.953
REMARK  Name = 
REMARK  3 active torsions:
REMARK  status: ('A' for Active; 'I' for Inactive)
REMARK    1  A    between atoms: C_7  and  C_8
REMARK    2  A    between atoms: N_13  and  C_14
REMARK    3  A    between atoms: C_14  and  C_15
REMARK                            x       y       z     vdW  Elec       q    Type
REMARK                         _______ _______ _______ _____ _____    ______ ____
ROOT
ATOM      1  C   UNL     1       2.572   7.546  18.373  0.00  0.00    +0.000 A 
ATOM      2  N   UNL     1       2.189   7.491  19.722  0.00  0.00    +0.000 NA
ATOM      3  C   UNL     1       1.463   8.554  19.865  0.00  0.00    +0.000 A 
ATOM      4  C   UNL     1       0.739   9.082  21.027  0.00  0.00    +0.000 A 
ATOM      5  C   UNL     1       0.056  10.219  20.824  0.00  0.00    +0.000 A 
ATOM      6  N   UNL     1       0.008  10.930  19.615  0.00  0.00    +0.000 N 
ATOM      7  C   UNL     1       0.705  10.397  18.523  0.00  0.00    +0.000 A 
ATOM      8  C   UNL     1       1.413   9.274  18.595  0.00  0.00    +0.000 A 
ATOM      9  N   UNL     1       2.148   8.574  17.689  0.00  0.00    +0.000 NA
ENDROOT
BRANCH   1  16
ATOM     10  F   UNL     1       1.695   4.826  18.248  0.00  0.00    +0.000 F 
ATOM     11  C   UNL     1       2.917   5.141  17.798  0.00  0.00    +0.000 A 
ATOM     12  C   UNL     1       3.707   4.107  17.297  0.00  0.00    +0.000 A 
ATOM     13  C   UNL     1       4.990   4.377  16.821  0.00  0.00    +0.000 A 
ATOM     14  C   UNL     1       5.479   5.682  16.845  0.00  0.00    +0.000 A 
ATOM     15  C   UNL     1       4.687   6.719  17.346  0.00  0.00    +0.000 A 
ATOM     16  C   UNL     1       3.397   6.451  17.826  0.00  0.00    +0.000 A 
ENDBRANCH   1  16
BRANCH   6  17
ATOM     17  C   UNL     1      -0.706  12.219  19.498  0.00  0.00    +0.000 C 
BRANCH  17  18
ATOM     18  C   UNL     1      -2.182  12.019  19.226  0.00  0.00    +0.000 A 
ATOM     19  C   UNL     1      -2.607  11.331  18.079  0.00  0.00    +0.000 A 
ATOM     20  C   UNL     1      -3.964  11.259  17.755  0.00  0.00    +0.000 A 
ATOM     21  C   UNL     1      -4.906  11.857  18.588  0.00  0.00    +0.000 A 
ATOM     22 BR   UNL     1      -6.730  11.859  18.091  0.00  0.00    +0.000 Br
ATOM     23  C   UNL     1      -4.509  12.483  19.767  0.00  0.00    +0.000 A 
ATOM     24  C   UNL     1      -3.150  12.566  20.083  0.00  0.00    +0.000 A 
ENDBRANCH  17  18
ENDBRANCH   6  17
TORSDOF 3
ENDMDL
MODEL 8
REMARK VINA RESULT:      -7.9      1.094      1.504
REMARK  Name = 
REMARK  3 active torsions:
REMARK  status: ('A' for Active; 'I' for Inactive)
REMARK    1  A    between atoms: C_7  and  C_8
REMARK    2  A    between atoms: N_13  and  C_14
REMARK    3  A    between atoms: C_14  and  C_15
REMARK                            x       y       z     vdW  Elec       q    Type
REMARK                         _______ _______ _______ _____ _____    ______ ____
ROOT
ATOM      1  C   UNL     1       8.732   9.422  18.730  0.00  0.00    +0.000 A 
ATOM      2  N   UNL     1       8.982   8.166  19.306  0.00  0.00    +0.000 NA
ATOM      3  C   UNL     1       8.185   7.380  18.654  0.00  0.00    +0.000 A 
ATOM      4  C   UNL     1       7.965   5.933  18.746  0.00  0.00    +0.000 A 
ATOM      5  C   UNL     1       7.063   5.422  17.894  0.00  0.00    +0.000 A 
ATOM      6  N   UNL     1       6.320   6.163  16.962  0.00  0.00    +0.000 N 
ATOM      7  C   UNL     1       6.557   7.541  16.894  0.00  0.00    +0.000 A 
ATOM      8  C   UNL     1       7.430   8.165  17.680  0.00  0.00    +0.000 A 
ATOM      9  N   UNL     1       7.829   9.461  17.789  0.00  0.00    +0.000 NA
ENDROOT
BRANCH   1  16
ATOM     10  F   UNL     1      10.561  10.881  17.083  0.00  0.00    +0.000 F 
ATOM     11  C   UNL     1      10.388  11.253  18.359  0.00  0.00    +0.000 A 
ATOM     12  C   UNL     1      11.130  12.340  18.820  0.00  0.00    +0.000 A 
ATOM     13  C   UNL     1      10.994  12.767  20.140  0.00  0.00    +0.000 A 
ATOM     14  C   UNL     1      10.116  12.106  20.997  0.00  0.00    +0.000 A 
ATOM     15  C   UNL     1       9.371  11.018  20.535  0.00  0.00    +0.000 A 
ATOM     16  C   UNL     1       9.505  10.585  19.207  0.00  0.00    +0.000 A 
ENDBRANCH   1  16
BRANCH   6  17
ATOM     17  C   UNL     1       5.286   5.533  16.113  0.00  0.00    +0.000 C 
BRANCH  17  18
ATOM     18  C   UNL     1       4.239   4.820  16.943  0.00  0.00    +0.000 A 
ATOM     19  C   UNL     1       4.145   3.420  16.920  0.00  0.00    +0.000 A 
ATOM     20  C   UNL     1       3.100   2.767  17.576  0.00  0.00    +0.000 A 
ATOM     21  C   UNL     1       2.153   3.509  18.277  0.00  0.00    +0.000 A 
ATOM     22 BR   UNL     1       0.675   2.635  19.069  0.00  0.00    +0.000 Br
ATOM     23  C   UNL     1       2.269   4.894  18.370  0.00  0.00    +0.000 A 
ATOM     24  C   UNL     1       3.309   5.547  17.702  0.00  0.00    +0.000 A 
ENDBRANCH  17  18
ENDBRANCH   6  17
TORSDOF 3
ENDMDL
MODEL 9
REMARK VINA RESULT:      -7.8      6.313      8.814
REMARK  Name = 
REMARK  3 active torsions:
REMARK  status: ('A' for Active; 'I' for Inactive)
REMARK    1  A    between atoms: C_7  and  C_8
REMARK    2  A    between atoms: N_13  and  C_14
REMARK    3  A    between atoms: C_14  and  C_15
REMARK                            x       y       z     vdW  Elec       q    Type
REMARK                         _______ _______ _______ _____ _____    ______ ____
ROOT
ATOM      1  C   UNL     1       2.594   7.209  18.391  0.00  0.00    +0.000 A 
ATOM      2  N   UNL     1       2.262   7.233  19.755  0.00  0.00    +0.000 NA
ATOM      3  C   UNL     1       1.603   8.341  19.878  0.00  0.00    +0.000 A 
ATOM      4  C   UNL     1       0.956   8.957  21.041  0.00  0.00    +0.000 A 
ATOM      5  C   UNL     1       0.330  10.122  20.814  0.00  0.00    +0.000 A 
ATOM      6  N   UNL     1       0.273  10.784  19.577  0.00  0.00    +0.000 N 
ATOM      7  C   UNL     1       0.895  10.166  18.485  0.00  0.00    +0.000 A 
ATOM      8  C   UNL     1       1.542   9.009  18.580  0.00  0.00    +0.000 A 
ATOM      9  N   UNL     1       2.200   8.230  17.679  0.00  0.00    +0.000 NA
ENDROOT
BRANCH   1  16
ATOM     10  F   UNL     1       5.263   7.368  17.374  0.00  0.00    +0.000 F 
ATOM     11  C   UNL     1       4.632   6.186  17.374  0.00  0.00    +0.000 A 
ATOM     12  C   UNL     1       5.319   5.088  16.859  0.00  0.00    +0.000 A 
ATOM     13  C   UNL     1       4.708   3.835  16.829  0.00  0.00    +0.000 A 
ATOM     14  C   UNL     1       3.411   3.683  17.315  0.00  0.00    +0.000 A 
ATOM     15  C   UNL     1       2.722   4.784  17.831  0.00  0.00    +0.000 A 
ATOM     16  C   UNL     1       3.333   6.046  17.863  0.00  0.00    +0.000 A 
ENDBRANCH   1  16
BRANCH   6  17
ATOM     17  C   UNL     1      -0.371  12.106  19.430  0.00  0.00    +0.000 C 
BRANCH  17  18
ATOM     18  C   UNL     1      -1.863  11.978  19.204  0.00  0.00    +0.000 A 
ATOM     19  C   UNL     1      -2.357  11.390  18.030  0.00  0.00    +0.000 A 
ATOM     20  C   UNL     1      -3.727  11.390  17.756  0.00  0.00    +0.000 A 
ATOM     21  C   UNL     1      -4.613  11.961  18.665  0.00  0.00    +0.000 A 
ATOM     22 BR   UNL     1      -6.453  12.064  18.243  0.00  0.00    +0.000 Br
ATOM     23  C   UNL     1      -4.149  12.487  19.869  0.00  0.00    +0.000 A 
ATOM     24  C   UNL     1      -2.777  12.497  20.135  0.00  0.00    +0.000 A 
ENDBRANCH  17  18
ENDBRANCH   6  17
TORSDOF 3
ENDMDL
