MODEL 1
REMARK VINA RESULT:      -9.3      0.000      0.000
REMARK  Name = 
REMARK  8 active torsions:
REMARK  status: ('A' for Active; 'I' for Inactive)
REMARK    1  A    between atoms: C_1  and  O_2
REMARK    2  A    between atoms: O_2  and  C_3
REMARK    3  A    between atoms: C_8  and  S_9
REMARK    4  A    between atoms: S_9  and  N_12
REMARK    5  A    between atoms: N_12  and  C_13
REMARK    6  A    between atoms: C_17  and  C_18
REMARK    7  A    between atoms: C_21  and  C_22
REMARK    8  A    between atoms: N_29  and  C_30
REMARK                            x       y       z     vdW  Elec       q    Type
REMARK                         _______ _______ _______ _____ _____    ______ ____
ROOT
ATOM      1  C   UNL     1       2.823   6.746  19.515  0.00  0.00    +0.000 A 
ATOM      2  C   UNL     1       2.964   7.301  18.249  0.00  0.00    +0.000 A 
ATOM      3  N   UNL     1       2.309   8.403  17.834  0.00  0.00    +0.000 NA
ATOM      4  C   UNL     1       1.507   9.001  18.754  0.00  0.00    +0.000 A 
ATOM      5  C   UNL     1       1.316   8.552  20.063  0.00  0.00    +0.000 A 
ATOM      6  C   UNL     1       1.978   7.365  20.425  0.00  0.00    +0.000 A 
ENDROOT
BRANCH   5   7
ATOM      7  C   UNL     1       0.491   9.311  21.027  0.00  0.00    +0.000 A 
ATOM      8  C   UNL     1       0.257   9.081  22.369  0.00  0.00    +0.000 A 
ATOM      9  C   UNL     1      -0.588  10.069  22.965  0.00  0.00    +0.000 A 
ATOM     10  C   UNL     1      -0.981  11.062  22.081  0.00  0.00    +0.000 A 
ATOM     11  S   UNL     1      -0.325  10.739  20.525  0.00  0.00    +0.000 S 
BRANCH  10  12
ATOM     12  C   UNL     1      -1.921  12.190  22.287  0.00  0.00    +0.000 A 
ATOM     13  C   UNL     1      -2.013  13.272  21.372  0.00  0.00    +0.000 A 
ATOM     14  C   UNL     1      -3.155  14.080  21.315  0.00  0.00    +0.000 A 
ATOM     15  C   UNL     1      -4.130  13.844  22.260  0.00  0.00    +0.000 A 
ATOM     16  C   UNL     1      -3.921  12.999  23.340  0.00  0.00    +0.000 A 
ATOM     17  C   UNL     1      -2.858  12.118  23.334  0.00  0.00    +0.000 A 
ATOM     18  C   UNL     1      -5.111  13.050  24.222  0.00  0.00    +0.000 C 
ATOM     19  N   UNL     1      -6.159  13.343  23.268  0.00  0.00    +0.000 N 
ATOM     20  C   UNL     1      -7.183  12.332  23.096  0.00  0.00    +0.000 C 
ATOM     21  C   UNL     1      -5.603  13.962  22.130  0.00  0.00    +0.000 C 
ATOM     22  O   UNL     1      -6.172  14.310  21.112  0.00  0.00    +0.000 OA
ENDBRANCH  10  12
ENDBRANCH   5   7
BRANCH   1  23
ATOM     23  N   UNL     1       3.612   5.622  19.894  0.00  0.00    +0.000 N 
ATOM     24  H   UNL     1       4.517   5.794  20.331  0.00  0.00    +0.000 HD
BRANCH  23  25
ATOM     25  S   UNL     1       3.617   4.221  18.965  0.00  0.00    +0.000 S 
ATOM     26  O   UNL     1       2.348   4.182  18.261  0.00  0.00    +0.000 OA
ATOM     27  O   UNL     1       3.999   3.138  19.850  0.00  0.00    +0.000 OA
BRANCH  25  33
ATOM     28  C   UNL     1       6.223   4.762  18.103  0.00  0.00    +0.000 A 
ATOM     29  C   UNL     1       7.200   4.789  17.092  0.00  0.00    +0.000 A 
ATOM     30  C   UNL     1       6.891   4.436  15.775  0.00  0.00    +0.000 A 
ATOM     31  C   UNL     1       5.595   4.066  15.444  0.00  0.00    +0.000 A 
ATOM     32  C   UNL     1       4.605   4.054  16.426  0.00  0.00    +0.000 A 
ATOM     33  C   UNL     1       4.913   4.402  17.752  0.00  0.00    +0.000 A 
BRANCH  28  35
ATOM     34  C   UNL     1       7.784   5.657  19.655  0.00  0.00    +0.000 C 
ATOM     35  O   UNL     1       6.488   5.108  19.403  0.00  0.00    +0.000 OA
ENDBRANCH  28  35
ENDBRANCH  25  33
ENDBRANCH  23  25
ENDBRANCH   1  23
TORSDOF 6
ENDMDL
MODEL 2
REMARK VINA RESULT:      -9.1      1.060      1.260
REMARK  Name = 
REMARK  8 active torsions:
REMARK  status: ('A' for Active; 'I' for Inactive)
REMARK    1  A    between atoms: C_1  and  O_2
REMARK    2  A    between atoms: O_2  and  C_3
REMARK    3  A    between atoms: C_8  and  S_9
REMARK    4  A    between atoms: S_9  and  N_12
REMARK    5  A    between atoms: N_12  and  C_13
REMARK    6  A    between atoms: C_17  and  C_18
REMARK    7  A    between atoms: C_21  and  C_22
REMARK    8  A    between atoms: N_29  and  C_30
REMARK                            x       y       z     vdW  Elec       q    Type
REMARK                         _______ _______ _______ _____ _____    ______ ____
ROOT
ATOM      1  C   UNL     1       2.734   7.081  19.375  0.00  0.00    +0.000 A 
ATOM      2  C   UNL     1       2.758   7.716  18.139  0.00  0.00    +0.000 A 
ATOM      3  N   UNL     1       2.037   8.816  17.844  0.00  0.00    +0.000 NA
ATOM      4  C   UNL     1       1.289   9.328  18.857  0.00  0.00    +0.000 A 
ATOM      5  C   UNL     1       1.215   8.795  20.146  0.00  0.00    +0.000 A 
ATOM      6  C   UNL     1       1.941   7.613  20.382  0.00  0.00    +0.000 A 
ENDROOT
BRANCH   5   7
ATOM      7  C   UNL     1       0.443   9.463  21.215  0.00  0.00    +0.000 A 
ATOM      8  C   UNL     1       0.124   9.025  22.485  0.00  0.00    +0.000 A 
ATOM      9  C   UNL     1      -0.625   9.987  23.235  0.00  0.00    +0.000 A 
ATOM     10  C   UNL     1      -0.858  11.163  22.541  0.00  0.00    +0.000 A 
ATOM     11  S   UNL     1      -0.176  11.048  20.967  0.00  0.00    +0.000 S 
BRANCH  10  12
ATOM     12  C   UNL     1      -1.668  12.344  22.931  0.00  0.00    +0.000 A 
ATOM     13  C   UNL     1      -1.076  13.603  23.215  0.00  0.00    +0.000 A 
ATOM     14  C   UNL     1      -1.821  14.786  23.149  0.00  0.00    +0.000 A 
ATOM     15  C   UNL     1      -3.172  14.658  22.905  0.00  0.00    +0.000 A 
ATOM     16  C   UNL     1      -3.811  13.426  22.927  0.00  0.00    +0.000 A 
ATOM     17  C   UNL     1      -3.071  12.262  22.871  0.00  0.00    +0.000 A 
ATOM     18  C   UNL     1      -5.265  13.641  22.741  0.00  0.00    +0.000 C 
ATOM     19  N   UNL     1      -5.274  14.847  21.942  0.00  0.00    +0.000 N 
ATOM     20  C   UNL     1      -5.818  14.736  20.604  0.00  0.00    +0.000 C 
ATOM     21  C   UNL     1      -4.071  15.556  22.142  0.00  0.00    +0.000 C 
ATOM     22  O   UNL     1      -3.711  16.588  21.606  0.00  0.00    +0.000 OA
ENDBRANCH  10  12
ENDBRANCH   5   7
BRANCH   1  23
ATOM     23  N   UNL     1       3.585   5.967  19.621  0.00  0.00    +0.000 N 
ATOM     24  H   UNL     1       4.546   6.150  19.909  0.00  0.00    +0.000 HD
BRANCH  23  25
ATOM     25  S   UNL     1       3.458   4.565  18.703  0.00  0.00    +0.000 S 
ATOM     26  O   UNL     1       2.226   4.674  17.942  0.00  0.00    +0.000 OA
ATOM     27  O   UNL     1       3.663   3.454  19.612  0.00  0.00    +0.000 OA
BRANCH  25  33
ATOM     28  C   UNL     1       6.155   4.672  17.966  0.00  0.00    +0.000 A 
ATOM     29  C   UNL     1       7.165   4.574  16.995  0.00  0.00    +0.000 A 
ATOM     30  C   UNL     1       6.859   4.346  15.650  0.00  0.00    +0.000 A 
ATOM     31  C   UNL     1       5.534   4.230  15.252  0.00  0.00    +0.000 A 
ATOM     32  C   UNL     1       4.515   4.347  16.196  0.00  0.00    +0.000 A 
ATOM     33  C   UNL     1       4.818   4.570  17.549  0.00  0.00    +0.000 A 
BRANCH  28  35
ATOM     34  C   UNL     1       7.547   5.732  19.574  0.00  0.00    +0.000 C 
ATOM     35  O   UNL     1       6.417   4.902  19.293  0.00  0.00    +0.000 OA
ENDBRANCH  28  35
ENDBRANCH  25  33
ENDBRANCH  23  25
ENDBRANCH   1  23
TORSDOF 6
ENDMDL
MODEL 3
REMARK VINA RESULT:      -9.0      2.741      4.152
REMARK  Name = 
REMARK  8 active torsions:
REMARK  status: ('A' for Active; 'I' for Inactive)
REMARK    1  A    between atoms: C_1  and  O_2
REMARK    2  A    between atoms: O_2  and  C_3
REMARK    3  A    between atoms: C_8  and  S_9
REMARK    4  A    between atoms: S_9  and  N_12
REMARK    5  A    between atoms: N_12  and  C_13
REMARK    6  A    between atoms: C_17  and  C_18
REMARK    7  A    between atoms: C_21  and  C_22
REMARK    8  A    between atoms: N_29  and  C_30
REMARK                            x       y       z     vdW  Elec       q    Type
REMARK                         _______ _______ _______ _____ _____    ______ ____
ROOT
ATOM      1  C   UNL     1       4.523   4.810  17.355  0.00  0.00    +0.000 A 
ATOM      2  C   UNL     1       5.363   5.493  16.485  0.00  0.00    +0.000 A 
ATOM      3  N   UNL     1       5.279   6.817  16.242  0.00  0.00    +0.000 NA
ATOM      4  C   UNL     1       4.331   7.492  16.943  0.00  0.00    +0.000 A 
ATOM      5  C   UNL     1       3.455   6.916  17.867  0.00  0.00    +0.000 A 
ATOM      6  C   UNL     1       3.547   5.523  18.038  0.00  0.00    +0.000 A 
ENDROOT
BRANCH   5   7
ATOM      7  C   UNL     1       2.509   7.738  18.651  0.00  0.00    +0.000 A 
ATOM      8  C   UNL     1       2.056   7.577  19.945  0.00  0.00    +0.000 A 
ATOM      9  C   UNL     1       1.156   8.611  20.354  0.00  0.00    +0.000 A 
ATOM     10  C   UNL     1       0.940   9.569  19.376  0.00  0.00    +0.000 A 
ATOM     11  S   UNL     1       1.828   9.158  17.962  0.00  0.00    +0.000 S 
BRANCH  10  12
ATOM     12  C   UNL     1       0.013  10.727  19.378  0.00  0.00    +0.000 A 
ATOM     13  C   UNL     1      -0.963  10.913  18.363  0.00  0.00    +0.000 A 
ATOM     14  C   UNL     1      -2.090  11.715  18.578  0.00  0.00    +0.000 A 
ATOM     15  C   UNL     1      -2.148  12.397  19.775  0.00  0.00    +0.000 A 
ATOM     16  C   UNL     1      -1.066  12.462  20.640  0.00  0.00    +0.000 A 
ATOM     17  C   UNL     1      -0.009  11.585  20.493  0.00  0.00    +0.000 A 
ATOM     18  C   UNL     1      -1.412  13.355  21.770  0.00  0.00    +0.000 C 
ATOM     19  N   UNL     1      -2.845  13.174  21.847  0.00  0.00    +0.000 N 
ATOM     20  C   UNL     1      -3.360  12.575  23.061  0.00  0.00    +0.000 C 
ATOM     21  C   UNL     1      -3.334  12.734  20.599  0.00  0.00    +0.000 C 
ATOM     22  O   UNL     1      -4.477  12.439  20.304  0.00  0.00    +0.000 OA
ENDBRANCH  10  12
ENDBRANCH   5   7
BRANCH   1  23
ATOM     23  N   UNL     1       4.731   3.424  17.608  0.00  0.00    +0.000 N 
ATOM     24  H   UNL     1       5.576   2.989  17.238  0.00  0.00    +0.000 HD
BRANCH  23  25
ATOM     25  S   UNL     1       3.438   2.352  17.652  0.00  0.00    +0.000 S 
ATOM     26  O   UNL     1       3.999   1.016  17.562  0.00  0.00    +0.000 OA
ATOM     27  O   UNL     1       2.482   2.815  16.664  0.00  0.00    +0.000 OA
BRANCH  25  33
ATOM     28  C   UNL     1       3.417   2.515  20.445  0.00  0.00    +0.000 A 
ATOM     29  C   UNL     1       2.741   2.746  21.655  0.00  0.00    +0.000 A 
ATOM     30  C   UNL     1       1.368   3.009  21.680  0.00  0.00    +0.000 A 
ATOM     31  C   UNL     1       0.646   3.026  20.494  0.00  0.00    +0.000 A 
ATOM     32  C   UNL     1       1.293   2.777  19.285  0.00  0.00    +0.000 A 
ATOM     33  C   UNL     1       2.673   2.519  19.255  0.00  0.00    +0.000 A 
BRANCH  28  35
ATOM     34  C   UNL     1       5.224   1.163  21.191  0.00  0.00    +0.000 C 
ATOM     35  O   UNL     1       4.761   2.248  20.383  0.00  0.00    +0.000 OA
ENDBRANCH  28  35
ENDBRANCH  25  33
ENDBRANCH  23  25
ENDBRANCH   1  23
TORSDOF 6
ENDMDL
MODEL 4
REMARK VINA RESULT:      -9.0      2.014      2.613
REMARK  Name = 
REMARK  8 active torsions:
REMARK  status: ('A' for Active; 'I' for Inactive)
REMARK    1  A    between atoms: C_1  and  O_2
REMARK    2  A    between atoms: O_2  and  C_3
REMARK    3  A    between atoms: C_8  and  S_9
REMARK    4  A    between atoms: S_9  and  N_12
REMARK    5  A    between atoms: N_12  and  C_13
REMARK    6  A    between atoms: C_17  and  C_18
REMARK    7  A    between atoms: C_21  and  C_22
REMARK    8  A    between atoms: N_29  and  C_30
REMARK                            x       y       z     vdW  Elec       q    Type
REMARK                         _______ _______ _______ _____ _____    ______ ____
ROOT
ATOM      1  C   UNL     1       2.874   6.667  19.461  0.00  0.00    +0.000 A 
ATOM      2  C   UNL     1       3.013   7.248  18.207  0.00  0.00    +0.000 A 
ATOM      3  N   UNL     1       2.368   8.368  17.821  0.00  0.00    +0.000 NA
ATOM      4  C   UNL     1       1.579   8.953  18.760  0.00  0.00    +0.000 A 
ATOM      5  C   UNL     1       1.392   8.477  20.060  0.00  0.00    +0.000 A 
ATOM      6  C   UNL     1       2.042   7.275  20.390  0.00  0.00    +0.000 A 
ENDROOT
BRANCH   5   7
ATOM      7  C   UNL     1       0.582   9.224  21.046  0.00  0.00    +0.000 A 
ATOM      8  C   UNL     1       0.121   8.838  22.290  0.00  0.00    +0.000 A 
ATOM      9  C   UNL     1      -0.615   9.867  22.956  0.00  0.00    +0.000 A 
ATOM     10  C   UNL     1      -0.698  11.043  22.227  0.00  0.00    +0.000 A 
ATOM     11  S   UNL     1       0.108  10.844  20.722  0.00  0.00    +0.000 S 
BRANCH  10  12
ATOM     12  C   UNL     1      -1.447  12.288  22.527  0.00  0.00    +0.000 A 
ATOM     13  C   UNL     1      -2.678  12.275  23.233  0.00  0.00    +0.000 A 
ATOM     14  C   UNL     1      -3.152  13.418  23.888  0.00  0.00    +0.000 A 
ATOM     15  C   UNL     1      -2.423  14.577  23.720  0.00  0.00    +0.000 A 
ATOM     16  C   UNL     1      -1.395  14.673  22.794  0.00  0.00    +0.000 A 
ATOM     17  C   UNL     1      -0.852  13.531  22.241  0.00  0.00    +0.000 A 
ATOM     18  C   UNL     1      -0.896  16.068  22.781  0.00  0.00    +0.000 C 
ATOM     19  N   UNL     1      -1.163  16.478  24.142  0.00  0.00    +0.000 N 
ATOM     20  C   UNL     1      -0.013  16.802  24.962  0.00  0.00    +0.000 C 
ATOM     21  C   UNL     1      -2.194  15.681  24.682  0.00  0.00    +0.000 C 
ATOM     22  O   UNL     1      -2.651  15.711  25.810  0.00  0.00    +0.000 OA
ENDBRANCH  10  12
ENDBRANCH   5   7
BRANCH   1  23
ATOM     23  N   UNL     1       3.652   5.525  19.808  0.00  0.00    +0.000 N 
ATOM     24  H   UNL     1       4.557   5.677  20.252  0.00  0.00    +0.000 HD
BRANCH  23  25
ATOM     25  S   UNL     1       3.648   4.152  18.839  0.00  0.00    +0.000 S 
ATOM     26  O   UNL     1       2.383   4.147  18.127  0.00  0.00    +0.000 OA
ATOM     27  O   UNL     1       4.012   3.040  19.695  0.00  0.00    +0.000 OA
BRANCH  25  33
ATOM     28  C   UNL     1       6.264   4.691  18.009  0.00  0.00    +0.000 A 
ATOM     29  C   UNL     1       7.247   4.737  17.006  0.00  0.00    +0.000 A 
ATOM     30  C   UNL     1       6.944   4.422  15.677  0.00  0.00    +0.000 A 
ATOM     31  C   UNL     1       5.647   4.073  15.328  0.00  0.00    +0.000 A 
ATOM     32  C   UNL     1       4.651   4.044  16.303  0.00  0.00    +0.000 A 
ATOM     33  C   UNL     1       4.953   4.353  17.640  0.00  0.00    +0.000 A 
BRANCH  28  35
ATOM     34  C   UNL     1       7.730   5.727  19.567  0.00  0.00    +0.000 C 
ATOM     35  O   UNL     1       6.523   5.000  19.319  0.00  0.00    +0.000 OA
ENDBRANCH  28  35
ENDBRANCH  25  33
ENDBRANCH  23  25
ENDBRANCH   1  23
TORSDOF 6
ENDMDL
MODEL 5
REMARK VINA RESULT:      -8.7      1.461      1.703
REMARK  Name = 
REMARK  8 active torsions:
REMARK  status: ('A' for Active; 'I' for Inactive)
REMARK    1  A    between atoms: C_1  and  O_2
REMARK    2  A    between atoms: O_2  and  C_3
REMARK    3  A    between atoms: C_8  and  S_9
REMARK    4  A    between atoms: S_9  and  N_12
REMARK    5  A    between atoms: N_12  and  C_13
REMARK    6  A    between atoms: C_17  and  C_18
REMARK    7  A    between atoms: C_21  and  C_22
REMARK    8  A    between atoms: N_29  and  C_30
REMARK                            x       y       z     vdW  Elec       q    Type
REMARK                         _______ _______ _______ _____ _____    ______ ____
ROOT
ATOM      1  C   UNL     1       2.913   6.916  19.072  0.00  0.00    +0.000 A 
ATOM      2  C   UNL     1       3.498   7.284  17.867  0.00  0.00    +0.000 A 
ATOM      3  N   UNL     1       3.125   8.363  17.149  0.00  0.00    +0.000 NA
ATOM      4  C   UNL     1       2.146   9.132  17.693  0.00  0.00    +0.000 A 
ATOM      5  C   UNL     1       1.512   8.877  18.911  0.00  0.00    +0.000 A 
ATOM      6  C   UNL     1       1.898   7.708  19.591  0.00  0.00    +0.000 A 
ENDROOT
BRANCH   5   7
ATOM      7  C   UNL     1       0.515   9.813  19.473  0.00  0.00    +0.000 A 
ATOM      8  C   UNL     1      -0.631  10.334  18.905  0.00  0.00    +0.000 A 
ATOM      9  C   UNL     1      -1.351  11.195  19.792  0.00  0.00    +0.000 A 
ATOM     10  C   UNL     1      -0.762  11.314  21.040  0.00  0.00    +0.000 A 
ATOM     11  S   UNL     1       0.683  10.386  21.085  0.00  0.00    +0.000 S 
BRANCH  10  12
ATOM     12  C   UNL     1      -1.144  12.178  22.185  0.00  0.00    +0.000 A 
ATOM     13  C   UNL     1      -0.437  13.369  22.499  0.00  0.00    +0.000 A 
ATOM     14  C   UNL     1      -1.028  14.383  23.262  0.00  0.00    +0.000 A 
ATOM     15  C   UNL     1      -2.278  14.123  23.781  0.00  0.00    +0.000 A 
ATOM     16  C   UNL     1      -2.846  12.858  23.735  0.00  0.00    +0.000 A 
ATOM     17  C   UNL     1      -2.330  11.897  22.889  0.00  0.00    +0.000 A 
ATOM     18  C   UNL     1      -4.132  12.887  24.471  0.00  0.00    +0.000 C 
ATOM     19  N   UNL     1      -4.540  14.260  24.277  0.00  0.00    +0.000 N 
ATOM     20  C   UNL     1      -5.758  14.476  23.522  0.00  0.00    +0.000 C 
ATOM     21  C   UNL     1      -3.409  15.056  24.002  0.00  0.00    +0.000 C 
ATOM     22  O   UNL     1      -3.373  16.245  23.745  0.00  0.00    +0.000 OA
ENDBRANCH  10  12
ENDBRANCH   5   7
BRANCH   1  23
ATOM     23  N   UNL     1       3.421   5.803  19.801  0.00  0.00    +0.000 N 
ATOM     24  H   UNL     1       4.166   5.969  20.477  0.00  0.00    +0.000 HD
BRANCH  23  25
ATOM     25  S   UNL     1       3.549   4.289  19.083  0.00  0.00    +0.000 S 
ATOM     26  O   UNL     1       2.316   4.069  18.348  0.00  0.00    +0.000 OA
ATOM     27  O   UNL     1       3.954   3.368  20.127  0.00  0.00    +0.000 OA
BRANCH  25  33
ATOM     28  C   UNL     1       6.190   4.734  18.275  0.00  0.00    +0.000 A 
ATOM     29  C   UNL     1       7.197   4.688  17.295  0.00  0.00    +0.000 A 
ATOM     30  C   UNL     1       6.921   4.270  15.989  0.00  0.00    +0.000 A 
ATOM     31  C   UNL     1       5.628   3.907  15.639  0.00  0.00    +0.000 A 
ATOM     32  C   UNL     1       4.609   3.966  16.589  0.00  0.00    +0.000 A 
ATOM     33  C   UNL     1       4.884   4.380  17.903  0.00  0.00    +0.000 A 
BRANCH  28  35
ATOM     34  C   UNL     1       7.724   5.676  19.826  0.00  0.00    +0.000 C 
ATOM     35  O   UNL     1       6.422   5.144  19.562  0.00  0.00    +0.000 OA
ENDBRANCH  28  35
ENDBRANCH  25  33
ENDBRANCH  23  25
ENDBRANCH   1  23
TORSDOF 6
ENDMDL
MODEL 6
REMARK VINA RESULT:      -8.5      3.154      4.845
REMARK  Name = 
REMARK  8 active torsions:
REMARK  status: ('A' for Active; 'I' for Inactive)
REMARK    1  A    between atoms: C_1  and  O_2
REMARK    2  A    between atoms: O_2  and  C_3
REMARK    3  A    between atoms: C_8  and  S_9
REMARK    4  A    between atoms: S_9  and  N_12
REMARK    5  A    between atoms: N_12  and  C_13
REMARK    6  A    between atoms: C_17  and  C_18
REMARK    7  A    between atoms: C_21  and  C_22
REMARK    8  A    between atoms: N_29  and  C_30
REMARK                            x       y       z     vdW  Elec       q    Type
REMARK                         _______ _______ _______ _____ _____    ______ ____
ROOT
ATOM      1  C   UNL     1       4.470   4.699  17.292  0.00  0.00    +0.000 A 
ATOM      2  C   UNL     1       5.249   5.412  16.390  0.00  0.00    +0.000 A 
ATOM      3  N   UNL     1       5.143   6.742  16.191  0.00  0.00    +0.000 NA
ATOM      4  C   UNL     1       4.239   7.390  16.970  0.00  0.00    +0.000 A 
ATOM      5  C   UNL     1       3.427   6.783  17.931  0.00  0.00    +0.000 A 
ATOM      6  C   UNL     1       3.537   5.386  18.057  0.00  0.00    +0.000 A 
ENDROOT
BRANCH   5   7
ATOM      7  C   UNL     1       2.530   7.577  18.797  0.00  0.00    +0.000 A 
ATOM      8  C   UNL     1       2.112   7.343  20.093  0.00  0.00    +0.000 A 
ATOM      9  C   UNL     1       1.255   8.372  20.596  0.00  0.00    +0.000 A 
ATOM     10  C   UNL     1       1.036   9.397  19.690  0.00  0.00    +0.000 A 
ATOM     11  S   UNL     1       1.867   9.056  18.225  0.00  0.00    +0.000 S 
BRANCH  10  12
ATOM     12  C   UNL     1       0.142  10.576  19.798  0.00  0.00    +0.000 A 
ATOM     13  C   UNL     1      -0.731  10.761  20.902  0.00  0.00    +0.000 A 
ATOM     14  C   UNL     1      -1.229  12.028  21.228  0.00  0.00    +0.000 A 
ATOM     15  C   UNL     1      -0.921  13.058  20.365  0.00  0.00    +0.000 A 
ATOM     16  C   UNL     1      -0.329  12.834  19.131  0.00  0.00    +0.000 A 
ATOM     17  C   UNL     1       0.268  11.618  18.861  0.00  0.00    +0.000 A 
ATOM     18  C   UNL     1      -0.236  14.122  18.406  0.00  0.00    +0.000 C 
ATOM     19  N   UNL     1      -0.121  15.058  19.503  0.00  0.00    +0.000 N 
ATOM     20  C   UNL     1       1.116  15.807  19.592  0.00  0.00    +0.000 C 
ATOM     21  C   UNL     1      -0.668  14.487  20.671  0.00  0.00    +0.000 C 
ATOM     22  O   UNL     1      -0.709  14.963  21.790  0.00  0.00    +0.000 OA
ENDBRANCH  10  12
ENDBRANCH   5   7
BRANCH   1  23
ATOM     23  N   UNL     1       4.701   3.308  17.491  0.00  0.00    +0.000 N 
ATOM     24  H   UNL     1       5.507   2.884  17.034  0.00  0.00    +0.000 HD
BRANCH  23  25
ATOM     25  S   UNL     1       3.417   2.233  17.631  0.00  0.00    +0.000 S 
ATOM     26  O   UNL     1       3.986   0.898  17.615  0.00  0.00    +0.000 OA
ATOM     27  O   UNL     1       2.438   2.625  16.636  0.00  0.00    +0.000 OA
BRANCH  25  33
ATOM     28  C   UNL     1       3.451   2.570  20.408  0.00  0.00    +0.000 A 
ATOM     29  C   UNL     1       2.798   2.874  21.614  0.00  0.00    +0.000 A 
ATOM     30  C   UNL     1       1.424   3.134  21.651  0.00  0.00    +0.000 A 
ATOM     31  C   UNL     1       0.679   3.076  20.481  0.00  0.00    +0.000 A 
ATOM     32  C   UNL     1       1.303   2.754  19.277  0.00  0.00    +0.000 A 
ATOM     33  C   UNL     1       2.683   2.498  19.235  0.00  0.00    +0.000 A 
BRANCH  28  35
ATOM     34  C   UNL     1       5.249   1.164  21.071  0.00  0.00    +0.000 C 
ATOM     35  O   UNL     1       4.794   2.303  20.336  0.00  0.00    +0.000 OA
ENDBRANCH  28  35
ENDBRANCH  25  33
ENDBRANCH  23  25
ENDBRANCH   1  23
TORSDOF 6
ENDMDL
MODEL 7
REMARK VINA RESULT:      -8.3      2.501     11.419
REMARK  Name = 
REMARK  8 active torsions:
REMARK  status: ('A' for Active; 'I' for Inactive)
REMARK    1  A    between atoms: C_1  and  O_2
REMARK    2  A    between atoms: O_2  and  C_3
REMARK    3  A    between atoms: C_8  and  S_9
REMARK    4  A    between atoms: S_9  and  N_12
REMARK    5  A    between atoms: N_12  and  C_13
REMARK    6  A    between atoms: C_17  and  C_18
REMARK    7  A    between atoms: C_21  and  C_22
REMARK    8  A    between atoms: N_29  and  C_30
REMARK                            x       y       z     vdW  Elec       q    Type
REMARK                         _______ _______ _______ _____ _____    ______ ____
ROOT
ATOM      1  C   UNL     1      -1.455  12.018  22.166  0.00  0.00    +0.000 A 
ATOM      2  C   UNL     1      -1.379  11.284  23.344  0.00  0.00    +0.000 A 
ATOM      3  N   UNL     1      -0.778  10.081  23.443  0.00  0.00    +0.000 NA
ATOM      4  C   UNL     1      -0.187   9.615  22.312  0.00  0.00    +0.000 A 
ATOM      5  C   UNL     1      -0.172  10.281  21.083  0.00  0.00    +0.000 A 
ATOM      6  C   UNL     1      -0.864  11.504  21.021  0.00  0.00    +0.000 A 
ENDROOT
BRANCH   5   7
ATOM      7  C   UNL     1       0.569   9.742  19.922  0.00  0.00    +0.000 A 
ATOM      8  C   UNL     1       0.701  10.246  18.643  0.00  0.00    +0.000 A 
ATOM      9  C   UNL     1       1.531   9.434  17.808  0.00  0.00    +0.000 A 
ATOM     10  C   UNL     1       2.045   8.323  18.457  0.00  0.00    +0.000 A 
ATOM     11  S   UNL     1       1.469   8.286  20.076  0.00  0.00    +0.000 S 
BRANCH  10  12
ATOM     12  C   UNL     1       2.854   7.205  17.915  0.00  0.00    +0.000 A 
ATOM     13  C   UNL     1       4.159   7.404  17.390  0.00  0.00    +0.000 A 
ATOM     14  C   UNL     1       5.071   6.346  17.293  0.00  0.00    +0.000 A 
ATOM     15  C   UNL     1       4.606   5.092  17.625  0.00  0.00    +0.000 A 
ATOM     16  C   UNL     1       3.260   4.839  17.846  0.00  0.00    +0.000 A 
ATOM     17  C   UNL     1       2.386   5.886  18.061  0.00  0.00    +0.000 A 
ATOM     18  C   UNL     1       3.079   3.386  18.069  0.00  0.00    +0.000 C 
ATOM     19  N   UNL     1       4.353   3.026  18.650  0.00  0.00    +0.000 N 
ATOM     20  C   UNL     1       4.331   2.539  20.015  0.00  0.00    +0.000 C 
ATOM     21  C   UNL     1       5.330   3.970  18.270  0.00  0.00    +0.000 C 
ATOM     22  O   UNL     1       6.500   4.014  18.603  0.00  0.00    +0.000 OA
ENDBRANCH  10  12
ENDBRANCH   5   7
BRANCH   1  23
ATOM     23  N   UNL     1      -2.045  13.314  22.170  0.00  0.00    +0.000 N 
ATOM     24  H   UNL     1      -2.477  13.644  23.033  0.00  0.00    +0.000 HD
BRANCH  23  25
ATOM     25  S   UNL     1      -2.825  13.909  20.806  0.00  0.00    +0.000 S 
ATOM     26  O   UNL     1      -1.921  13.714  19.688  0.00  0.00    +0.000 OA
ATOM     27  O   UNL     1      -3.296  15.239  21.145  0.00  0.00    +0.000 OA
BRANCH  25  33
ATOM     28  C   UNL     1      -5.268  12.737  21.503  0.00  0.00    +0.000 A 
ATOM     29  C   UNL     1      -6.408  11.986  21.168  0.00  0.00    +0.000 A 
ATOM     30  C   UNL     1      -6.560  11.427  19.895  0.00  0.00    +0.000 A 
ATOM     31  C   UNL     1      -5.565  11.596  18.942  0.00  0.00    +0.000 A 
ATOM     32  C   UNL     1      -4.415  12.318  19.261  0.00  0.00    +0.000 A 
ATOM     33  C   UNL     1      -4.262  12.886  20.536  0.00  0.00    +0.000 A 
BRANCH  28  35
ATOM     34  C   UNL     1      -6.034  12.929  23.745  0.00  0.00    +0.000 C 
ATOM     35  O   UNL     1      -5.082  13.294  22.742  0.00  0.00    +0.000 OA
ENDBRANCH  28  35
ENDBRANCH  25  33
ENDBRANCH  23  25
ENDBRANCH   1  23
TORSDOF 6
ENDMDL
MODEL 8
REMARK VINA RESULT:      -8.3      2.514     11.792
REMARK  Name = 
REMARK  8 active torsions:
REMARK  status: ('A' for Active; 'I' for Inactive)
REMARK    1  A    between atoms: C_1  and  O_2
REMARK    2  A    between atoms: O_2  and  C_3
REMARK    3  A    between atoms: C_8  and  S_9
REMARK    4  A    between atoms: S_9  and  N_12
REMARK    5  A    between atoms: N_12  and  C_13
REMARK    6  A    between atoms: C_17  and  C_18
REMARK    7  A    between atoms: C_21  and  C_22
REMARK    8  A    between atoms: N_29  and  C_30
REMARK                            x       y       z     vdW  Elec       q    Type
REMARK                         _______ _______ _______ _____ _____    ______ ____
ROOT
ATOM      1  C   UNL     1      -1.583  12.006  22.020  0.00  0.00    +0.000 A 
ATOM      2  C   UNL     1      -1.357  11.411  23.254  0.00  0.00    +0.000 A 
ATOM      3  N   UNL     1      -0.637  10.284  23.425  0.00  0.00    +0.000 NA
ATOM      4  C   UNL     1      -0.080   9.757  22.304  0.00  0.00    +0.000 A 
ATOM      5  C   UNL     1      -0.211  10.289  21.018  0.00  0.00    +0.000 A 
ATOM      6  C   UNL     1      -1.021  11.431  20.889  0.00  0.00    +0.000 A 
ENDROOT
BRANCH   5   7
ATOM      7  C   UNL     1       0.500   9.700  19.863  0.00  0.00    +0.000 A 
ATOM      8  C   UNL     1       0.564  10.125  18.551  0.00  0.00    +0.000 A 
ATOM      9  C   UNL     1       1.387   9.288  17.733  0.00  0.00    +0.000 A 
ATOM     10  C   UNL     1       1.962   8.236  18.428  0.00  0.00    +0.000 A 
ATOM     11  S   UNL     1       1.453   8.285  20.069  0.00  0.00    +0.000 S 
BRANCH  10  12
ATOM     12  C   UNL     1       2.786   7.111  17.923  0.00  0.00    +0.000 A 
ATOM     13  C   UNL     1       4.085   7.309  17.385  0.00  0.00    +0.000 A 
ATOM     14  C   UNL     1       5.012   6.262  17.322  0.00  0.00    +0.000 A 
ATOM     15  C   UNL     1       4.567   5.014  17.702  0.00  0.00    +0.000 A 
ATOM     16  C   UNL     1       3.226   4.750  17.939  0.00  0.00    +0.000 A 
ATOM     17  C   UNL     1       2.337   5.791  18.119  0.00  0.00    +0.000 A 
ATOM     18  C   UNL     1       3.067   3.303  18.215  0.00  0.00    +0.000 C 
ATOM     19  N   UNL     1       4.349   2.984  18.803  0.00  0.00    +0.000 N 
ATOM     20  C   UNL     1       4.340   2.546  20.184  0.00  0.00    +0.000 C 
ATOM     21  C   UNL     1       5.310   3.927  18.384  0.00  0.00    +0.000 C 
ATOM     22  O   UNL     1       6.480   4.000  18.710  0.00  0.00    +0.000 OA
ENDBRANCH  10  12
ENDBRANCH   5   7
BRANCH   1  23
ATOM     23  N   UNL     1      -2.294  13.237  21.941  0.00  0.00    +0.000 N 
ATOM     24  H   UNL     1      -1.757  14.104  21.919  0.00  0.00    +0.000 HD
BRANCH  23  25
ATOM     25  S   UNL     1      -3.770  13.431  22.721  0.00  0.00    +0.000 S 
ATOM     26  O   UNL     1      -3.559  14.399  23.782  0.00  0.00    +0.000 OA
ATOM     27  O   UNL     1      -4.254  12.099  23.029  0.00  0.00    +0.000 OA
BRANCH  25  33
ATOM     28  C   UNL     1      -5.135  13.571  20.282  0.00  0.00    +0.000 A 
ATOM     29  C   UNL     1      -6.108  14.154  19.453  0.00  0.00    +0.000 A 
ATOM     30  C   UNL     1      -6.850  15.262  19.874  0.00  0.00    +0.000 A 
ATOM     31  C   UNL     1      -6.617  15.815  21.126  0.00  0.00    +0.000 A 
ATOM     32  C   UNL     1      -5.640  15.266  21.955  0.00  0.00    +0.000 A 
ATOM     33  C   UNL     1      -4.897  14.149  21.539  0.00  0.00    +0.000 A 
BRANCH  28  35
ATOM     34  C   UNL     1      -4.708  11.916  18.631  0.00  0.00    +0.000 C 
ATOM     35  O   UNL     1      -4.384  12.488  19.900  0.00  0.00    +0.000 OA
ENDBRANCH  28  35
ENDBRANCH  25  33
ENDBRANCH  23  25
ENDBRANCH   1  23
TORSDOF 6
ENDMDL
MODEL 9
REMARK VINA RESULT:      -8.2      2.488     12.292
REMARK  Name = 
REMARK  8 active torsions:
REMARK  status: ('A' for Active; 'I' for Inactive)
REMARK    1  A    between atoms: C_1  and  O_2
REMARK    2  A    between atoms: O_2  and  C_3
REMARK    3  A    between atoms: C_8  and  S_9
REMARK    4  A    between atoms: S_9  and  N_12
REMARK    5  A    between atoms: N_12  and  C_13
REMARK    6  A    between atoms: C_17  and  C_18
REMARK    7  A    between atoms: C_21  and  C_22
REMARK    8  A    between atoms: N_29  and  C_30
REMARK                            x       y       z     vdW  Elec       q    Type
REMARK                         _______ _______ _______ _____ _____    ______ ____
ROOT
ATOM      1  C   UNL     1      -1.504  12.203  21.891  0.00  0.00    +0.000 A 
ATOM      2  C   UNL     1      -1.249  11.649  23.140  0.00  0.00    +0.000 A 
ATOM      3  N   UNL     1      -0.543  10.516  23.330  0.00  0.00    +0.000 NA
ATOM      4  C   UNL     1      -0.032   9.938  22.212  0.00  0.00    +0.000 A 
ATOM      5  C   UNL     1      -0.195  10.424  20.912  0.00  0.00    +0.000 A 
ATOM      6  C   UNL     1      -0.990  11.575  20.765  0.00  0.00    +0.000 A 
ENDROOT
BRANCH   5   7
ATOM      7  C   UNL     1       0.467   9.780  19.758  0.00  0.00    +0.000 A 
ATOM      8  C   UNL     1       0.416  10.098  18.415  0.00  0.00    +0.000 A 
ATOM      9  C   UNL     1       1.227   9.240  17.607  0.00  0.00    +0.000 A 
ATOM     10  C   UNL     1       1.909   8.281  18.339  0.00  0.00    +0.000 A 
ATOM     11  S   UNL     1       1.512   8.438  20.004  0.00  0.00    +0.000 S 
BRANCH  10  12
ATOM     12  C   UNL     1       2.759   7.162  17.865  0.00  0.00    +0.000 A 
ATOM     13  C   UNL     1       4.098   7.362  17.435  0.00  0.00    +0.000 A 
ATOM     14  C   UNL     1       5.018   6.307  17.411  0.00  0.00    +0.000 A 
ATOM     15  C   UNL     1       4.534   5.053  17.718  0.00  0.00    +0.000 A 
ATOM     16  C   UNL     1       3.177   4.797  17.842  0.00  0.00    +0.000 A 
ATOM     17  C   UNL     1       2.286   5.842  17.985  0.00  0.00    +0.000 A 
ATOM     18  C   UNL     1       2.984   3.345  18.061  0.00  0.00    +0.000 C 
ATOM     19  N   UNL     1       4.214   2.994  18.736  0.00  0.00    +0.000 N 
ATOM     20  C   UNL     1       4.094   2.516  20.099  0.00  0.00    +0.000 C 
ATOM     21  C   UNL     1       5.213   3.939  18.422  0.00  0.00    +0.000 C 
ATOM     22  O   UNL     1       6.355   3.989  18.838  0.00  0.00    +0.000 OA
ENDBRANCH  10  12
ENDBRANCH   5   7
BRANCH   1  23
ATOM     23  N   UNL     1      -2.197  13.443  21.789  0.00  0.00    +0.000 N 
ATOM     24  H   UNL     1      -1.758  14.273  22.186  0.00  0.00    +0.000 HD
BRANCH  23  25
ATOM     25  S   UNL     1      -3.873  13.505  21.892  0.00  0.00    +0.000 S 
ATOM     26  O   UNL     1      -4.298  12.277  22.539  0.00  0.00    +0.000 OA
ATOM     27  O   UNL     1      -4.358  13.842  20.567  0.00  0.00    +0.000 OA
BRANCH  25  33
ATOM     28  C   UNL     1      -5.604  15.164  23.334  0.00  0.00    +0.000 A 
ATOM     29  C   UNL     1      -5.823  16.195  24.263  0.00  0.00    +0.000 A 
ATOM     30  C   UNL     1      -4.757  16.887  24.845  0.00  0.00    +0.000 A 
ATOM     31  C   UNL     1      -3.452  16.570  24.492  0.00  0.00    +0.000 A 
ATOM     32  C   UNL     1      -3.212  15.566  23.555  0.00  0.00    +0.000 A 
ATOM     33  C   UNL     1      -4.281  14.865  22.973  0.00  0.00    +0.000 A 
BRANCH  28  35
ATOM     34  C   UNL     1      -7.916  15.081  22.792  0.00  0.00    +0.000 C 
ATOM     35  O   UNL     1      -6.625  14.469  22.738  0.00  0.00    +0.000 OA
ENDBRANCH  28  35
ENDBRANCH  25  33
ENDBRANCH  23  25
ENDBRANCH   1  23
TORSDOF 6
ENDMDL
