MODEL 1
REMARK VINA RESULT:      -6.3      0.000      0.000
REMARK  Name = 
REMARK  13 active torsions:
REMARK  status: ('A' for Active; 'I' for Inactive)
REMARK    1  A    between atoms: C_1  and  C_2
REMARK    2  A    between atoms: C_2  and  C_3
REMARK    3  A    between atoms: C_3  and  C_4
REMARK    4  A    between atoms: C_4  and  C_5
REMARK    5  A    between atoms: C_5  and  C_6
REMARK    6  A    between atoms: C_6  and  C_7
REMARK    7  A    between atoms: C_7  and  C_8
REMARK    8  A    between atoms: C_8  and  C_9
REMARK    9  A    between atoms: C_9  and  C_10
REMARK   10  A    between atoms: C_10  and  S_11
REMARK   11  A    between atoms: S_11  and  C_12
REMARK   12  A    between atoms: N_20  and  C_21
REMARK   13  A    between atoms: C_21  and  C_22
REMARK                            x       y       z     vdW  Elec       q    Type
REMARK                         _______ _______ _______ _____ _____    ______ ____
ROOT
ATOM      1  S   UNL     1       6.854   5.575  18.105  0.00  0.00    +0.000 S 
ENDROOT
BRANCH   1   2
ATOM      2  C   UNL     1       5.109   5.795  18.284  0.00  0.00    +0.000 A 
ATOM      3  N   UNL     1       4.514   6.926  17.834  0.00  0.00    +0.000 NA
ATOM      4  C   UNL     1       3.172   7.002  17.914  0.00  0.00    +0.000 A 
ATOM      5  N   UNL     1       2.309   6.085  18.396  0.00  0.00    +0.000 NA
ATOM      6  C   UNL     1       2.954   4.986  18.830  0.00  0.00    +0.000 A 
ATOM      7  C   UNL     1       4.327   4.762  18.821  0.00  0.00    +0.000 A 
ATOM      8  N   UNL     1       4.615   3.521  19.350  0.00  0.00    +0.000 NA
ATOM      9  C   UNL     1       3.449   2.997  19.661  0.00  0.00    +0.000 A 
ATOM     10  N   UNL     1       2.410   3.838  19.354  0.00  0.00    +0.000 N 
BRANCH  10  11
ATOM     11  C   UNL     1       1.014   3.565  19.624  0.00  0.00    +0.000 C 
ATOM     12  C   UNL     1       0.502   2.283  18.986  0.00  0.00    +0.000 C 
ENDBRANCH  10  11
ENDBRANCH   1   2
BRANCH   1  13
ATOM     13  C   UNL     1       6.906   4.401  16.712  0.00  0.00    +0.000 C 
BRANCH  13  14
ATOM     14  C   UNL     1       7.080   5.188  15.414  0.00  0.00    +0.000 C 
BRANCH  14  15
ATOM     15  C   UNL     1       6.208   4.630  14.290  0.00  0.00    +0.000 C 
BRANCH  15  16
ATOM     16  C   UNL     1       7.072   3.979  13.208  0.00  0.00    +0.000 C 
BRANCH  16  17
ATOM     17  C   UNL     1       6.233   3.584  11.996  0.00  0.00    +0.000 C 
BRANCH  17  18
ATOM     18  C   UNL     1       4.761   3.439  12.371  0.00  0.00    +0.000 C 
BRANCH  18  19
ATOM     19  C   UNL     1       3.934   2.995  11.168  0.00  0.00    +0.000 C 
BRANCH  19  20
ATOM     20  C   UNL     1       3.730   4.150  10.192  0.00  0.00    +0.000 C 
BRANCH  20  22
ATOM     21  C   UNL     1       2.126   5.254   8.609  0.00  0.00    +0.000 C 
ATOM     22  C   UNL     1       2.395   4.026   9.463  0.00  0.00    +0.000 C 
ENDBRANCH  20  22
ENDBRANCH  19  20
ENDBRANCH  18  19
ENDBRANCH  17  18
ENDBRANCH  16  17
ENDBRANCH  15  16
ENDBRANCH  14  15
ENDBRANCH  13  14
ENDBRANCH   1  13
TORSDOF 11
ENDMDL
MODEL 2
REMARK VINA RESULT:      -6.1      4.407      7.091
REMARK  Name = 
REMARK  13 active torsions:
REMARK  status: ('A' for Active; 'I' for Inactive)
REMARK    1  A    between atoms: C_1  and  C_2
REMARK    2  A    between atoms: C_2  and  C_3
REMARK    3  A    between atoms: C_3  and  C_4
REMARK    4  A    between atoms: C_4  and  C_5
REMARK    5  A    between atoms: C_5  and  C_6
REMARK    6  A    between atoms: C_6  and  C_7
REMARK    7  A    between atoms: C_7  and  C_8
REMARK    8  A    between atoms: C_8  and  C_9
REMARK    9  A    between atoms: C_9  and  C_10
REMARK   10  A    between atoms: C_10  and  S_11
REMARK   11  A    between atoms: S_11  and  C_12
REMARK   12  A    between atoms: N_20  and  C_21
REMARK   13  A    between atoms: C_21  and  C_22
REMARK                            x       y       z     vdW  Elec       q    Type
REMARK                         _______ _______ _______ _____ _____    ______ ____
ROOT
ATOM      1  S   UNL     1       5.581   5.479  16.237  0.00  0.00    +0.000 S 
ENDROOT
BRANCH   1   2
ATOM      2  C   UNL     1       4.439   5.823  17.541  0.00  0.00    +0.000 A 
ATOM      3  N   UNL     1       3.774   7.004  17.572  0.00  0.00    +0.000 NA
ATOM      4  C   UNL     1       2.851   7.178  18.536  0.00  0.00    +0.000 A 
ATOM      5  N   UNL     1       2.483   6.319  19.507  0.00  0.00    +0.000 NA
ATOM      6  C   UNL     1       3.175   5.166  19.429  0.00  0.00    +0.000 A 
ATOM      7  C   UNL     1       4.160   4.842  18.502  0.00  0.00    +0.000 A 
ATOM      8  N   UNL     1       4.645   3.573  18.742  0.00  0.00    +0.000 NA
ATOM      9  C   UNL     1       3.966   3.130  19.778  0.00  0.00    +0.000 A 
ATOM     10  N   UNL     1       3.054   4.053  20.225  0.00  0.00    +0.000 N 
BRANCH  10  11
ATOM     11  C   UNL     1       2.195   3.879  21.378  0.00  0.00    +0.000 C 
ATOM     12  C   UNL     1       1.140   2.797  21.203  0.00  0.00    +0.000 C 
ENDBRANCH  10  11
ENDBRANCH   1   2
BRANCH   1  13
ATOM     13  C   UNL     1       7.135   5.329  17.178  0.00  0.00    +0.000 C 
BRANCH  13  14
ATOM     14  C   UNL     1       7.334   6.600  18.002  0.00  0.00    +0.000 C 
BRANCH  14  15
ATOM     15  C   UNL     1       7.785   7.775  17.135  0.00  0.00    +0.000 C 
BRANCH  15  16
ATOM     16  C   UNL     1       7.768   9.076  17.938  0.00  0.00    +0.000 C 
BRANCH  16  17
ATOM     17  C   UNL     1       9.060   9.254  18.730  0.00  0.00    +0.000 C 
BRANCH  17  18
ATOM     18  C   UNL     1       9.216  10.694  19.209  0.00  0.00    +0.000 C 
BRANCH  18  19
ATOM     19  C   UNL     1       9.888  11.554  18.141  0.00  0.00    +0.000 C 
BRANCH  19  20
ATOM     20  C   UNL     1      11.393  11.638  18.378  0.00  0.00    +0.000 C 
BRANCH  20  22
ATOM     21  C   UNL     1      11.630  13.309  16.521  0.00  0.00    +0.000 C 
ATOM     22  C   UNL     1      11.937  13.007  17.979  0.00  0.00    +0.000 C 
ENDBRANCH  20  22
ENDBRANCH  19  20
ENDBRANCH  18  19
ENDBRANCH  17  18
ENDBRANCH  16  17
ENDBRANCH  15  16
ENDBRANCH  14  15
ENDBRANCH  13  14
ENDBRANCH   1  13
TORSDOF 11
ENDMDL
MODEL 3
REMARK VINA RESULT:      -6.1      2.969      7.070
REMARK  Name = 
REMARK  13 active torsions:
REMARK  status: ('A' for Active; 'I' for Inactive)
REMARK    1  A    between atoms: C_1  and  C_2
REMARK    2  A    between atoms: C_2  and  C_3
REMARK    3  A    between atoms: C_3  and  C_4
REMARK    4  A    between atoms: C_4  and  C_5
REMARK    5  A    between atoms: C_5  and  C_6
REMARK    6  A    between atoms: C_6  and  C_7
REMARK    7  A    between atoms: C_7  and  C_8
REMARK    8  A    between atoms: C_8  and  C_9
REMARK    9  A    between atoms: C_9  and  C_10
REMARK   10  A    between atoms: C_10  and  S_11
REMARK   11  A    between atoms: S_11  and  C_12
REMARK   12  A    between atoms: N_20  and  C_21
REMARK   13  A    between atoms: C_21  and  C_22
REMARK                            x       y       z     vdW  Elec       q    Type
REMARK                         _______ _______ _______ _____ _____    ______ ____
ROOT
ATOM      1  S   UNL     1       4.957   3.752  18.909  0.00  0.00    +0.000 S 
ENDROOT
BRANCH   1   2
ATOM      2  C   UNL     1       5.897   4.837  17.877  0.00  0.00    +0.000 A 
ATOM      3  N   UNL     1       6.485   5.939  18.403  0.00  0.00    +0.000 NA
ATOM      4  C   UNL     1       7.263   6.681  17.593  0.00  0.00    +0.000 A 
ATOM      5  N   UNL     1       7.548   6.478  16.290  0.00  0.00    +0.000 NA
ATOM      6  C   UNL     1       6.937   5.374  15.822  0.00  0.00    +0.000 A 
ATOM      7  C   UNL     1       6.102   4.515  16.529  0.00  0.00    +0.000 A 
ATOM      8  N   UNL     1       5.661   3.494  15.712  0.00  0.00    +0.000 NA
ATOM      9  C   UNL     1       6.221   3.717  14.542  0.00  0.00    +0.000 A 
ATOM     10  N   UNL     1       7.014   4.836  14.559  0.00  0.00    +0.000 N 
BRANCH  10  11
ATOM     11  C   UNL     1       7.723   5.369  13.414  0.00  0.00    +0.000 C 
ATOM     12  C   UNL     1       7.386   4.673  12.104  0.00  0.00    +0.000 C 
ENDBRANCH  10  11
ENDBRANCH   1   2
BRANCH   1  13
ATOM     13  C   UNL     1       3.637   3.248  17.756  0.00  0.00    +0.000 C 
BRANCH  13  14
ATOM     14  C   UNL     1       3.088   1.894  18.202  0.00  0.00    +0.000 C 
BRANCH  14  15
ATOM     15  C   UNL     1       2.016   2.042  19.281  0.00  0.00    +0.000 C 
BRANCH  15  16
ATOM     16  C   UNL     1       1.302   3.388  19.152  0.00  0.00    +0.000 C 
BRANCH  16  17
ATOM     17  C   UNL     1       0.995   3.983  20.523  0.00  0.00    +0.000 C 
BRANCH  17  18
ATOM     18  C   UNL     1       1.877   5.197  20.803  0.00  0.00    +0.000 C 
BRANCH  18  19
ATOM     19  C   UNL     1       2.171   5.965  19.517  0.00  0.00    +0.000 C 
BRANCH  19  20
ATOM     20  C   UNL     1       2.112   7.471  19.756  0.00  0.00    +0.000 C 
BRANCH  20  22
ATOM     21  C   UNL     1       3.326   7.666  17.569  0.00  0.00    +0.000 C 
ATOM     22  C   UNL     1       2.224   8.241  18.444  0.00  0.00    +0.000 C 
ENDBRANCH  20  22
ENDBRANCH  19  20
ENDBRANCH  18  19
ENDBRANCH  17  18
ENDBRANCH  16  17
ENDBRANCH  15  16
ENDBRANCH  14  15
ENDBRANCH  13  14
ENDBRANCH   1  13
TORSDOF 11
ENDMDL
MODEL 4
REMARK VINA RESULT:      -6.1      4.529      7.522
REMARK  Name = 
REMARK  13 active torsions:
REMARK  status: ('A' for Active; 'I' for Inactive)
REMARK    1  A    between atoms: C_1  and  C_2
REMARK    2  A    between atoms: C_2  and  C_3
REMARK    3  A    between atoms: C_3  and  C_4
REMARK    4  A    between atoms: C_4  and  C_5
REMARK    5  A    between atoms: C_5  and  C_6
REMARK    6  A    between atoms: C_6  and  C_7
REMARK    7  A    between atoms: C_7  and  C_8
REMARK    8  A    between atoms: C_8  and  C_9
REMARK    9  A    between atoms: C_9  and  C_10
REMARK   10  A    between atoms: C_10  and  S_11
REMARK   11  A    between atoms: S_11  and  C_12
REMARK   12  A    between atoms: N_20  and  C_21
REMARK   13  A    between atoms: C_21  and  C_22
REMARK                            x       y       z     vdW  Elec       q    Type
REMARK                         _______ _______ _______ _____ _____    ______ ____
ROOT
ATOM      1  S   UNL     1       6.771   5.363  17.537  0.00  0.00    +0.000 S 
ENDROOT
BRANCH   1   2
ATOM      2  C   UNL     1       5.082   5.427  18.055  0.00  0.00    +0.000 A 
ATOM      3  N   UNL     1       4.283   6.445  17.652  0.00  0.00    +0.000 NA
ATOM      4  C   UNL     1       2.984   6.398  18.001  0.00  0.00    +0.000 A 
ATOM      5  N   UNL     1       2.344   5.453  18.719  0.00  0.00    +0.000 NA
ATOM      6  C   UNL     1       3.185   4.469  19.093  0.00  0.00    +0.000 A 
ATOM      7  C   UNL     1       4.546   4.382  18.819  0.00  0.00    +0.000 A 
ATOM      8  N   UNL     1       5.073   3.233  19.370  0.00  0.00    +0.000 NA
ATOM      9  C   UNL     1       4.060   2.630  19.955  0.00  0.00    +0.000 A 
ATOM     10  N   UNL     1       2.891   3.331  19.805  0.00  0.00    +0.000 N 
BRANCH  10  11
ATOM     11  C   UNL     1       1.616   2.951  20.377  0.00  0.00    +0.000 C 
ATOM     12  C   UNL     1       0.607   2.451  19.355  0.00  0.00    +0.000 C 
ENDBRANCH  10  11
ENDBRANCH   1   2
BRANCH   1  13
ATOM     13  C   UNL     1       7.616   5.844  19.079  0.00  0.00    +0.000 C 
BRANCH  13  14
ATOM     14  C   UNL     1       8.342   7.169  18.847  0.00  0.00    +0.000 C 
BRANCH  14  15
ATOM     15  C   UNL     1       7.755   7.940  17.665  0.00  0.00    +0.000 C 
BRANCH  15  16
ATOM     16  C   UNL     1       8.134   9.419  17.743  0.00  0.00    +0.000 C 
BRANCH  16  17
ATOM     17  C   UNL     1       8.970   9.709  18.987  0.00  0.00    +0.000 C 
BRANCH  17  18
ATOM     18  C   UNL     1       9.965  10.837  18.727  0.00  0.00    +0.000 C 
BRANCH  18  19
ATOM     19  C   UNL     1       9.241  12.121  18.329  0.00  0.00    +0.000 C 
BRANCH  19  20
ATOM     20  C   UNL     1       9.784  13.316  19.109  0.00  0.00    +0.000 C 
BRANCH  20  22
ATOM     21  C   UNL     1       9.764  13.533  21.608  0.00  0.00    +0.000 C 
ATOM     22  C   UNL     1      10.434  12.871  20.415  0.00  0.00    +0.000 C 
ENDBRANCH  20  22
ENDBRANCH  19  20
ENDBRANCH  18  19
ENDBRANCH  17  18
ENDBRANCH  16  17
ENDBRANCH  15  16
ENDBRANCH  14  15
ENDBRANCH  13  14
ENDBRANCH   1  13
TORSDOF 11
ENDMDL
MODEL 5
REMARK VINA RESULT:      -6.0      3.484      7.041
REMARK  Name = 
REMARK  13 active torsions:
REMARK  status: ('A' for Active; 'I' for Inactive)
REMARK    1  A    between atoms: C_1  and  C_2
REMARK    2  A    between atoms: C_2  and  C_3
REMARK    3  A    between atoms: C_3  and  C_4
REMARK    4  A    between atoms: C_4  and  C_5
REMARK    5  A    between atoms: C_5  and  C_6
REMARK    6  A    between atoms: C_6  and  C_7
REMARK    7  A    between atoms: C_7  and  C_8
REMARK    8  A    between atoms: C_8  and  C_9
REMARK    9  A    between atoms: C_9  and  C_10
REMARK   10  A    between atoms: C_10  and  S_11
REMARK   11  A    between atoms: S_11  and  C_12
REMARK   12  A    between atoms: N_20  and  C_21
REMARK   13  A    between atoms: C_21  and  C_22
REMARK                            x       y       z     vdW  Elec       q    Type
REMARK                         _______ _______ _______ _____ _____    ______ ____
ROOT
ATOM      1  S   UNL     1       3.798   2.656  17.426  0.00  0.00    +0.000 S 
ENDROOT
BRANCH   1   2
ATOM      2  C   UNL     1       4.970   3.856  16.870  0.00  0.00    +0.000 A 
ATOM      3  N   UNL     1       5.092   4.130  15.548  0.00  0.00    +0.000 NA
ATOM      4  C   UNL     1       5.935   5.115  15.187  0.00  0.00    +0.000 A 
ATOM      5  N   UNL     1       6.702   5.892  15.978  0.00  0.00    +0.000 NA
ATOM      6  C   UNL     1       6.543   5.575  17.278  0.00  0.00    +0.000 A 
ATOM      7  C   UNL     1       5.721   4.584  17.803  0.00  0.00    +0.000 A 
ATOM      8  N   UNL     1       5.826   4.553  19.178  0.00  0.00    +0.000 NA
ATOM      9  C   UNL     1       6.679   5.507  19.484  0.00  0.00    +0.000 A 
ATOM     10  N   UNL     1       7.133   6.165  18.370  0.00  0.00    +0.000 N 
BRANCH  10  11
ATOM     11  C   UNL     1       8.117   7.228  18.377  0.00  0.00    +0.000 C 
ATOM     12  C   UNL     1       7.675   8.480  17.634  0.00  0.00    +0.000 C 
ENDBRANCH  10  11
ENDBRANCH   1   2
BRANCH   1  13
ATOM     13  C   UNL     1       2.383   3.730  17.837  0.00  0.00    +0.000 C 
BRANCH  13  14
ATOM     14  C   UNL     1       1.281   2.872  18.456  0.00  0.00    +0.000 C 
BRANCH  14  15
ATOM     15  C   UNL     1       1.606   2.479  19.896  0.00  0.00    +0.000 C 
BRANCH  15  16
ATOM     16  C   UNL     1       1.247   3.610  20.860  0.00  0.00    +0.000 C 
BRANCH  16  17
ATOM     17  C   UNL     1       2.153   4.821  20.652  0.00  0.00    +0.000 C 
BRANCH  17  18
ATOM     18  C   UNL     1       1.339   6.110  20.587  0.00  0.00    +0.000 C 
BRANCH  18  19
ATOM     19  C   UNL     1       2.204   7.277  20.117  0.00  0.00    +0.000 C 
BRANCH  19  20
ATOM     20  C   UNL     1       2.375   7.251  18.601  0.00  0.00    +0.000 C 
BRANCH  20  22
ATOM     21  C   UNL     1       1.281   9.438  18.041  0.00  0.00    +0.000 C 
ATOM     22  C   UNL     1       2.585   8.657  18.047  0.00  0.00    +0.000 C 
ENDBRANCH  20  22
ENDBRANCH  19  20
ENDBRANCH  18  19
ENDBRANCH  17  18
ENDBRANCH  16  17
ENDBRANCH  15  16
ENDBRANCH  14  15
ENDBRANCH  13  14
ENDBRANCH   1  13
TORSDOF 11
ENDMDL
MODEL 6
REMARK VINA RESULT:      -5.8      6.283      8.698
REMARK  Name = 
REMARK  13 active torsions:
REMARK  status: ('A' for Active; 'I' for Inactive)
REMARK    1  A    between atoms: C_1  and  C_2
REMARK    2  A    between atoms: C_2  and  C_3
REMARK    3  A    between atoms: C_3  and  C_4
REMARK    4  A    between atoms: C_4  and  C_5
REMARK    5  A    between atoms: C_5  and  C_6
REMARK    6  A    between atoms: C_6  and  C_7
REMARK    7  A    between atoms: C_7  and  C_8
REMARK    8  A    between atoms: C_8  and  C_9
REMARK    9  A    between atoms: C_9  and  C_10
REMARK   10  A    between atoms: C_10  and  S_11
REMARK   11  A    between atoms: S_11  and  C_12
REMARK   12  A    between atoms: N_20  and  C_21
REMARK   13  A    between atoms: C_21  and  C_22
REMARK                            x       y       z     vdW  Elec       q    Type
REMARK                         _______ _______ _______ _____ _____    ______ ____
ROOT
ATOM      1  S   UNL     1       7.993   6.895  18.446  0.00  0.00    +0.000 S 
ENDROOT
BRANCH   1   2
ATOM      2  C   UNL     1       6.899   6.017  17.370  0.00  0.00    +0.000 A 
ATOM      3  N   UNL     1       7.229   5.825  16.070  0.00  0.00    +0.000 NA
ATOM      4  C   UNL     1       6.404   5.073  15.318  0.00  0.00    +0.000 A 
ATOM      5  N   UNL     1       5.257   4.466  15.686  0.00  0.00    +0.000 NA
ATOM      6  C   UNL     1       4.979   4.691  16.984  0.00  0.00    +0.000 A 
ATOM      7  C   UNL     1       5.725   5.448  17.882  0.00  0.00    +0.000 A 
ATOM      8  N   UNL     1       5.122   5.453  19.122  0.00  0.00    +0.000 NA
ATOM      9  C   UNL     1       4.044   4.710  18.989  0.00  0.00    +0.000 A 
ATOM     10  N   UNL     1       3.918   4.214  17.716  0.00  0.00    +0.000 N 
BRANCH  10  11
ATOM     11  C   UNL     1       2.812   3.406  17.246  0.00  0.00    +0.000 C 
ATOM     12  C   UNL     1       2.727   2.037  17.902  0.00  0.00    +0.000 C 
ENDBRANCH  10  11
ENDBRANCH   1   2
BRANCH   1  13
ATOM     13  C   UNL     1       7.907   8.567  17.725  0.00  0.00    +0.000 C 
BRANCH  13  14
ATOM     14  C   UNL     1       8.736   9.516  18.589  0.00  0.00    +0.000 C 
BRANCH  14  15
ATOM     15  C   UNL     1       8.738  10.938  18.031  0.00  0.00    +0.000 C 
BRANCH  15  16
ATOM     16  C   UNL     1       9.884  11.753  18.633  0.00  0.00    +0.000 C 
BRANCH  16  17
ATOM     17  C   UNL     1      11.176  11.554  17.844  0.00  0.00    +0.000 C 
BRANCH  17  18
ATOM     18  C   UNL     1      11.937  12.869  17.699  0.00  0.00    +0.000 C 
BRANCH  18  19
ATOM     19  C   UNL     1      11.941  13.644  19.014  0.00  0.00    +0.000 C 
BRANCH  19  20
ATOM     20  C   UNL     1      11.436  15.069  18.807  0.00  0.00    +0.000 C 
BRANCH  20  22
ATOM     21  C   UNL     1      11.205  16.969  17.184  0.00  0.00    +0.000 C 
ATOM     22  C   UNL     1      11.698  15.545  17.381  0.00  0.00    +0.000 C 
ENDBRANCH  20  22
ENDBRANCH  19  20
ENDBRANCH  18  19
ENDBRANCH  17  18
ENDBRANCH  16  17
ENDBRANCH  15  16
ENDBRANCH  14  15
ENDBRANCH  13  14
ENDBRANCH   1  13
TORSDOF 11
ENDMDL
MODEL 7
REMARK VINA RESULT:      -5.8      4.791      7.447
REMARK  Name = 
REMARK  13 active torsions:
REMARK  status: ('A' for Active; 'I' for Inactive)
REMARK    1  A    between atoms: C_1  and  C_2
REMARK    2  A    between atoms: C_2  and  C_3
REMARK    3  A    between atoms: C_3  and  C_4
REMARK    4  A    between atoms: C_4  and  C_5
REMARK    5  A    between atoms: C_5  and  C_6
REMARK    6  A    between atoms: C_6  and  C_7
REMARK    7  A    between atoms: C_7  and  C_8
REMARK    8  A    between atoms: C_8  and  C_9
REMARK    9  A    between atoms: C_9  and  C_10
REMARK   10  A    between atoms: C_10  and  S_11
REMARK   11  A    between atoms: S_11  and  C_12
REMARK   12  A    between atoms: N_20  and  C_21
REMARK   13  A    between atoms: C_21  and  C_22
REMARK                            x       y       z     vdW  Elec       q    Type
REMARK                         _______ _______ _______ _____ _____    ______ ____
ROOT
ATOM      1  S   UNL     1       5.775   6.116  17.054  0.00  0.00    +0.000 S 
ENDROOT
BRANCH   1   2
ATOM      2  C   UNL     1       4.613   4.857  17.484  0.00  0.00    +0.000 A 
ATOM      3  N   UNL     1       4.687   3.633  16.906  0.00  0.00    +0.000 NA
ATOM      4  C   UNL     1       3.835   2.684  17.336  0.00  0.00    +0.000 A 
ATOM      5  N   UNL     1       2.886   2.780  18.289  0.00  0.00    +0.000 NA
ATOM      6  C   UNL     1       2.856   4.015  18.826  0.00  0.00    +0.000 A 
ATOM      7  C   UNL     1       3.662   5.097  18.485  0.00  0.00    +0.000 A 
ATOM      8  N   UNL     1       3.336   6.197  19.250  0.00  0.00    +0.000 NA
ATOM      9  C   UNL     1       2.367   5.795  20.045  0.00  0.00    +0.000 A 
ATOM     10  N   UNL     1       2.048   4.477  19.837  0.00  0.00    +0.000 N 
BRANCH  10  11
ATOM     11  C   UNL     1       0.991   3.761  20.521  0.00  0.00    +0.000 C 
ATOM     12  C   UNL     1       1.487   2.824  21.611  0.00  0.00    +0.000 C 
ENDBRANCH  10  11
ENDBRANCH   1   2
BRANCH   1  13
ATOM     13  C   UNL     1       6.929   6.009  18.462  0.00  0.00    +0.000 C 
BRANCH  13  14
ATOM     14  C   UNL     1       7.987   7.100  18.312  0.00  0.00    +0.000 C 
BRANCH  14  15
ATOM     15  C   UNL     1       7.426   8.349  17.634  0.00  0.00    +0.000 C 
BRANCH  15  16
ATOM     16  C   UNL     1       8.411   9.513  17.744  0.00  0.00    +0.000 C 
BRANCH  16  17
ATOM     17  C   UNL     1       8.999   9.607  19.149  0.00  0.00    +0.000 C 
BRANCH  17  18
ATOM     18  C   UNL     1       9.871  10.850  19.296  0.00  0.00    +0.000 C 
BRANCH  18  19
ATOM     19  C   UNL     1       9.835  11.694  18.024  0.00  0.00    +0.000 C 
BRANCH  19  20
ATOM     20  C   UNL     1       9.440  13.135  18.338  0.00  0.00    +0.000 C 
BRANCH  20  22
ATOM     21  C   UNL     1       9.888  15.519  17.698  0.00  0.00    +0.000 C 
ATOM     22  C   UNL     1      10.472  14.119  17.794  0.00  0.00    +0.000 C 
ENDBRANCH  20  22
ENDBRANCH  19  20
ENDBRANCH  18  19
ENDBRANCH  17  18
ENDBRANCH  16  17
ENDBRANCH  15  16
ENDBRANCH  14  15
ENDBRANCH  13  14
ENDBRANCH   1  13
TORSDOF 11
ENDMDL
MODEL 8
REMARK VINA RESULT:      -5.8      4.981      7.566
REMARK  Name = 
REMARK  13 active torsions:
REMARK  status: ('A' for Active; 'I' for Inactive)
REMARK    1  A    between atoms: C_1  and  C_2
REMARK    2  A    between atoms: C_2  and  C_3
REMARK    3  A    between atoms: C_3  and  C_4
REMARK    4  A    between atoms: C_4  and  C_5
REMARK    5  A    between atoms: C_5  and  C_6
REMARK    6  A    between atoms: C_6  and  C_7
REMARK    7  A    between atoms: C_7  and  C_8
REMARK    8  A    between atoms: C_8  and  C_9
REMARK    9  A    between atoms: C_9  and  C_10
REMARK   10  A    between atoms: C_10  and  S_11
REMARK   11  A    between atoms: S_11  and  C_12
REMARK   12  A    between atoms: N_20  and  C_21
REMARK   13  A    between atoms: C_21  and  C_22
REMARK                            x       y       z     vdW  Elec       q    Type
REMARK                         _______ _______ _______ _____ _____    ______ ____
ROOT
ATOM      1  S   UNL     1       7.289   5.052  18.109  0.00  0.00    +0.000 S 
ENDROOT
BRANCH   1   2
ATOM      2  C   UNL     1       5.543   5.198  18.335  0.00  0.00    +0.000 A 
ATOM      3  N   UNL     1       4.874   6.258  17.819  0.00  0.00    +0.000 NA
ATOM      4  C   UNL     1       3.533   6.274  17.943  0.00  0.00    +0.000 A 
ATOM      5  N   UNL     1       2.736   5.357  18.528  0.00  0.00    +0.000 NA
ATOM      6  C   UNL     1       3.452   4.330  19.023  0.00  0.00    +0.000 A 
ATOM      7  C   UNL     1       4.834   4.175  18.981  0.00  0.00    +0.000 A 
ATOM      8  N   UNL     1       5.204   2.997  19.595  0.00  0.00    +0.000 NA
ATOM      9  C   UNL     1       4.078   2.442  19.991  0.00  0.00    +0.000 A 
ATOM     10  N   UNL     1       2.987   3.203  19.657  0.00  0.00    +0.000 N 
BRANCH  10  11
ATOM     11  C   UNL     1       1.616   2.884  20.000  0.00  0.00    +0.000 C 
ATOM     12  C   UNL     1       0.801   2.341  18.836  0.00  0.00    +0.000 C 
ENDBRANCH  10  11
ENDBRANCH   1   2
BRANCH   1  13
ATOM     13  C   UNL     1       7.830   6.737  18.548  0.00  0.00    +0.000 C 
BRANCH  13  14
ATOM     14  C   UNL     1       7.549   7.665  17.368  0.00  0.00    +0.000 C 
BRANCH  14  15
ATOM     15  C   UNL     1       8.027   9.091  17.639  0.00  0.00    +0.000 C 
BRANCH  15  16
ATOM     16  C   UNL     1       8.907   9.137  18.889  0.00  0.00    +0.000 C 
BRANCH  16  17
ATOM     17  C   UNL     1       9.280  10.573  19.248  0.00  0.00    +0.000 C 
BRANCH  17  18
ATOM     18  C   UNL     1      10.420  11.079  18.369  0.00  0.00    +0.000 C 
BRANCH  18  19
ATOM     19  C   UNL     1      10.018  12.358  17.638  0.00  0.00    +0.000 C 
BRANCH  19  20
ATOM     20  C   UNL     1      10.521  13.591  18.384  0.00  0.00    +0.000 C 
BRANCH  20  22
ATOM     21  C   UNL     1       9.954  15.934  19.078  0.00  0.00    +0.000 C 
ATOM     22  C   UNL     1       9.400  14.606  18.588  0.00  0.00    +0.000 C 
ENDBRANCH  20  22
ENDBRANCH  19  20
ENDBRANCH  18  19
ENDBRANCH  17  18
ENDBRANCH  16  17
ENDBRANCH  15  16
ENDBRANCH  14  15
ENDBRANCH  13  14
ENDBRANCH   1  13
TORSDOF 11
ENDMDL
MODEL 9
REMARK VINA RESULT:      -5.8      5.062      7.832
REMARK  Name = 
REMARK  13 active torsions:
REMARK  status: ('A' for Active; 'I' for Inactive)
REMARK    1  A    between atoms: C_1  and  C_2
REMARK    2  A    between atoms: C_2  and  C_3
REMARK    3  A    between atoms: C_3  and  C_4
REMARK    4  A    between atoms: C_4  and  C_5
REMARK    5  A    between atoms: C_5  and  C_6
REMARK    6  A    between atoms: C_6  and  C_7
REMARK    7  A    between atoms: C_7  and  C_8
REMARK    8  A    between atoms: C_8  and  C_9
REMARK    9  A    between atoms: C_9  and  C_10
REMARK   10  A    between atoms: C_10  and  S_11
REMARK   11  A    between atoms: S_11  and  C_12
REMARK   12  A    between atoms: N_20  and  C_21
REMARK   13  A    between atoms: C_21  and  C_22
REMARK                            x       y       z     vdW  Elec       q    Type
REMARK                         _______ _______ _______ _____ _____    ______ ____
ROOT
ATOM      1  S   UNL     1       6.829   5.930  17.676  0.00  0.00    +0.000 S 
ENDROOT
BRANCH   1   2
ATOM      2  C   UNL     1       5.108   5.753  18.033  0.00  0.00    +0.000 A 
ATOM      3  N   UNL     1       4.229   6.711  17.650  0.00  0.00    +0.000 NA
ATOM      4  C   UNL     1       2.920   6.484  17.866  0.00  0.00    +0.000 A 
ATOM      5  N   UNL     1       2.340   5.405  18.430  0.00  0.00    +0.000 NA
ATOM      6  C   UNL     1       3.258   4.489  18.793  0.00  0.00    +0.000 A 
ATOM      7  C   UNL     1       4.638   4.581  18.643  0.00  0.00    +0.000 A 
ATOM      8  N   UNL     1       5.251   3.448  19.136  0.00  0.00    +0.000 NA
ATOM      9  C   UNL     1       4.272   2.680  19.563  0.00  0.00    +0.000 A 
ATOM     10  N   UNL     1       3.043   3.259  19.367  0.00  0.00    +0.000 N 
BRANCH  10  11
ATOM     11  C   UNL     1       1.780   2.683  19.776  0.00  0.00    +0.000 C 
ATOM     12  C   UNL     1       1.294   3.167  21.134  0.00  0.00    +0.000 C 
ENDBRANCH  10  11
ENDBRANCH   1   2
BRANCH   1  13
ATOM     13  C   UNL     1       6.954   7.740  17.498  0.00  0.00    +0.000 C 
BRANCH  13  14
ATOM     14  C   UNL     1       8.317   8.191  18.021  0.00  0.00    +0.000 C 
BRANCH  14  15
ATOM     15  C   UNL     1       8.408   9.712  18.135  0.00  0.00    +0.000 C 
BRANCH  15  16
ATOM     16  C   UNL     1       9.143  10.115  19.414  0.00  0.00    +0.000 C 
BRANCH  16  17
ATOM     17  C   UNL     1      10.287  11.079  19.112  0.00  0.00    +0.000 C 
BRANCH  17  18
ATOM     18  C   UNL     1      10.622  11.931  20.333  0.00  0.00    +0.000 C 
BRANCH  18  19
ATOM     19  C   UNL     1       9.679  13.126  20.439  0.00  0.00    +0.000 C 
BRANCH  19  20
ATOM     20  C   UNL     1       9.419  13.737  19.065  0.00  0.00    +0.000 C 
BRANCH  20  22
ATOM     21  C   UNL     1       8.131  15.602  17.989  0.00  0.00    +0.000 C 
ATOM     22  C   UNL     1       8.103  14.510  19.046  0.00  0.00    +0.000 C 
ENDBRANCH  20  22
ENDBRANCH  19  20
ENDBRANCH  18  19
ENDBRANCH  17  18
ENDBRANCH  16  17
ENDBRANCH  15  16
ENDBRANCH  14  15
ENDBRANCH  13  14
ENDBRANCH   1  13
TORSDOF 11
ENDMDL
