MODEL 1
REMARK VINA RESULT:      -7.8      0.000      0.000
REMARK  Name = 
REMARK  5 active torsions:
REMARK  status: ('A' for Active; 'I' for Inactive)
REMARK    1  A    between atoms: C_1  and  O_2
REMARK    2  A    between atoms: O_2  and  C_3
REMARK    3  A    between atoms: C_6  and  C_7
REMARK    4  A    between atoms: C_15  and  N_16
REMARK    5  A    between atoms: N_19  and  N_20
REMARK                            x       y       z     vdW  Elec       q    Type
REMARK                         _______ _______ _______ _____ _____    ______ ____
ROOT
ATOM      1  C   UNL     1       2.659   6.260  18.670  0.00  0.00    +0.000 A 
ATOM      2  N   UNL     1       2.121   5.293  19.517  0.00  0.00    +0.000 N 
ATOM      3  N   UNL     1       1.510   5.787  20.616  0.00  0.00    +0.000 NA
ATOM      4  C   UNL     1       1.474   7.076  20.326  0.00  0.00    +0.000 A 
ATOM      5  C   UNL     1       2.035   7.415  19.093  0.00  0.00    +0.000 A 
ATOM      6  C   UNL     1       1.892   8.849  18.883  0.00  0.00    +0.000 C 
ATOM      7  O   UNL     1       2.444   9.517  18.031  0.00  0.00    +0.000 OA
ATOM      8  C   UNL     1       1.093   9.331  20.102  0.00  0.00    +0.000 A 
ATOM      9  C   UNL     1       0.589  10.564  20.503  0.00  0.00    +0.000 A 
ATOM     10  C   UNL     1       0.266  10.712  21.872  0.00  0.00    +0.000 A 
ATOM     11  C   UNL     1       0.338   9.637  22.781  0.00  0.00    +0.000 A 
ATOM     12  C   UNL     1       0.681   8.368  22.338  0.00  0.00    +0.000 A 
ATOM     13  C   UNL     1       1.025   8.240  21.007  0.00  0.00    +0.000 A 
ATOM     14  H   UNL     1       2.232   4.289  19.442  0.00  0.00    +0.000 HD
ENDROOT
BRANCH   1  18
ATOM     15  C   UNL     1       5.735   5.076  15.926  0.00  0.00    +0.000 A 
ATOM     16  C   UNL     1       5.557   6.428  16.237  0.00  0.00    +0.000 A 
ATOM     17  C   UNL     1       4.559   6.845  17.137  0.00  0.00    +0.000 A 
ATOM     18  C   UNL     1       3.703   5.908  17.711  0.00  0.00    +0.000 A 
ATOM     19  C   UNL     1       3.879   4.552  17.372  0.00  0.00    +0.000 A 
ATOM     20  C   UNL     1       4.881   4.136  16.490  0.00  0.00    +0.000 A 
BRANCH  15  22
ATOM     21  C   UNL     1       6.363   4.007  13.912  0.00  0.00    +0.000 C 
ATOM     22  O   UNL     1       6.741   4.787  15.046  0.00  0.00    +0.000 OA
ENDBRANCH  15  22
ENDBRANCH   1  18
BRANCH   9  23
ATOM     23  N   UNL     1       0.271  11.672  19.683  0.00  0.00    +0.000 N 
ATOM     24  C   UNL     1       0.837  12.934  19.816  0.00  0.00    +0.000 C 
ATOM     25  O   UNL     1       1.633  13.251  20.688  0.00  0.00    +0.000 OA
ATOM     26  N   UNL     1       0.379  13.791  18.806  0.00  0.00    +0.000 N 
ATOM     27  H   UNL     1      -0.064  11.461  18.757  0.00  0.00    +0.000 HD
ATOM     28  H   UNL     1       0.074  13.404  17.923  0.00  0.00    +0.000 HD
BRANCH  26  29
ATOM     29  N   UNL     1       0.702  15.167  18.870  0.00  0.00    +0.000 NA
ATOM     30  C   UNL     1       1.963  15.504  18.201  0.00  0.00    +0.000 C 
ATOM     31  C   UNL     1       2.287  16.995  18.364  0.00  0.00    +0.000 C 
ATOM     32  C   UNL     1       1.140  17.879  17.883  0.00  0.00    +0.000 C 
ATOM     33  C   UNL     1      -0.173  17.450  18.525  0.00  0.00    +0.000 C 
ATOM     34  C   UNL     1      -0.419  15.958  18.331  0.00  0.00    +0.000 C 
ENDBRANCH  26  29
ENDBRANCH   9  23
TORSDOF 4
ENDMDL
MODEL 2
REMARK VINA RESULT:      -7.8      3.067      3.706
REMARK  Name = 
REMARK  5 active torsions:
REMARK  status: ('A' for Active; 'I' for Inactive)
REMARK    1  A    between atoms: C_1  and  O_2
REMARK    2  A    between atoms: O_2  and  C_3
REMARK    3  A    between atoms: C_6  and  C_7
REMARK    4  A    between atoms: C_15  and  N_16
REMARK    5  A    between atoms: N_19  and  N_20
REMARK                            x       y       z     vdW  Elec       q    Type
REMARK                         _______ _______ _______ _____ _____    ______ ____
ROOT
ATOM      1  C   UNL     1       3.315   5.647  18.201  0.00  0.00    +0.000 A 
ATOM      2  N   UNL     1       3.059   4.741  19.228  0.00  0.00    +0.000 N 
ATOM      3  N   UNL     1       2.562   5.295  20.355  0.00  0.00    +0.000 NA
ATOM      4  C   UNL     1       2.296   6.521  19.936  0.00  0.00    +0.000 A 
ATOM      5  C   UNL     1       2.605   6.762  18.595  0.00  0.00    +0.000 A 
ATOM      6  C   UNL     1       2.226   8.126  18.258  0.00  0.00    +0.000 C 
ATOM      7  O   UNL     1       2.538   8.741  17.256  0.00  0.00    +0.000 OA
ATOM      8  C   UNL     1       1.565   8.662  19.535  0.00  0.00    +0.000 A 
ATOM      9  C   UNL     1       0.957   9.865  19.880  0.00  0.00    +0.000 A 
ATOM     10  C   UNL     1       0.832  10.150  21.260  0.00  0.00    +0.000 A 
ATOM     11  C   UNL     1       1.197   9.222  22.254  0.00  0.00    +0.000 A 
ATOM     12  C   UNL     1       1.647   7.958  21.901  0.00  0.00    +0.000 A 
ATOM     13  C   UNL     1       1.795   7.699  20.552  0.00  0.00    +0.000 A 
ATOM     14  H   UNL     1       3.300   3.757  19.244  0.00  0.00    +0.000 HD
ENDROOT
BRANCH   1  18
ATOM     15  C   UNL     1       5.980   4.784  14.954  0.00  0.00    +0.000 A 
ATOM     16  C   UNL     1       5.431   3.740  15.705  0.00  0.00    +0.000 A 
ATOM     17  C   UNL     1       4.551   3.993  16.773  0.00  0.00    +0.000 A 
ATOM     18  C   UNL     1       4.238   5.304  17.121  0.00  0.00    +0.000 A 
ATOM     19  C   UNL     1       4.814   6.348  16.370  0.00  0.00    +0.000 A 
ATOM     20  C   UNL     1       5.676   6.095  15.299  0.00  0.00    +0.000 A 
BRANCH  15  22
ATOM     21  C   UNL     1       6.243   3.573  12.939  0.00  0.00    +0.000 C 
ATOM     22  O   UNL     1       6.816   4.420  13.934  0.00  0.00    +0.000 OA
ENDBRANCH  15  22
ENDBRANCH   1  18
BRANCH   9  23
ATOM     23  N   UNL     1       0.360  10.808  19.010  0.00  0.00    +0.000 N 
ATOM     24  C   UNL     1      -0.905  10.672  18.453  0.00  0.00    +0.000 C 
ATOM     25  O   UNL     1      -1.630   9.699  18.602  0.00  0.00    +0.000 OA
ATOM     26  N   UNL     1      -1.242  11.809  17.705  0.00  0.00    +0.000 N 
ATOM     27  H   UNL     1       0.676  11.761  19.102  0.00  0.00    +0.000 HD
ATOM     28  H   UNL     1      -0.823  12.700  17.936  0.00  0.00    +0.000 HD
BRANCH  26  29
ATOM     29  N   UNL     1      -2.414  11.791  16.915  0.00  0.00    +0.000 NA
ATOM     30  C   UNL     1      -2.437  10.708  15.925  0.00  0.00    +0.000 C 
ATOM     31  C   UNL     1      -3.702  10.784  15.060  0.00  0.00    +0.000 C 
ATOM     32  C   UNL     1      -4.970  10.798  15.910  0.00  0.00    +0.000 C 
ATOM     33  C   UNL     1      -4.882  11.872  16.986  0.00  0.00    +0.000 C 
ATOM     34  C   UNL     1      -3.596  11.738  17.795  0.00  0.00    +0.000 C 
ENDBRANCH  26  29
ENDBRANCH   9  23
TORSDOF 4
ENDMDL
MODEL 3
REMARK VINA RESULT:      -7.6      4.808      7.660
REMARK  Name = 
REMARK  5 active torsions:
REMARK  status: ('A' for Active; 'I' for Inactive)
REMARK    1  A    between atoms: C_1  and  O_2
REMARK    2  A    between atoms: O_2  and  C_3
REMARK    3  A    between atoms: C_6  and  C_7
REMARK    4  A    between atoms: C_15  and  N_16
REMARK    5  A    between atoms: N_19  and  N_20
REMARK                            x       y       z     vdW  Elec       q    Type
REMARK                         _______ _______ _______ _____ _____    ______ ____
ROOT
ATOM      1  C   UNL     1       2.436  13.059  18.806  0.00  0.00    +0.000 A 
ATOM      2  N   UNL     1       2.505  12.108  17.791  0.00  0.00    +0.000 N 
ATOM      3  N   UNL     1       2.032  10.889  18.130  0.00  0.00    +0.000 NA
ATOM      4  C   UNL     1       1.459  11.156  19.290  0.00  0.00    +0.000 A 
ATOM      5  C   UNL     1       1.550  12.490  19.696  0.00  0.00    +0.000 A 
ATOM      6  C   UNL     1       0.845  12.652  20.960  0.00  0.00    +0.000 C 
ATOM      7  O   UNL     1       0.897  13.613  21.703  0.00  0.00    +0.000 OA
ATOM      8  C   UNL     1       0.235  11.270  21.232  0.00  0.00    +0.000 A 
ATOM      9  C   UNL     1      -0.578  10.751  22.235  0.00  0.00    +0.000 A 
ATOM     10  C   UNL     1      -0.601   9.344  22.379  0.00  0.00    +0.000 A 
ATOM     11  C   UNL     1       0.071   8.486  21.487  0.00  0.00    +0.000 A 
ATOM     12  C   UNL     1       0.742   9.005  20.389  0.00  0.00    +0.000 A 
ATOM     13  C   UNL     1       0.786  10.381  20.274  0.00  0.00    +0.000 A 
ATOM     14  H   UNL     1       2.956  12.212  16.890  0.00  0.00    +0.000 HD
ENDROOT
BRANCH   1  18
ATOM     15  C   UNL     1       5.048  16.458  18.681  0.00  0.00    +0.000 A 
ATOM     16  C   UNL     1       3.792  16.563  19.287  0.00  0.00    +0.000 A 
ATOM     17  C   UNL     1       2.916  15.463  19.347  0.00  0.00    +0.000 A 
ATOM     18  C   UNL     1       3.280  14.251  18.765  0.00  0.00    +0.000 A 
ATOM     19  C   UNL     1       4.539  14.165  18.139  0.00  0.00    +0.000 A 
ATOM     20  C   UNL     1       5.415  15.254  18.093  0.00  0.00    +0.000 A 
BRANCH  15  22
ATOM     21  C   UNL     1       7.217  17.381  18.878  0.00  0.00    +0.000 C 
ATOM     22  O   UNL     1       5.818  17.588  18.689  0.00  0.00    +0.000 OA
ENDBRANCH  15  22
ENDBRANCH   1  18
BRANCH   9  23
ATOM     23  N   UNL     1      -1.463  11.461  23.080  0.00  0.00    +0.000 N 
ATOM     24  C   UNL     1      -2.563  12.183  22.636  0.00  0.00    +0.000 C 
ATOM     25  O   UNL     1      -2.866  12.337  21.461  0.00  0.00    +0.000 OA
ATOM     26  N   UNL     1      -3.286  12.703  23.718  0.00  0.00    +0.000 N 
ATOM     27  H   UNL     1      -1.538  11.128  24.028  0.00  0.00    +0.000 HD
ATOM     28  H   UNL     1      -3.246  12.235  24.614  0.00  0.00    +0.000 HD
BRANCH  26  29
ATOM     29  N   UNL     1      -4.339  13.613  23.471  0.00  0.00    +0.000 NA
ATOM     30  C   UNL     1      -5.658  13.102  23.860  0.00  0.00    +0.000 C 
ATOM     31  C   UNL     1      -6.761  14.108  23.505  0.00  0.00    +0.000 C 
ATOM     32  C   UNL     1      -6.488  15.483  24.110  0.00  0.00    +0.000 C 
ATOM     33  C   UNL     1      -5.080  15.950  23.766  0.00  0.00    +0.000 C 
ATOM     34  C   UNL     1      -4.044  14.896  24.136  0.00  0.00    +0.000 C 
ENDBRANCH  26  29
ENDBRANCH   9  23
TORSDOF 4
ENDMDL
MODEL 4
REMARK VINA RESULT:      -7.6      3.045      3.591
REMARK  Name = 
REMARK  5 active torsions:
REMARK  status: ('A' for Active; 'I' for Inactive)
REMARK    1  A    between atoms: C_1  and  O_2
REMARK    2  A    between atoms: O_2  and  C_3
REMARK    3  A    between atoms: C_6  and  C_7
REMARK    4  A    between atoms: C_15  and  N_16
REMARK    5  A    between atoms: N_19  and  N_20
REMARK                            x       y       z     vdW  Elec       q    Type
REMARK                         _______ _______ _______ _____ _____    ______ ____
ROOT
ATOM      1  C   UNL     1       3.457   5.604  17.983  0.00  0.00    +0.000 A 
ATOM      2  N   UNL     1       3.252   4.672  18.998  0.00  0.00    +0.000 N 
ATOM      3  N   UNL     1       2.766   5.191  20.147  0.00  0.00    +0.000 NA
ATOM      4  C   UNL     1       2.455   6.415  19.758  0.00  0.00    +0.000 A 
ATOM      5  C   UNL     1       2.724   6.690  18.415  0.00  0.00    +0.000 A 
ATOM      6  C   UNL     1       2.298   8.048  18.112  0.00  0.00    +0.000 C 
ATOM      7  O   UNL     1       2.568   8.689  17.115  0.00  0.00    +0.000 OA
ATOM      8  C   UNL     1       1.652   8.540  19.414  0.00  0.00    +0.000 A 
ATOM      9  C   UNL     1       1.017   9.718  19.795  0.00  0.00    +0.000 A 
ATOM     10  C   UNL     1       0.917   9.974  21.183  0.00  0.00    +0.000 A 
ATOM     11  C   UNL     1       1.332   9.039  22.151  0.00  0.00    +0.000 A 
ATOM     12  C   UNL     1       1.810   7.796  21.763  0.00  0.00    +0.000 A 
ATOM     13  C   UNL     1       1.933   7.567  20.407  0.00  0.00    +0.000 A 
ATOM     14  H   UNL     1       3.522   3.695  18.991  0.00  0.00    +0.000 HD
ENDROOT
BRANCH   1  18
ATOM     15  C   UNL     1       6.162   4.594  14.812  0.00  0.00    +0.000 A 
ATOM     16  C   UNL     1       5.850   5.934  15.066  0.00  0.00    +0.000 A 
ATOM     17  C   UNL     1       4.970   6.295  16.103  0.00  0.00    +0.000 A 
ATOM     18  C   UNL     1       4.364   5.308  16.876  0.00  0.00    +0.000 A 
ATOM     19  C   UNL     1       4.669   3.962  16.595  0.00  0.00    +0.000 A 
ATOM     20  C   UNL     1       5.556   3.604  15.576  0.00  0.00    +0.000 A 
BRANCH  15  22
ATOM     21  C   UNL     1       6.495   3.676  12.658  0.00  0.00    +0.000 C 
ATOM     22  O   UNL     1       7.035   4.362  13.785  0.00  0.00    +0.000 OA
ENDBRANCH  15  22
ENDBRANCH   1  18
BRANCH   9  23
ATOM     23  N   UNL     1       0.373  10.659  18.958  0.00  0.00    +0.000 N 
ATOM     24  C   UNL     1      -1.001  10.729  18.767  0.00  0.00    +0.000 C 
ATOM     25  O   UNL     1      -1.812   9.954  19.255  0.00  0.00    +0.000 OA
ATOM     26  N   UNL     1      -1.333  11.817  17.948  0.00  0.00    +0.000 N 
ATOM     27  H   UNL     1       0.860  11.528  18.806  0.00  0.00    +0.000 HD
ATOM     28  H   UNL     1      -0.721  12.621  17.914  0.00  0.00    +0.000 HD
BRANCH  26  29
ATOM     29  N   UNL     1      -2.665  11.956  17.492  0.00  0.00    +0.000 NA
ATOM     30  C   UNL     1      -3.057  10.936  16.512  0.00  0.00    +0.000 C 
ATOM     31  C   UNL     1      -4.486  11.181  16.011  0.00  0.00    +0.000 C 
ATOM     32  C   UNL     1      -5.483  11.269  17.163  0.00  0.00    +0.000 C 
ATOM     33  C   UNL     1      -5.007  12.268  18.209  0.00  0.00    +0.000 C 
ATOM     34  C   UNL     1      -3.579  11.967  18.649  0.00  0.00    +0.000 C 
ENDBRANCH  26  29
ENDBRANCH   9  23
TORSDOF 4
ENDMDL
MODEL 5
REMARK VINA RESULT:      -7.6      0.668      1.389
REMARK  Name = 
REMARK  5 active torsions:
REMARK  status: ('A' for Active; 'I' for Inactive)
REMARK    1  A    between atoms: C_1  and  O_2
REMARK    2  A    between atoms: O_2  and  C_3
REMARK    3  A    between atoms: C_6  and  C_7
REMARK    4  A    between atoms: C_15  and  N_16
REMARK    5  A    between atoms: N_19  and  N_20
REMARK                            x       y       z     vdW  Elec       q    Type
REMARK                         _______ _______ _______ _____ _____    ______ ____
ROOT
ATOM      1  C   UNL     1       2.928   5.891  18.392  0.00  0.00    +0.000 A 
ATOM      2  N   UNL     1       2.450   4.963  19.314  0.00  0.00    +0.000 N 
ATOM      3  N   UNL     1       1.874   5.505  20.409  0.00  0.00    +0.000 NA
ATOM      4  C   UNL     1       1.793   6.774  20.049  0.00  0.00    +0.000 A 
ATOM      5  C   UNL     1       2.293   7.055  18.775  0.00  0.00    +0.000 A 
ATOM      6  C   UNL     1       2.104   8.470  18.491  0.00  0.00    +0.000 C 
ATOM      7  O   UNL     1       2.603   9.101  17.579  0.00  0.00    +0.000 OA
ATOM      8  C   UNL     1       1.344   9.002  19.714  0.00  0.00    +0.000 A 
ATOM      9  C   UNL     1       0.826  10.244  20.066  0.00  0.00    +0.000 A 
ATOM     10  C   UNL     1       0.557  10.463  21.438  0.00  0.00    +0.000 A 
ATOM     11  C   UNL     1       0.694   9.445  22.401  0.00  0.00    +0.000 A 
ATOM     12  C   UNL     1       1.051   8.161  22.017  0.00  0.00    +0.000 A 
ATOM     13  C   UNL     1       1.342   7.964  20.681  0.00  0.00    +0.000 A 
ATOM     14  H   UNL     1       2.584   3.959  19.291  0.00  0.00    +0.000 HD
ENDROOT
BRANCH   1  18
ATOM     15  C   UNL     1       5.875   4.918  15.432  0.00  0.00    +0.000 A 
ATOM     16  C   UNL     1       5.173   3.898  16.082  0.00  0.00    +0.000 A 
ATOM     17  C   UNL     1       4.198   4.188  17.054  0.00  0.00    +0.000 A 
ATOM     18  C   UNL     1       3.940   5.510  17.410  0.00  0.00    +0.000 A 
ATOM     19  C   UNL     1       4.669   6.527  16.763  0.00  0.00    +0.000 A 
ATOM     20  C   UNL     1       5.627   6.239  15.785  0.00  0.00    +0.000 A 
BRANCH  15  22
ATOM     21  C   UNL     1       6.266   3.807  13.381  0.00  0.00    +0.000 C 
ATOM     22  O   UNL     1       6.792   4.520  14.500  0.00  0.00    +0.000 OA
ENDBRANCH  15  22
ENDBRANCH   1  18
BRANCH   9  23
ATOM     23  N   UNL     1       0.446  11.296  19.199  0.00  0.00    +0.000 N 
ATOM     24  C   UNL     1       0.955  12.587  19.262  0.00  0.00    +0.000 C 
ATOM     25  O   UNL     1       1.748  12.982  20.106  0.00  0.00    +0.000 OA
ATOM     26  N   UNL     1       0.445  13.373  18.220  0.00  0.00    +0.000 N 
ATOM     27  H   UNL     1       0.108  11.025  18.290  0.00  0.00    +0.000 HD
ATOM     28  H   UNL     1       0.145  12.929  17.362  0.00  0.00    +0.000 HD
BRANCH  26  29
ATOM     29  N   UNL     1       0.704  14.763  18.213  0.00  0.00    +0.000 NA
ATOM     30  C   UNL     1      -0.033  15.501  19.246  0.00  0.00    +0.000 C 
ATOM     31  C   UNL     1       0.242  17.007  19.142  0.00  0.00    +0.000 C 
ATOM     32  C   UNL     1       1.736  17.314  19.189  0.00  0.00    +0.000 C 
ATOM     33  C   UNL     1       2.489  16.469  18.169  0.00  0.00    +0.000 C 
ATOM     34  C   UNL     1       2.157  14.990  18.326  0.00  0.00    +0.000 C 
ENDBRANCH  26  29
ENDBRANCH   9  23
TORSDOF 4
ENDMDL
MODEL 6
REMARK VINA RESULT:      -7.4      0.687      1.076
REMARK  Name = 
REMARK  5 active torsions:
REMARK  status: ('A' for Active; 'I' for Inactive)
REMARK    1  A    between atoms: C_1  and  O_2
REMARK    2  A    between atoms: O_2  and  C_3
REMARK    3  A    between atoms: C_6  and  C_7
REMARK    4  A    between atoms: C_15  and  N_16
REMARK    5  A    between atoms: N_19  and  N_20
REMARK                            x       y       z     vdW  Elec       q    Type
REMARK                         _______ _______ _______ _____ _____    ______ ____
ROOT
ATOM      1  C   UNL     1       2.750   6.463  18.932  0.00  0.00    +0.000 A 
ATOM      2  N   UNL     1       2.215   5.493  19.777  0.00  0.00    +0.000 N 
ATOM      3  N   UNL     1       1.516   5.983  20.824  0.00  0.00    +0.000 NA
ATOM      4  C   UNL     1       1.429   7.260  20.493  0.00  0.00    +0.000 A 
ATOM      5  C   UNL     1       2.043   7.595  19.283  0.00  0.00    +0.000 A 
ATOM      6  C   UNL     1       1.836   9.011  19.021  0.00  0.00    +0.000 C 
ATOM      7  O   UNL     1       2.401   9.685  18.181  0.00  0.00    +0.000 OA
ATOM      8  C   UNL     1       0.943   9.483  20.177  0.00  0.00    +0.000 A 
ATOM      9  C   UNL     1       0.352  10.698  20.510  0.00  0.00    +0.000 A 
ATOM     10  C   UNL     1      -0.057  10.866  21.854  0.00  0.00    +0.000 A 
ATOM     11  C   UNL     1       0.018   9.823  22.798  0.00  0.00    +0.000 A 
ATOM     12  C   UNL     1       0.453   8.563  22.415  0.00  0.00    +0.000 A 
ATOM     13  C   UNL     1       0.880   8.416  21.110  0.00  0.00    +0.000 A 
ATOM     14  H   UNL     1       2.383   4.495  19.739  0.00  0.00    +0.000 HD
ENDROOT
BRANCH   1  18
ATOM     15  C   UNL     1       6.100   5.445  16.457  0.00  0.00    +0.000 A 
ATOM     16  C   UNL     1       5.322   6.567  16.154  0.00  0.00    +0.000 A 
ATOM     17  C   UNL     1       4.219   6.927  16.951  0.00  0.00    +0.000 A 
ATOM     18  C   UNL     1       3.865   6.142  18.045  0.00  0.00    +0.000 A 
ATOM     19  C   UNL     1       4.645   5.003  18.327  0.00  0.00    +0.000 A 
ATOM     20  C   UNL     1       5.750   4.654  17.544  0.00  0.00    +0.000 A 
BRANCH  15  22
ATOM     21  C   UNL     1       6.802   4.778  14.299  0.00  0.00    +0.000 C 
ATOM     22  O   UNL     1       7.151   5.196  15.618  0.00  0.00    +0.000 OA
ENDBRANCH  15  22
ENDBRANCH   1  18
BRANCH   9  23
ATOM     23  N   UNL     1       0.025  11.764  19.640  0.00  0.00    +0.000 N 
ATOM     24  C   UNL     1       0.644  13.007  19.654  0.00  0.00    +0.000 C 
ATOM     25  O   UNL     1       1.505  13.346  20.454  0.00  0.00    +0.000 OA
ATOM     26  N   UNL     1       0.156  13.817  18.619  0.00  0.00    +0.000 N 
ATOM     27  H   UNL     1      -0.376  11.508  18.752  0.00  0.00    +0.000 HD
ATOM     28  H   UNL     1      -0.218  13.386  17.784  0.00  0.00    +0.000 HD
BRANCH  26  29
ATOM     29  N   UNL     1       0.533  15.179  18.573  0.00  0.00    +0.000 NA
ATOM     30  C   UNL     1       0.034  15.963  19.709  0.00  0.00    +0.000 C 
ATOM     31  C   UNL     1       0.421  17.441  19.565  0.00  0.00    +0.000 C 
ATOM     32  C   UNL     1       1.925  17.616  19.376  0.00  0.00    +0.000 C 
ATOM     33  C   UNL     1       2.432  16.724  18.250  0.00  0.00    +0.000 C 
ATOM     34  C   UNL     1       2.000  15.277  18.457  0.00  0.00    +0.000 C 
ENDBRANCH  26  29
ENDBRANCH   9  23
TORSDOF 4
ENDMDL
MODEL 7
REMARK VINA RESULT:      -7.2      2.879      9.253
REMARK  Name = 
REMARK  5 active torsions:
REMARK  status: ('A' for Active; 'I' for Inactive)
REMARK    1  A    between atoms: C_1  and  O_2
REMARK    2  A    between atoms: O_2  and  C_3
REMARK    3  A    between atoms: C_6  and  C_7
REMARK    4  A    between atoms: C_15  and  N_16
REMARK    5  A    between atoms: N_19  and  N_20
REMARK                            x       y       z     vdW  Elec       q    Type
REMARK                         _______ _______ _______ _____ _____    ______ ____
ROOT
ATOM      1  C   UNL     1       1.873   7.881  19.967  0.00  0.00    +0.000 A 
ATOM      2  N   UNL     1       1.190   7.420  21.091  0.00  0.00    +0.000 N 
ATOM      3  N   UNL     1       1.098   6.075  21.180  0.00  0.00    +0.000 NA
ATOM      4  C   UNL     1       1.929   5.702  20.223  0.00  0.00    +0.000 A 
ATOM      5  C   UNL     1       2.540   6.753  19.534  0.00  0.00    +0.000 A 
ATOM      6  C   UNL     1       3.454   6.205  18.543  0.00  0.00    +0.000 C 
ATOM      7  O   UNL     1       3.988   6.809  17.633  0.00  0.00    +0.000 OA
ATOM      8  C   UNL     1       3.394   4.688  18.772  0.00  0.00    +0.000 A 
ATOM      9  C   UNL     1       4.040   3.596  18.201  0.00  0.00    +0.000 A 
ATOM     10  C   UNL     1       3.435   2.329  18.374  0.00  0.00    +0.000 A 
ATOM     11  C   UNL     1       2.294   2.145  19.179  0.00  0.00    +0.000 A 
ATOM     12  C   UNL     1       1.754   3.212  19.881  0.00  0.00    +0.000 A 
ATOM     13  C   UNL     1       2.331   4.451  19.682  0.00  0.00    +0.000 A 
ATOM     14  H   UNL     1       0.684   7.981  21.767  0.00  0.00    +0.000 HD
ENDROOT
BRANCH   1  18
ATOM     15  C   UNL     1       1.176  11.905  18.660  0.00  0.00    +0.000 A 
ATOM     16  C   UNL     1       1.943  11.037  17.876  0.00  0.00    +0.000 A 
ATOM     17  C   UNL     1       2.184   9.710  18.277  0.00  0.00    +0.000 A 
ATOM     18  C   UNL     1       1.685   9.249  19.492  0.00  0.00    +0.000 A 
ATOM     19  C   UNL     1       0.932  10.139  20.283  0.00  0.00    +0.000 A 
ATOM     20  C   UNL     1       0.679  11.453  19.876  0.00  0.00    +0.000 A 
BRANCH  15  22
ATOM     21  C   UNL     1      -0.069  13.913  18.746  0.00  0.00    +0.000 C 
ATOM     22  O   UNL     1       1.000  13.168  18.167  0.00  0.00    +0.000 OA
ENDBRANCH  15  22
ENDBRANCH   1  18
BRANCH   9  23
ATOM     23  N   UNL     1       5.289   3.585  17.536  0.00  0.00    +0.000 N 
ATOM     24  C   UNL     1       5.469   3.912  16.198  0.00  0.00    +0.000 C 
ATOM     25  O   UNL     1       4.565   4.193  15.423  0.00  0.00    +0.000 OA
ATOM     26  N   UNL     1       6.829   3.886  15.860  0.00  0.00    +0.000 N 
ATOM     27  H   UNL     1       6.102   3.727  18.113  0.00  0.00    +0.000 HD
ATOM     28  H   UNL     1       7.524   4.050  16.576  0.00  0.00    +0.000 HD
BRANCH  26  29
ATOM     29  N   UNL     1       7.204   4.017  14.503  0.00  0.00    +0.000 NA
ATOM     30  C   UNL     1       6.192   3.518  13.564  0.00  0.00    +0.000 C 
ATOM     31  C   UNL     1       6.687   3.629  12.117  0.00  0.00    +0.000 C 
ATOM     32  C   UNL     1       7.121   5.051  11.774  0.00  0.00    +0.000 C 
ATOM     33  C   UNL     1       8.102   5.577  12.813  0.00  0.00    +0.000 C 
ATOM     34  C   UNL     1       7.546   5.424  14.224  0.00  0.00    +0.000 C 
ENDBRANCH  26  29
ENDBRANCH   9  23
TORSDOF 4
ENDMDL
MODEL 8
REMARK VINA RESULT:      -7.1      1.020      1.371
REMARK  Name = 
REMARK  5 active torsions:
REMARK  status: ('A' for Active; 'I' for Inactive)
REMARK    1  A    between atoms: C_1  and  O_2
REMARK    2  A    between atoms: O_2  and  C_3
REMARK    3  A    between atoms: C_6  and  C_7
REMARK    4  A    between atoms: C_15  and  N_16
REMARK    5  A    between atoms: N_19  and  N_20
REMARK                            x       y       z     vdW  Elec       q    Type
REMARK                         _______ _______ _______ _____ _____    ______ ____
ROOT
ATOM      1  C   UNL     1       2.816   6.592  19.038  0.00  0.00    +0.000 A 
ATOM      2  N   UNL     1       2.277   5.567  19.812  0.00  0.00    +0.000 N 
ATOM      3  N   UNL     1       1.514   5.985  20.845  0.00  0.00    +0.000 NA
ATOM      4  C   UNL     1       1.397   7.271  20.567  0.00  0.00    +0.000 A 
ATOM      5  C   UNL     1       2.053   7.682  19.404  0.00  0.00    +0.000 A 
ATOM      6  C   UNL     1       1.809   9.102  19.196  0.00  0.00    +0.000 C 
ATOM      7  O   UNL     1       2.388   9.832  18.414  0.00  0.00    +0.000 OA
ATOM      8  C   UNL     1       0.847   9.490  20.328  0.00  0.00    +0.000 A 
ATOM      9  C   UNL     1       0.199  10.667  20.686  0.00  0.00    +0.000 A 
ATOM     10  C   UNL     1      -0.278  10.759  22.015  0.00  0.00    +0.000 A 
ATOM     11  C   UNL     1      -0.209   9.677  22.914  0.00  0.00    +0.000 A 
ATOM     12  C   UNL     1       0.288   8.451  22.497  0.00  0.00    +0.000 A 
ATOM     13  C   UNL     1       0.779   8.379  21.208  0.00  0.00    +0.000 A 
ATOM     14  H   UNL     1       2.483   4.578  19.738  0.00  0.00    +0.000 HD
ENDROOT
BRANCH   1  18
ATOM     15  C   UNL     1       6.139   5.903  16.417  0.00  0.00    +0.000 A 
ATOM     16  C   UNL     1       6.128   5.338  17.696  0.00  0.00    +0.000 A 
ATOM     17  C   UNL     1       5.049   5.543  18.576  0.00  0.00    +0.000 A 
ATOM     18  C   UNL     1       3.981   6.350  18.191  0.00  0.00    +0.000 A 
ATOM     19  C   UNL     1       4.015   6.931  16.908  0.00  0.00    +0.000 A 
ATOM     20  C   UNL     1       5.080   6.714  16.028  0.00  0.00    +0.000 A 
BRANCH  15  22
ATOM     21  C   UNL     1       6.987   4.854  14.474  0.00  0.00    +0.000 C 
ATOM     22  O   UNL     1       7.235   5.629  15.646  0.00  0.00    +0.000 OA
ENDBRANCH  15  22
ENDBRANCH   1  18
BRANCH   9  23
ATOM     23  N   UNL     1      -0.126  11.761  19.850  0.00  0.00    +0.000 N 
ATOM     24  C   UNL     1       0.119  13.091  20.166  0.00  0.00    +0.000 C 
ATOM     25  O   UNL     1       0.593  13.478  21.225  0.00  0.00    +0.000 OA
ATOM     26  N   UNL     1      -0.239  13.928  19.101  0.00  0.00    +0.000 N 
ATOM     27  H   UNL     1      -0.171  11.569  18.862  0.00  0.00    +0.000 HD
ATOM     28  H   UNL     1      -0.231  13.566  18.157  0.00  0.00    +0.000 HD
BRANCH  26  29
ATOM     29  N   UNL     1      -0.231  15.329  19.292  0.00  0.00    +0.000 NA
ATOM     30  C   UNL     1      -0.129  16.091  18.042  0.00  0.00    +0.000 C 
ATOM     31  C   UNL     1      -0.058  17.597  18.323  0.00  0.00    +0.000 C 
ATOM     32  C   UNL     1      -1.233  18.069  19.176  0.00  0.00    +0.000 C 
ATOM     33  C   UNL     1      -1.371  17.206  20.423  0.00  0.00    +0.000 C 
ATOM     34  C   UNL     1      -1.423  15.725  20.065  0.00  0.00    +0.000 C 
ENDBRANCH  26  29
ENDBRANCH   9  23
TORSDOF 4
ENDMDL
MODEL 9
REMARK VINA RESULT:      -7.1      1.037      1.335
REMARK  Name = 
REMARK  5 active torsions:
REMARK  status: ('A' for Active; 'I' for Inactive)
REMARK    1  A    between atoms: C_1  and  O_2
REMARK    2  A    between atoms: O_2  and  C_3
REMARK    3  A    between atoms: C_6  and  C_7
REMARK    4  A    between atoms: C_15  and  N_16
REMARK    5  A    between atoms: N_19  and  N_20
REMARK                            x       y       z     vdW  Elec       q    Type
REMARK                         _______ _______ _______ _____ _____    ______ ____
ROOT
ATOM      1  C   UNL     1       2.314   6.911  19.379  0.00  0.00    +0.000 A 
ATOM      2  N   UNL     1       1.700   5.954  20.183  0.00  0.00    +0.000 N 
ATOM      3  N   UNL     1       0.955   6.460  21.190  0.00  0.00    +0.000 NA
ATOM      4  C   UNL     1       0.927   7.740  20.863  0.00  0.00    +0.000 A 
ATOM      5  C   UNL     1       1.622   8.062  19.694  0.00  0.00    +0.000 A 
ATOM      6  C   UNL     1       1.475   9.486  19.430  0.00  0.00    +0.000 C 
ATOM      7  O   UNL     1       2.110  10.146  18.630  0.00  0.00    +0.000 OA
ATOM      8  C   UNL     1       0.528   9.979  20.533  0.00  0.00    +0.000 A 
ATOM      9  C   UNL     1      -0.045  11.210  20.839  0.00  0.00    +0.000 A 
ATOM     10  C   UNL     1      -0.529  11.383  22.157  0.00  0.00    +0.000 A 
ATOM     11  C   UNL     1      -0.543  10.334  23.096  0.00  0.00    +0.000 A 
ATOM     12  C   UNL     1      -0.124   9.063  22.732  0.00  0.00    +0.000 A 
ATOM     13  C   UNL     1       0.376   8.910  21.454  0.00  0.00    +0.000 A 
ATOM     14  H   UNL     1       1.840   4.951  20.148  0.00  0.00    +0.000 HD
ENDROOT
BRANCH   1  18
ATOM     15  C   UNL     1       5.629   5.947  16.835  0.00  0.00    +0.000 A 
ATOM     16  C   UNL     1       5.394   5.198  17.993  0.00  0.00    +0.000 A 
ATOM     17  C   UNL     1       4.312   5.489  18.844  0.00  0.00    +0.000 A 
ATOM     18  C   UNL     1       3.471   6.561  18.558  0.00  0.00    +0.000 A 
ATOM     19  C   UNL     1       3.731   7.321  17.400  0.00  0.00    +0.000 A 
ATOM     20  C   UNL     1       4.797   7.021  16.547  0.00  0.00    +0.000 A 
BRANCH  15  22
ATOM     21  C   UNL     1       7.453   4.463  16.582  0.00  0.00    +0.000 C 
ATOM     22  O   UNL     1       6.705   5.568  16.080  0.00  0.00    +0.000 OA
ENDBRANCH  15  22
ENDBRANCH   1  18
BRANCH   9  23
ATOM     23  N   UNL     1      -0.286  12.290  19.958  0.00  0.00    +0.000 N 
ATOM     24  C   UNL     1       0.483  13.445  19.904  0.00  0.00    +0.000 C 
ATOM     25  O   UNL     1       1.424  13.690  20.646  0.00  0.00    +0.000 OA
ATOM     26  N   UNL     1       0.041  14.288  18.875  0.00  0.00    +0.000 N 
ATOM     27  H   UNL     1      -0.766  12.068  19.101  0.00  0.00    +0.000 HD
ATOM     28  H   UNL     1      -0.432  13.890  18.074  0.00  0.00    +0.000 HD
BRANCH  26  29
ATOM     29  N   UNL     1       0.581  15.590  18.770  0.00  0.00    +0.000 NA
ATOM     30  C   UNL     1       1.846  15.642  18.028  0.00  0.00    +0.000 C 
ATOM     31  C   UNL     1       2.410  17.068  18.007  0.00  0.00    +0.000 C 
ATOM     32  C   UNL     1       1.396  18.071  17.463  0.00  0.00    +0.000 C 
ATOM     33  C   UNL     1       0.065  17.935  18.190  0.00  0.00    +0.000 C 
ATOM     34  C   UNL     1      -0.425  16.491  18.178  0.00  0.00    +0.000 C 
ENDBRANCH  26  29
ENDBRANCH   9  23
TORSDOF 4
ENDMDL
