MODEL 1
REMARK VINA RESULT:      -9.5      0.000      0.000
REMARK  Name = 
REMARK  5 active torsions:
REMARK  status: ('A' for Active; 'I' for Inactive)
REMARK    1  A    between atoms: C_1  and  N_2
REMARK    2  A    between atoms: C_4  and  C_5
REMARK    3  A    between atoms: C_11  and  C_12
REMARK    4  A    between atoms: N_15  and  C_16
REMARK    5  A    between atoms: C_16  and  C_17
REMARK                            x       y       z     vdW  Elec       q    Type
REMARK                         _______ _______ _______ _____ _____    ______ ____
ROOT
ATOM      1  C   UNL     1       4.868   4.846  17.316  0.00  0.00    +0.000 A 
ATOM      2  C   UNL     1       4.852   3.784  18.220  0.00  0.00    +0.000 A 
ATOM      3  N   UNL     1       4.152   3.724  19.382  0.00  0.00    +0.000 NA
ATOM      4  C   UNL     1       3.422   4.831  19.607  0.00  0.00    +0.000 A 
ATOM      5  N   UNL     1       2.656   5.031  20.721  0.00  0.00    +0.000 N 
ATOM      6  C   UNL     1       2.049   6.259  20.654  0.00  0.00    +0.000 A 
ATOM      7  C   UNL     1       2.411   6.843  19.456  0.00  0.00    +0.000 A 
ATOM      8  C   UNL     1       3.310   5.955  18.794  0.00  0.00    +0.000 A 
ATOM      9  C   UNL     1       4.072   5.961  17.608  0.00  0.00    +0.000 A 
ATOM     10  H   UNL     1       2.576   4.359  21.470  0.00  0.00    +0.000 HD
ENDROOT
BRANCH   1  14
ATOM     11  C   UNL     1       6.625   3.830  12.783  0.00  0.00    +0.000 C 
ATOM     12  N   UNL     1       6.458   4.349  14.118  0.00  0.00    +0.000 N 
ATOM     13  C   UNL     1       5.401   4.142  14.958  0.00  0.00    +0.000 A 
ATOM     14  C   UNL     1       5.703   4.803  16.131  0.00  0.00    +0.000 A 
ATOM     15  C   UNL     1       6.966   5.387  15.878  0.00  0.00    +0.000 A 
ATOM     16  N   UNL     1       7.428   5.110  14.656  0.00  0.00    +0.000 NA
ENDBRANCH   1  14
BRANCH   7  17
ATOM     17  C   UNL     1       1.972   8.140  18.961  0.00  0.00    +0.000 A 
ATOM     18  C   UNL     1       2.397   8.774  17.779  0.00  0.00    +0.000 A 
ATOM     19  N   UNL     1       1.836   9.975  17.614  0.00  0.00    +0.000 NA
ATOM     20  N   UNL     1       1.014  10.088  18.680  0.00  0.00    +0.000 N 
ATOM     21  C   UNL     1       1.055   9.003  19.513  0.00  0.00    +0.000 A 
BRANCH  20  22
ATOM     22  C   UNL     1       0.277  11.327  18.897  0.00  0.00    +0.000 C 
BRANCH  22  23
ATOM     23  C   UNL     1      -1.167  11.236  18.462  0.00  0.00    +0.000 A 
ATOM     24  C   UNL     1      -2.166  11.986  19.109  0.00  0.00    +0.000 A 
ATOM     25  C   UNL     1      -3.511  11.842  18.755  0.00  0.00    +0.000 A 
ATOM     26  C   UNL     1      -3.864  10.946  17.754  0.00  0.00    +0.000 A 
ATOM     27  F   UNL     1      -5.155  10.793  17.431  0.00  0.00    +0.000 F 
ATOM     28  C   UNL     1      -2.887  10.205  17.102  0.00  0.00    +0.000 A 
ATOM     29  F   UNL     1      -3.228   9.335  16.140  0.00  0.00    +0.000 F 
ATOM     30  C   UNL     1      -1.544  10.342  17.447  0.00  0.00    +0.000 A 
ENDBRANCH  22  23
ENDBRANCH  20  22
ENDBRANCH   7  17
TORSDOF 4
ENDMDL
MODEL 2
REMARK VINA RESULT:      -9.5      0.519      1.251
REMARK  Name = 
REMARK  5 active torsions:
REMARK  status: ('A' for Active; 'I' for Inactive)
REMARK    1  A    between atoms: C_1  and  N_2
REMARK    2  A    between atoms: C_4  and  C_5
REMARK    3  A    between atoms: C_11  and  C_12
REMARK    4  A    between atoms: N_15  and  C_16
REMARK    5  A    between atoms: C_16  and  C_17
REMARK                            x       y       z     vdW  Elec       q    Type
REMARK                         _______ _______ _______ _____ _____    ______ ____
ROOT
ATOM      1  C   UNL     1       4.897   4.837  17.315  0.00  0.00    +0.000 A 
ATOM      2  C   UNL     1       4.901   3.782  18.227  0.00  0.00    +0.000 A 
ATOM      3  N   UNL     1       4.208   3.721  19.394  0.00  0.00    +0.000 NA
ATOM      4  C   UNL     1       3.465   4.820  19.614  0.00  0.00    +0.000 A 
ATOM      5  N   UNL     1       2.703   5.019  20.731  0.00  0.00    +0.000 N 
ATOM      6  C   UNL     1       2.080   6.238  20.659  0.00  0.00    +0.000 A 
ATOM      7  C   UNL     1       2.426   6.818  19.454  0.00  0.00    +0.000 A 
ATOM      8  C   UNL     1       3.333   5.937  18.793  0.00  0.00    +0.000 A 
ATOM      9  C   UNL     1       4.088   5.943  17.603  0.00  0.00    +0.000 A 
ATOM     10  H   UNL     1       2.636   4.351  21.486  0.00  0.00    +0.000 HD
ENDROOT
BRANCH   1  14
ATOM     11  C   UNL     1       6.624   3.838  12.766  0.00  0.00    +0.000 C 
ATOM     12  N   UNL     1       6.468   4.350  14.106  0.00  0.00    +0.000 N 
ATOM     13  C   UNL     1       5.413   4.144  14.950  0.00  0.00    +0.000 A 
ATOM     14  C   UNL     1       5.726   4.796  16.126  0.00  0.00    +0.000 A 
ATOM     15  C   UNL     1       6.991   5.374  15.870  0.00  0.00    +0.000 A 
ATOM     16  N   UNL     1       7.445   5.102  14.643  0.00  0.00    +0.000 NA
ENDBRANCH   1  14
BRANCH   7  17
ATOM     17  C   UNL     1       1.968   8.105  18.952  0.00  0.00    +0.000 A 
ATOM     18  C   UNL     1       2.413   8.758  17.788  0.00  0.00    +0.000 A 
ATOM     19  N   UNL     1       1.824   9.945  17.612  0.00  0.00    +0.000 NA
ATOM     20  N   UNL     1       0.964  10.027  18.651  0.00  0.00    +0.000 N 
ATOM     21  C   UNL     1       1.009   8.938  19.478  0.00  0.00    +0.000 A 
BRANCH  20  22
ATOM     22  C   UNL     1       0.186  11.243  18.849  0.00  0.00    +0.000 C 
BRANCH  22  23
ATOM     23  C   UNL     1      -1.270  11.076  18.485  0.00  0.00    +0.000 A 
ATOM     24  C   UNL     1      -1.667  10.164  17.489  0.00  0.00    +0.000 A 
ATOM     25  C   UNL     1      -3.007  10.067  17.100  0.00  0.00    +0.000 A 
ATOM     26  C   UNL     1      -3.956  10.883  17.703  0.00  0.00    +0.000 A 
ATOM     27  F   UNL     1      -5.236  10.804  17.315  0.00  0.00    +0.000 F 
ATOM     28  C   UNL     1      -3.579  11.782  18.692  0.00  0.00    +0.000 A 
ATOM     29  F   UNL     1      -4.494  12.574  19.270  0.00  0.00    +0.000 F 
ATOM     30  C   UNL     1      -2.247  11.885  19.087  0.00  0.00    +0.000 A 
ENDBRANCH  22  23
ENDBRANCH  20  22
ENDBRANCH   7  17
TORSDOF 4
ENDMDL
MODEL 3
REMARK VINA RESULT:      -9.1      1.039      1.391
REMARK  Name = 
REMARK  5 active torsions:
REMARK  status: ('A' for Active; 'I' for Inactive)
REMARK    1  A    between atoms: C_1  and  N_2
REMARK    2  A    between atoms: C_4  and  C_5
REMARK    3  A    between atoms: C_11  and  C_12
REMARK    4  A    between atoms: N_15  and  C_16
REMARK    5  A    between atoms: C_16  and  C_17
REMARK                            x       y       z     vdW  Elec       q    Type
REMARK                         _______ _______ _______ _____ _____    ______ ____
ROOT
ATOM      1  C   UNL     1       4.696   4.357  17.419  0.00  0.00    +0.000 A 
ATOM      2  C   UNL     1       4.562   3.057  17.906  0.00  0.00    +0.000 A 
ATOM      3  N   UNL     1       3.781   2.660  18.944  0.00  0.00    +0.000 NA
ATOM      4  C   UNL     1       3.098   3.677  19.498  0.00  0.00    +0.000 A 
ATOM      5  N   UNL     1       2.270   3.546  20.578  0.00  0.00    +0.000 N 
ATOM      6  C   UNL     1       1.736   4.766  20.906  0.00  0.00    +0.000 A 
ATOM      7  C   UNL     1       2.210   5.692  19.996  0.00  0.00    +0.000 A 
ATOM      8  C   UNL     1       3.103   5.015  19.113  0.00  0.00    +0.000 A 
ATOM      9  C   UNL     1       3.943   5.363  18.037  0.00  0.00    +0.000 A 
ATOM     10  H   UNL     1       2.103   2.669  21.048  0.00  0.00    +0.000 HD
ENDROOT
BRANCH   1  14
ATOM     11  C   UNL     1       6.945   4.399  12.991  0.00  0.00    +0.000 C 
ATOM     12  N   UNL     1       6.582   4.665  14.362  0.00  0.00    +0.000 N 
ATOM     13  C   UNL     1       5.529   4.137  15.053  0.00  0.00    +0.000 A 
ATOM     14  C   UNL     1       5.607   4.654  16.331  0.00  0.00    +0.000 A 
ATOM     15  C   UNL     1       6.743   5.496  16.290  0.00  0.00    +0.000 A 
ATOM     16  N   UNL     1       7.338   5.502  15.094  0.00  0.00    +0.000 NA
ENDBRANCH   1  14
BRANCH   7  17
ATOM     17  C   UNL     1       1.877   7.108  19.953  0.00  0.00    +0.000 A 
ATOM     18  C   UNL     1       1.412   7.894  21.023  0.00  0.00    +0.000 A 
ATOM     19  N   UNL     1       1.163   9.155  20.660  0.00  0.00    +0.000 NA
ATOM     20  N   UNL     1       1.512   9.183  19.355  0.00  0.00    +0.000 N 
ATOM     21  C   UNL     1       1.957   7.975  18.888  0.00  0.00    +0.000 A 
BRANCH  20  22
ATOM     22  C   UNL     1       1.298  10.395  18.575  0.00  0.00    +0.000 C 
BRANCH  22  23
ATOM     23  C   UNL     1      -0.159  10.776  18.469  0.00  0.00    +0.000 A 
ATOM     24  C   UNL     1      -0.652  11.935  19.097  0.00  0.00    +0.000 A 
ATOM     25  C   UNL     1      -2.015  12.244  19.061  0.00  0.00    +0.000 A 
ATOM     26  C   UNL     1      -2.893  11.395  18.399  0.00  0.00    +0.000 A 
ATOM     27  F   UNL     1      -4.202  11.681  18.384  0.00  0.00    +0.000 F 
ATOM     28  C   UNL     1      -2.419  10.252  17.769  0.00  0.00    +0.000 A 
ATOM     29  F   UNL     1      -3.267   9.429  17.135  0.00  0.00    +0.000 F 
ATOM     30  C   UNL     1      -1.063   9.936  17.798  0.00  0.00    +0.000 A 
ENDBRANCH  22  23
ENDBRANCH  20  22
ENDBRANCH   7  17
TORSDOF 4
ENDMDL
MODEL 4
REMARK VINA RESULT:      -8.9      4.017      8.521
REMARK  Name = 
REMARK  5 active torsions:
REMARK  status: ('A' for Active; 'I' for Inactive)
REMARK    1  A    between atoms: C_1  and  N_2
REMARK    2  A    between atoms: C_4  and  C_5
REMARK    3  A    between atoms: C_11  and  C_12
REMARK    4  A    between atoms: N_15  and  C_16
REMARK    5  A    between atoms: C_16  and  C_17
REMARK                            x       y       z     vdW  Elec       q    Type
REMARK                         _______ _______ _______ _____ _____    ______ ____
ROOT
ATOM      1  C   UNL     1      -2.888  10.543  16.008  0.00  0.00    +0.000 A 
ATOM      2  C   UNL     1      -3.722  11.413  16.710  0.00  0.00    +0.000 A 
ATOM      3  N   UNL     1      -3.554  11.835  17.990  0.00  0.00    +0.000 NA
ATOM      4  C   UNL     1      -2.449  11.326  18.563  0.00  0.00    +0.000 A 
ATOM      5  N   UNL     1      -2.074  11.570  19.855  0.00  0.00    +0.000 N 
ATOM      6  C   UNL     1      -0.913  10.897  20.138  0.00  0.00    +0.000 A 
ATOM      7  C   UNL     1      -0.521  10.233  18.991  0.00  0.00    +0.000 A 
ATOM      8  C   UNL     1      -1.508  10.474  17.990  0.00  0.00    +0.000 A 
ATOM      9  C   UNL     1      -1.748  10.063  16.664  0.00  0.00    +0.000 A 
ATOM     10  H   UNL     1      -2.600  12.157  20.486  0.00  0.00    +0.000 HD
ENDROOT
BRANCH   1  14
ATOM     11  C   UNL     1      -5.351   9.553  11.810  0.00  0.00    +0.000 C 
ATOM     12  N   UNL     1      -4.318   9.709  12.805  0.00  0.00    +0.000 N 
ATOM     13  C   UNL     1      -4.458  10.213  14.066  0.00  0.00    +0.000 A 
ATOM     14  C   UNL     1      -3.212  10.131  14.655  0.00  0.00    +0.000 A 
ATOM     15  C   UNL     1      -2.394   9.571  13.647  0.00  0.00    +0.000 A 
ATOM     16  N   UNL     1      -3.065   9.312  12.521  0.00  0.00    +0.000 NA
ENDBRANCH   1  14
BRANCH   7  17
ATOM     17  C   UNL     1       0.674   9.417  18.832  0.00  0.00    +0.000 A 
ATOM     18  C   UNL     1       1.611   9.497  17.786  0.00  0.00    +0.000 A 
ATOM     19  N   UNL     1       2.585   8.589  17.903  0.00  0.00    +0.000 NA
ATOM     20  N   UNL     1       2.287   7.954  19.058  0.00  0.00    +0.000 N 
ATOM     21  C   UNL     1       1.150   8.425  19.657  0.00  0.00    +0.000 A 
BRANCH  20  22
ATOM     22  C   UNL     1       3.092   6.818  19.486  0.00  0.00    +0.000 C 
BRANCH  22  23
ATOM     23  C   UNL     1       2.402   5.492  19.271  0.00  0.00    +0.000 A 
ATOM     24  C   UNL     1       2.121   5.023  17.974  0.00  0.00    +0.000 A 
ATOM     25  C   UNL     1       1.414   3.833  17.780  0.00  0.00    +0.000 A 
ATOM     26  C   UNL     1       0.981   3.106  18.882  0.00  0.00    +0.000 A 
ATOM     27  F   UNL     1       0.284   1.977  18.695  0.00  0.00    +0.000 F 
ATOM     28  C   UNL     1       1.257   3.553  20.167  0.00  0.00    +0.000 A 
ATOM     29  F   UNL     1       0.835   2.854  21.231  0.00  0.00    +0.000 F 
ATOM     30  C   UNL     1       1.963   4.737  20.371  0.00  0.00    +0.000 A 
ENDBRANCH  22  23
ENDBRANCH  20  22
ENDBRANCH   7  17
TORSDOF 4
ENDMDL
MODEL 5
REMARK VINA RESULT:      -8.9      3.064      3.869
REMARK  Name = 
REMARK  5 active torsions:
REMARK  status: ('A' for Active; 'I' for Inactive)
REMARK    1  A    between atoms: C_1  and  N_2
REMARK    2  A    between atoms: C_4  and  C_5
REMARK    3  A    between atoms: C_11  and  C_12
REMARK    4  A    between atoms: N_15  and  C_16
REMARK    5  A    between atoms: C_16  and  C_17
REMARK                            x       y       z     vdW  Elec       q    Type
REMARK                         _______ _______ _______ _____ _____    ______ ____
ROOT
ATOM      1  C   UNL     1       4.787   4.924  17.499  0.00  0.00    +0.000 A 
ATOM      2  C   UNL     1       4.718   3.865  18.403  0.00  0.00    +0.000 A 
ATOM      3  N   UNL     1       3.978   3.824  19.542  0.00  0.00    +0.000 NA
ATOM      4  C   UNL     1       3.267   4.948  19.740  0.00  0.00    +0.000 A 
ATOM      5  N   UNL     1       2.470   5.169  20.828  0.00  0.00    +0.000 N 
ATOM      6  C   UNL     1       1.894   6.410  20.739  0.00  0.00    +0.000 A 
ATOM      7  C   UNL     1       2.308   6.983  19.552  0.00  0.00    +0.000 A 
ATOM      8  C   UNL     1       3.208   6.073  18.922  0.00  0.00    +0.000 A 
ATOM      9  C   UNL     1       4.008   6.057  17.762  0.00  0.00    +0.000 A 
ATOM     10  H   UNL     1       2.349   4.500  21.576  0.00  0.00    +0.000 HD
ENDROOT
BRANCH   1  14
ATOM     11  C   UNL     1       6.650   3.892  13.011  0.00  0.00    +0.000 C 
ATOM     12  N   UNL     1       6.462   4.399  14.349  0.00  0.00    +0.000 N 
ATOM     13  C   UNL     1       5.368   4.230  15.148  0.00  0.00    +0.000 A 
ATOM     14  C   UNL     1       5.660   4.859  16.342  0.00  0.00    +0.000 A 
ATOM     15  C   UNL     1       6.957   5.385  16.141  0.00  0.00    +0.000 A 
ATOM     16  N   UNL     1       7.447   5.105  14.930  0.00  0.00    +0.000 NA
ENDBRANCH   1  14
BRANCH   7  17
ATOM     17  C   UNL     1       1.917   8.288  19.041  0.00  0.00    +0.000 A 
ATOM     18  C   UNL     1       2.177   8.798  17.756  0.00  0.00    +0.000 A 
ATOM     19  N   UNL     1       1.716  10.042  17.597  0.00  0.00    +0.000 NA
ATOM     20  N   UNL     1       1.120  10.311  18.780  0.00  0.00    +0.000 N 
ATOM     21  C   UNL     1       1.207   9.280  19.676  0.00  0.00    +0.000 A 
BRANCH  20  22
ATOM     22  C   UNL     1       0.562  11.634  19.023  0.00  0.00    +0.000 C 
BRANCH  22  23
ATOM     23  C   UNL     1       1.621  12.692  19.225  0.00  0.00    +0.000 A 
ATOM     24  C   UNL     1       2.094  13.006  20.513  0.00  0.00    +0.000 A 
ATOM     25  C   UNL     1       3.017  14.038  20.704  0.00  0.00    +0.000 A 
ATOM     26  C   UNL     1       3.471  14.763  19.609  0.00  0.00    +0.000 A 
ATOM     27  F   UNL     1       4.340  15.766  19.797  0.00  0.00    +0.000 F 
ATOM     28  C   UNL     1       3.019  14.459  18.333  0.00  0.00    +0.000 A 
ATOM     29  F   UNL     1       3.452  15.162  17.277  0.00  0.00    +0.000 F 
ATOM     30  C   UNL     1       2.099  13.432  18.132  0.00  0.00    +0.000 A 
ENDBRANCH  22  23
ENDBRANCH  20  22
ENDBRANCH   7  17
TORSDOF 4
ENDMDL
MODEL 6
REMARK VINA RESULT:      -8.7      3.747      9.052
REMARK  Name = 
REMARK  5 active torsions:
REMARK  status: ('A' for Active; 'I' for Inactive)
REMARK    1  A    between atoms: C_1  and  N_2
REMARK    2  A    between atoms: C_4  and  C_5
REMARK    3  A    between atoms: C_11  and  C_12
REMARK    4  A    between atoms: N_15  and  C_16
REMARK    5  A    between atoms: C_16  and  C_17
REMARK                            x       y       z     vdW  Elec       q    Type
REMARK                         _______ _______ _______ _____ _____    ______ ____
ROOT
ATOM      1  C   UNL     1      -2.018  10.933  18.433  0.00  0.00    +0.000 A 
ATOM      2  C   UNL     1      -2.297  11.847  19.449  0.00  0.00    +0.000 A 
ATOM      3  N   UNL     1      -1.659  11.945  20.644  0.00  0.00    +0.000 NA
ATOM      4  C   UNL     1      -0.671  11.044  20.780  0.00  0.00    +0.000 A 
ATOM      5  N   UNL     1       0.099  10.914  21.902  0.00  0.00    +0.000 N 
ATOM      6  C   UNL     1       1.006   9.900  21.730  0.00  0.00    +0.000 A 
ATOM      7  C   UNL     1       0.832   9.391  20.458  0.00  0.00    +0.000 A 
ATOM      8  C   UNL     1      -0.254  10.091  19.854  0.00  0.00    +0.000 A 
ATOM      9  C   UNL     1      -0.965  10.033  18.639  0.00  0.00    +0.000 A 
ATOM     10  H   UNL     1      -0.013  11.490  22.724  0.00  0.00    +0.000 HD
ENDROOT
BRANCH   1  14
ATOM     11  C   UNL     1      -3.583  10.028  13.807  0.00  0.00    +0.000 C 
ATOM     12  N   UNL     1      -3.491  10.482  15.173  0.00  0.00    +0.000 N 
ATOM     13  C   UNL     1      -2.480  10.237  16.058  0.00  0.00    +0.000 A 
ATOM     14  C   UNL     1      -2.813  10.902  17.220  0.00  0.00    +0.000 A 
ATOM     15  C   UNL     1      -4.057  11.505  16.924  0.00  0.00    +0.000 A 
ATOM     16  N   UNL     1      -4.470  11.253  15.679  0.00  0.00    +0.000 NA
ENDBRANCH   1  14
BRANCH   7  17
ATOM     17  C   UNL     1       1.603   8.319  19.844  0.00  0.00    +0.000 A 
ATOM     18  C   UNL     1       2.183   8.330  18.563  0.00  0.00    +0.000 A 
ATOM     19  N   UNL     1       2.801   7.182  18.272  0.00  0.00    +0.000 NA
ATOM     20  N   UNL     1       2.649   6.448  19.396  0.00  0.00    +0.000 N 
ATOM     21  C   UNL     1       1.942   7.096  20.374  0.00  0.00    +0.000 A 
BRANCH  20  22
ATOM     22  C   UNL     1       3.128   5.073  19.432  0.00  0.00    +0.000 C 
BRANCH  22  23
ATOM     23  C   UNL     1       4.343   4.850  18.562  0.00  0.00    +0.000 A 
ATOM     24  C   UNL     1       5.639   5.090  19.054  0.00  0.00    +0.000 A 
ATOM     25  C   UNL     1       6.756   4.957  18.223  0.00  0.00    +0.000 A 
ATOM     26  C   UNL     1       6.582   4.586  16.896  0.00  0.00    +0.000 A 
ATOM     27  F   UNL     1       7.651   4.479  16.095  0.00  0.00    +0.000 F 
ATOM     28  C   UNL     1       5.309   4.339  16.399  0.00  0.00    +0.000 A 
ATOM     29  F   UNL     1       5.140   3.986  15.117  0.00  0.00    +0.000 F 
ATOM     30  C   UNL     1       4.190   4.467  17.220  0.00  0.00    +0.000 A 
ENDBRANCH  22  23
ENDBRANCH  20  22
ENDBRANCH   7  17
TORSDOF 4
ENDMDL
MODEL 7
REMARK VINA RESULT:      -8.7      1.306      1.920
REMARK  Name = 
REMARK  5 active torsions:
REMARK  status: ('A' for Active; 'I' for Inactive)
REMARK    1  A    between atoms: C_1  and  N_2
REMARK    2  A    between atoms: C_4  and  C_5
REMARK    3  A    between atoms: C_11  and  C_12
REMARK    4  A    between atoms: N_15  and  C_16
REMARK    5  A    between atoms: C_16  and  C_17
REMARK                            x       y       z     vdW  Elec       q    Type
REMARK                         _______ _______ _______ _____ _____    ______ ____
ROOT
ATOM      1  C   UNL     1       4.493   4.281  17.309  0.00  0.00    +0.000 A 
ATOM      2  C   UNL     1       4.453   3.000  17.859  0.00  0.00    +0.000 A 
ATOM      3  N   UNL     1       3.805   2.628  18.993  0.00  0.00    +0.000 NA
ATOM      4  C   UNL     1       3.157   3.650  19.580  0.00  0.00    +0.000 A 
ATOM      5  N   UNL     1       2.458   3.544  20.750  0.00  0.00    +0.000 N 
ATOM      6  C   UNL     1       1.927   4.763  21.087  0.00  0.00    +0.000 A 
ATOM      7  C   UNL     1       2.268   5.660  20.093  0.00  0.00    +0.000 A 
ATOM      8  C   UNL     1       3.078   4.970  19.143  0.00  0.00    +0.000 A 
ATOM      9  C   UNL     1       3.782   5.293  17.967  0.00  0.00    +0.000 A 
ATOM     10  H   UNL     1       2.371   2.684  21.271  0.00  0.00    +0.000 HD
ENDROOT
BRANCH   1  14
ATOM     11  C   UNL     1       6.607   3.892  12.832  0.00  0.00    +0.000 C 
ATOM     12  N   UNL     1       6.186   4.367  14.127  0.00  0.00    +0.000 N 
ATOM     13  C   UNL     1       5.343   3.742  15.001  0.00  0.00    +0.000 A 
ATOM     14  C   UNL     1       5.268   4.555  16.114  0.00  0.00    +0.000 A 
ATOM     15  C   UNL     1       6.098   5.653  15.792  0.00  0.00    +0.000 A 
ATOM     16  N   UNL     1       6.659   5.540  14.585  0.00  0.00    +0.000 NA
ENDBRANCH   1  14
BRANCH   7  17
ATOM     17  C   UNL     1       1.889   7.064  20.031  0.00  0.00    +0.000 A 
ATOM     18  C   UNL     1       1.385   7.845  21.088  0.00  0.00    +0.000 A 
ATOM     19  N   UNL     1       1.099   9.094  20.708  0.00  0.00    +0.000 NA
ATOM     20  N   UNL     1       1.464   9.120  19.408  0.00  0.00    +0.000 N 
ATOM     21  C   UNL     1       1.955   7.924  18.959  0.00  0.00    +0.000 A 
BRANCH  20  22
ATOM     22  C   UNL     1       1.221  10.317  18.613  0.00  0.00    +0.000 C 
BRANCH  22  23
ATOM     23  C   UNL     1      -0.244  10.675  18.523  0.00  0.00    +0.000 A 
ATOM     24  C   UNL     1      -1.102   9.996  17.638  0.00  0.00    +0.000 A 
ATOM     25  C   UNL     1      -2.439  10.382  17.500  0.00  0.00    +0.000 A 
ATOM     26  C   UNL     1      -2.924  11.450  18.245  0.00  0.00    +0.000 A 
ATOM     27  F   UNL     1      -4.200  11.832  18.096  0.00  0.00    +0.000 F 
ATOM     28  C   UNL     1      -2.090  12.124  19.127  0.00  0.00    +0.000 A 
ATOM     29  F   UNL     1      -2.556  13.158  19.842  0.00  0.00    +0.000 F 
ATOM     30  C   UNL     1      -0.757  11.746  19.272  0.00  0.00    +0.000 A 
ENDBRANCH  22  23
ENDBRANCH  20  22
ENDBRANCH   7  17
TORSDOF 4
ENDMDL
MODEL 8
REMARK VINA RESULT:      -8.7      4.096      8.982
REMARK  Name = 
REMARK  5 active torsions:
REMARK  status: ('A' for Active; 'I' for Inactive)
REMARK    1  A    between atoms: C_1  and  N_2
REMARK    2  A    between atoms: C_4  and  C_5
REMARK    3  A    between atoms: C_11  and  C_12
REMARK    4  A    between atoms: N_15  and  C_16
REMARK    5  A    between atoms: C_16  and  C_17
REMARK                            x       y       z     vdW  Elec       q    Type
REMARK                         _______ _______ _______ _____ _____    ______ ____
ROOT
ATOM      1  C   UNL     1      -1.598  10.703  18.956  0.00  0.00    +0.000 A 
ATOM      2  C   UNL     1      -1.686  11.654  19.972  0.00  0.00    +0.000 A 
ATOM      3  N   UNL     1      -1.000  11.648  21.145  0.00  0.00    +0.000 NA
ATOM      4  C   UNL     1      -0.172  10.594  21.256  0.00  0.00    +0.000 A 
ATOM      5  N   UNL     1       0.603  10.341  22.353  0.00  0.00    +0.000 N 
ATOM      6  C   UNL     1       1.321   9.188  22.161  0.00  0.00    +0.000 A 
ATOM      7  C   UNL     1       1.021   8.711  20.899  0.00  0.00    +0.000 A 
ATOM      8  C   UNL     1       0.047   9.582  20.326  0.00  0.00    +0.000 A 
ATOM      9  C   UNL     1      -0.704   9.639  19.135  0.00  0.00    +0.000 A 
ATOM     10  H   UNL     1       0.617  10.930  23.174  0.00  0.00    +0.000 HD
ENDROOT
BRANCH   1  14
ATOM     11  C   UNL     1      -3.361  10.186  14.342  0.00  0.00    +0.000 C 
ATOM     12  N   UNL     1      -3.195  10.552  15.727  0.00  0.00    +0.000 N 
ATOM     13  C   UNL     1      -2.180  10.182  16.562  0.00  0.00    +0.000 A 
ATOM     14  C   UNL     1      -2.428  10.801  17.771  0.00  0.00    +0.000 A 
ATOM     15  C   UNL     1      -3.632  11.510  17.550  0.00  0.00    +0.000 A 
ATOM     16  N   UNL     1      -4.098  11.362  16.307  0.00  0.00    +0.000 NA
ENDBRANCH   1  14
BRANCH   7  17
ATOM     17  C   UNL     1       1.580   7.523  20.271  0.00  0.00    +0.000 A 
ATOM     18  C   UNL     1       1.481   6.201  20.740  0.00  0.00    +0.000 A 
ATOM     19  N   UNL     1       2.128   5.332  19.957  0.00  0.00    +0.000 NA
ATOM     20  N   UNL     1       2.608   6.104  18.958  0.00  0.00    +0.000 N 
ATOM     21  C   UNL     1       2.294   7.429  19.099  0.00  0.00    +0.000 A 
BRANCH  20  22
ATOM     22  C   UNL     1       3.457   5.513  17.932  0.00  0.00    +0.000 C 
BRANCH  22  23
ATOM     23  C   UNL     1       4.922   5.823  18.131  0.00  0.00    +0.000 A 
ATOM     24  C   UNL     1       5.670   5.176  19.133  0.00  0.00    +0.000 A 
ATOM     25  C   UNL     1       7.005   5.521  19.365  0.00  0.00    +0.000 A 
ATOM     26  C   UNL     1       7.599   6.516  18.598  0.00  0.00    +0.000 A 
ATOM     27  F   UNL     1       8.872   6.860  18.836  0.00  0.00    +0.000 F 
ATOM     28  C   UNL     1       6.875   7.157  17.601  0.00  0.00    +0.000 A 
ATOM     29  F   UNL     1       7.446   8.121  16.865  0.00  0.00    +0.000 F 
ATOM     30  C   UNL     1       5.545   6.819  17.362  0.00  0.00    +0.000 A 
ENDBRANCH  22  23
ENDBRANCH  20  22
ENDBRANCH   7  17
TORSDOF 4
ENDMDL
MODEL 9
REMARK VINA RESULT:      -8.7      3.203      4.061
REMARK  Name = 
REMARK  5 active torsions:
REMARK  status: ('A' for Active; 'I' for Inactive)
REMARK    1  A    between atoms: C_1  and  N_2
REMARK    2  A    between atoms: C_4  and  C_5
REMARK    3  A    between atoms: C_11  and  C_12
REMARK    4  A    between atoms: N_15  and  C_16
REMARK    5  A    between atoms: C_16  and  C_17
REMARK                            x       y       z     vdW  Elec       q    Type
REMARK                         _______ _______ _______ _____ _____    ______ ____
ROOT
ATOM      1  C   UNL     1       4.703   4.819  17.683  0.00  0.00    +0.000 A 
ATOM      2  C   UNL     1       4.583   3.789  18.615  0.00  0.00    +0.000 A 
ATOM      3  N   UNL     1       3.820   3.801  19.739  0.00  0.00    +0.000 NA
ATOM      4  C   UNL     1       3.138   4.950  19.891  0.00  0.00    +0.000 A 
ATOM      5  N   UNL     1       2.326   5.225  20.955  0.00  0.00    +0.000 N 
ATOM      6  C   UNL     1       1.790   6.480  20.820  0.00  0.00    +0.000 A 
ATOM      7  C   UNL     1       2.245   7.006  19.626  0.00  0.00    +0.000 A 
ATOM      8  C   UNL     1       3.129   6.053  19.040  0.00  0.00    +0.000 A 
ATOM      9  C   UNL     1       3.952   5.982  17.899  0.00  0.00    +0.000 A 
ATOM     10  H   UNL     1       2.171   4.582  21.718  0.00  0.00    +0.000 HD
ENDROOT
BRANCH   1  14
ATOM     11  C   UNL     1       6.525   3.883  13.158  0.00  0.00    +0.000 C 
ATOM     12  N   UNL     1       6.380   4.284  14.537  0.00  0.00    +0.000 N 
ATOM     13  C   UNL     1       5.240   4.257  15.288  0.00  0.00    +0.000 A 
ATOM     14  C   UNL     1       5.596   4.696  16.547  0.00  0.00    +0.000 A 
ATOM     15  C   UNL     1       6.979   4.973  16.434  0.00  0.00    +0.000 A 
ATOM     16  N   UNL     1       7.457   4.721  15.213  0.00  0.00    +0.000 NA
ENDBRANCH   1  14
BRANCH   7  17
ATOM     17  C   UNL     1       1.902   8.307  19.071  0.00  0.00    +0.000 A 
ATOM     18  C   UNL     1       2.270   8.803  17.807  0.00  0.00    +0.000 A 
ATOM     19  N   UNL     1       1.830  10.047  17.598  0.00  0.00    +0.000 NA
ATOM     20  N   UNL     1       1.139  10.330  18.724  0.00  0.00    +0.000 N 
ATOM     21  C   UNL     1       1.147   9.309  19.635  0.00  0.00    +0.000 A 
BRANCH  20  22
ATOM     22  C   UNL     1       0.569  11.658  18.907  0.00  0.00    +0.000 C 
BRANCH  22  23
ATOM     23  C   UNL     1       1.616  12.721  19.145  0.00  0.00    +0.000 A 
ATOM     24  C   UNL     1       2.254  13.362  18.068  0.00  0.00    +0.000 A 
ATOM     25  C   UNL     1       3.277  14.289  18.291  0.00  0.00    +0.000 A 
ATOM     26  C   UNL     1       3.668  14.578  19.592  0.00  0.00    +0.000 A 
ATOM     27  F   UNL     1       4.663  15.451  19.804  0.00  0.00    +0.000 F 
ATOM     28  C   UNL     1       3.042  13.958  20.665  0.00  0.00    +0.000 A 
ATOM     29  F   UNL     1       3.423  14.232  21.921  0.00  0.00    +0.000 F 
ATOM     30  C   UNL     1       2.021  13.034  20.453  0.00  0.00    +0.000 A 
ENDBRANCH  22  23
ENDBRANCH  20  22
ENDBRANCH   7  17
TORSDOF 4
ENDMDL
