MODEL 1
REMARK VINA RESULT:      -8.9      0.000      0.000
REMARK  Name = 
REMARK  5 active torsions:
REMARK  status: ('A' for Active; 'I' for Inactive)
REMARK    1  A    between atoms: C_1  and  C_2
REMARK    2  A    between atoms: N_4  and  C_5
REMARK    3  A    between atoms: C_7  and  C_8
REMARK    4  A    between atoms: C_22  and  S_23
REMARK    5  A    between atoms: S_23  and  C_24
REMARK                            x       y       z     vdW  Elec       q    Type
REMARK                         _______ _______ _______ _____ _____    ______ ____
ROOT
ATOM      1  C   UNL     1       2.069   6.680  20.014  0.00  0.00    +0.000 A 
ATOM      2  C   UNL     1       1.393   7.733  20.653  0.00  0.00    +0.000 A 
ATOM      3  C   UNL     1       1.127   8.930  19.973  0.00  0.00    +0.000 A 
ATOM      4  C   UNL     1       1.571   9.069  18.654  0.00  0.00    +0.000 A 
ATOM      5  C   UNL     1       2.174   7.997  17.988  0.00  0.00    +0.000 A 
ATOM      6  C   UNL     1       2.433   6.798  18.659  0.00  0.00    +0.000 A 
ENDROOT
BRANCH   3   7
ATOM      7  C   UNL     1       0.505  10.062  20.731  0.00  0.00    +0.000 C 
ATOM      8  O   UNL     1      -0.252   9.756  21.650  0.00  0.00    +0.000 OA
ATOM      9  N   UNL     1       0.776  11.394  20.394  0.00  0.00    +0.000 N 
ATOM     10  C   UNL     1       0.297  12.450  21.292  0.00  0.00    +0.000 C 
ATOM     11  C   UNL     1      -0.424  13.556  20.530  0.00  0.00    +0.000 C 
ATOM     12  C   UNL     1       0.442  14.096  19.394  0.00  0.00    +0.000 C 
ATOM     13  C   UNL     1       0.909  12.962  18.489  0.00  0.00    +0.000 C 
ATOM     14  C   UNL     1       1.595  11.861  19.278  0.00  0.00    +0.000 C 
ATOM     15  O   UNL     1       1.579  14.787  19.944  0.00  0.00    +0.000 OA
ATOM     16  C   UNL     1       1.671  15.996  19.192  0.00  0.00    +0.000 C 
ATOM     17  C   UNL     1       0.244  16.294  18.827  0.00  0.00    +0.000 C 
ATOM     18  O   UNL     1      -0.324  15.009  18.588  0.00  0.00    +0.000 OA
ENDBRANCH   3   7
BRANCH   1  22
ATOM     19  C   UNL     1       2.245   3.380  21.805  0.00  0.00    +0.000 C 
ATOM     20  C   UNL     1       1.671   4.401  20.860  0.00  0.00    +0.000 C 
ATOM     21  O   UNL     1       0.642   4.188  20.227  0.00  0.00    +0.000 OA
ATOM     22  N   UNL     1       2.456   5.530  20.739  0.00  0.00    +0.000 N 
ATOM     23  H   UNL     1       3.452   5.416  20.898  0.00  0.00    +0.000 HD
ENDBRANCH   1  22
BRANCH   6  24
ATOM     24  S   UNL     1       3.273   5.477  17.777  0.00  0.00    +0.000 S 
BRANCH  24  25
ATOM     25  C   UNL     1       5.009   5.795  18.059  0.00  0.00    +0.000 A 
ATOM     26  C   UNL     1       5.642   6.747  17.242  0.00  0.00    +0.000 A 
ATOM     27  C   UNL     1       6.966   7.140  17.486  0.00  0.00    +0.000 A 
ATOM     28  C   UNL     1       7.658   6.577  18.552  0.00  0.00    +0.000 A 
ATOM     29  F   UNL     1       8.912   6.973  18.804  0.00  0.00    +0.000 F 
ATOM     30  C   UNL     1       7.061   5.627  19.356  0.00  0.00    +0.000 A 
ATOM     31  C   UNL     1       5.739   5.236  19.116  0.00  0.00    +0.000 A 
ENDBRANCH  24  25
ENDBRANCH   6  24
TORSDOF 4
ENDMDL
MODEL 2
REMARK VINA RESULT:      -8.8      2.684      3.215
REMARK  Name = 
REMARK  5 active torsions:
REMARK  status: ('A' for Active; 'I' for Inactive)
REMARK    1  A    between atoms: C_1  and  C_2
REMARK    2  A    between atoms: N_4  and  C_5
REMARK    3  A    between atoms: C_7  and  C_8
REMARK    4  A    between atoms: C_22  and  S_23
REMARK    5  A    between atoms: S_23  and  C_24
REMARK                            x       y       z     vdW  Elec       q    Type
REMARK                         _______ _______ _______ _____ _____    ______ ____
ROOT
ATOM      1  C   UNL     1       2.224   6.765  19.520  0.00  0.00    +0.000 A 
ATOM      2  C   UNL     1       1.411   7.861  19.854  0.00  0.00    +0.000 A 
ATOM      3  C   UNL     1       1.266   8.941  18.971  0.00  0.00    +0.000 A 
ATOM      4  C   UNL     1       1.968   8.921  17.762  0.00  0.00    +0.000 A 
ATOM      5  C   UNL     1       2.716   7.800  17.389  0.00  0.00    +0.000 A 
ATOM      6  C   UNL     1       2.855   6.717  18.262  0.00  0.00    +0.000 A 
ENDROOT
BRANCH   3   7
ATOM      7  C   UNL     1       0.480  10.134  19.421  0.00  0.00    +0.000 C 
ATOM      8  O   UNL     1       0.917  10.742  20.397  0.00  0.00    +0.000 OA
ATOM      9  N   UNL     1      -0.692  10.519  18.760  0.00  0.00    +0.000 N 
ATOM     10  C   UNL     1      -1.306  11.802  19.121  0.00  0.00    +0.000 C 
ATOM     11  C   UNL     1      -2.802  11.662  19.373  0.00  0.00    +0.000 C 
ATOM     12  C   UNL     1      -3.499  10.988  18.193  0.00  0.00    +0.000 C 
ATOM     13  C   UNL     1      -2.828   9.660  17.862  0.00  0.00    +0.000 C 
ATOM     14  C   UNL     1      -1.334   9.824  17.646  0.00  0.00    +0.000 C 
ATOM     15  O   UNL     1      -3.456  11.860  17.049  0.00  0.00    +0.000 OA
ATOM     16  C   UNL     1      -4.775  11.817  16.506  0.00  0.00    +0.000 C 
ATOM     17  C   UNL     1      -5.643  11.585  17.710  0.00  0.00    +0.000 C 
ATOM     18  O   UNL     1      -4.870  10.711  18.528  0.00  0.00    +0.000 OA
ENDBRANCH   3   7
BRANCH   1  22
ATOM     19  C   UNL     1       2.129   3.712  21.710  0.00  0.00    +0.000 C 
ATOM     20  C   UNL     1       1.764   4.563  20.524  0.00  0.00    +0.000 C 
ATOM     21  O   UNL     1       0.960   4.183  19.679  0.00  0.00    +0.000 OA
ATOM     22  N   UNL     1       2.477   5.744  20.464  0.00  0.00    +0.000 N 
ATOM     23  H   UNL     1       3.398   5.747  20.889  0.00  0.00    +0.000 HD
ENDBRANCH   1  22
BRANCH   6  24
ATOM     24  S   UNL     1       3.885   5.331  17.764  0.00  0.00    +0.000 S 
BRANCH  24  25
ATOM     25  C   UNL     1       5.553   5.888  18.076  0.00  0.00    +0.000 A 
ATOM     26  C   UNL     1       6.036   6.969  17.318  0.00  0.00    +0.000 A 
ATOM     27  C   UNL     1       7.287   7.541  17.592  0.00  0.00    +0.000 A 
ATOM     28  C   UNL     1       8.057   7.029  18.629  0.00  0.00    +0.000 A 
ATOM     29  F   UNL     1       9.237   7.593  18.912  0.00  0.00    +0.000 F 
ATOM     30  C   UNL     1       7.609   5.957  19.375  0.00  0.00    +0.000 A 
ATOM     31  C   UNL     1       6.360   5.386  19.104  0.00  0.00    +0.000 A 
ENDBRANCH  24  25
ENDBRANCH   6  24
TORSDOF 4
ENDMDL
MODEL 3
REMARK VINA RESULT:      -8.3      2.911      3.558
REMARK  Name = 
REMARK  5 active torsions:
REMARK  status: ('A' for Active; 'I' for Inactive)
REMARK    1  A    between atoms: C_1  and  C_2
REMARK    2  A    between atoms: N_4  and  C_5
REMARK    3  A    between atoms: C_7  and  C_8
REMARK    4  A    between atoms: C_22  and  S_23
REMARK    5  A    between atoms: S_23  and  C_24
REMARK                            x       y       z     vdW  Elec       q    Type
REMARK                         _______ _______ _______ _____ _____    ______ ____
ROOT
ATOM      1  C   UNL     1       2.396   6.049  19.849  0.00  0.00    +0.000 A 
ATOM      2  C   UNL     1       1.682   7.247  20.022  0.00  0.00    +0.000 A 
ATOM      3  C   UNL     1       1.843   8.312  19.124  0.00  0.00    +0.000 A 
ATOM      4  C   UNL     1       2.748   8.172  18.067  0.00  0.00    +0.000 A 
ATOM      5  C   UNL     1       3.401   6.956  17.844  0.00  0.00    +0.000 A 
ATOM      6  C   UNL     1       3.237   5.887  18.731  0.00  0.00    +0.000 A 
ENDROOT
BRANCH   3   7
ATOM      7  C   UNL     1       1.147   9.607  19.416  0.00  0.00    +0.000 C 
ATOM      8  O   UNL     1       1.561  10.245  20.382  0.00  0.00    +0.000 OA
ATOM      9  N   UNL     1       0.080  10.048  18.626  0.00  0.00    +0.000 N 
ATOM     10  C   UNL     1      -0.428  11.408  18.839  0.00  0.00    +0.000 C 
ATOM     11  C   UNL     1      -1.947  11.431  18.963  0.00  0.00    +0.000 C 
ATOM     12  C   UNL     1      -2.607  10.735  17.775  0.00  0.00    +0.000 C 
ATOM     13  C   UNL     1      -2.050   9.327  17.600  0.00  0.00    +0.000 C 
ATOM     14  C   UNL     1      -0.534   9.331  17.510  0.00  0.00    +0.000 C 
ATOM     15  O   UNL     1      -2.381  11.506  16.581  0.00  0.00    +0.000 OA
ATOM     16  C   UNL     1      -3.647  11.546  15.925  0.00  0.00    +0.000 C 
ATOM     17  C   UNL     1      -4.632  11.494  17.059  0.00  0.00    +0.000 C 
ATOM     18  O   UNL     1      -4.022  10.618  18.003  0.00  0.00    +0.000 OA
ENDBRANCH   3   7
BRANCH   1  22
ATOM     19  C   UNL     1       1.513   3.085  21.985  0.00  0.00    +0.000 C 
ATOM     20  C   UNL     1       1.490   3.942  20.748  0.00  0.00    +0.000 C 
ATOM     21  O   UNL     1       0.826   3.637  19.763  0.00  0.00    +0.000 OA
ATOM     22  N   UNL     1       2.336   5.030  20.827  0.00  0.00    +0.000 N 
ATOM     23  H   UNL     1       3.152   4.936  21.424  0.00  0.00    +0.000 HD
ENDBRANCH   1  22
BRANCH   6  24
ATOM     24  S   UNL     1       4.153   4.370  18.438  0.00  0.00    +0.000 S 
BRANCH  24  25
ATOM     25  C   UNL     1       5.128   4.720  16.982  0.00  0.00    +0.000 A 
ATOM     26  C   UNL     1       6.420   5.242  17.168  0.00  0.00    +0.000 A 
ATOM     27  C   UNL     1       7.289   5.423  16.082  0.00  0.00    +0.000 A 
ATOM     28  C   UNL     1       6.862   5.080  14.805  0.00  0.00    +0.000 A 
ATOM     29  F   UNL     1       7.700   5.223  13.771  0.00  0.00    +0.000 F 
ATOM     30  C   UNL     1       5.591   4.582  14.597  0.00  0.00    +0.000 A 
ATOM     31  C   UNL     1       4.724   4.398  15.681  0.00  0.00    +0.000 A 
ENDBRANCH  24  25
ENDBRANCH   6  24
TORSDOF 4
ENDMDL
MODEL 4
REMARK VINA RESULT:      -8.3      4.439      8.913
REMARK  Name = 
REMARK  5 active torsions:
REMARK  status: ('A' for Active; 'I' for Inactive)
REMARK    1  A    between atoms: C_1  and  C_2
REMARK    2  A    between atoms: N_4  and  C_5
REMARK    3  A    between atoms: C_7  and  C_8
REMARK    4  A    between atoms: C_22  and  S_23
REMARK    5  A    between atoms: S_23  and  C_24
REMARK                            x       y       z     vdW  Elec       q    Type
REMARK                         _______ _______ _______ _____ _____    ______ ____
ROOT
ATOM      1  C   UNL     1       0.998   9.150  20.106  0.00  0.00    +0.000 A 
ATOM      2  C   UNL     1       1.736   7.956  20.039  0.00  0.00    +0.000 A 
ATOM      3  C   UNL     1       2.495   7.647  18.902  0.00  0.00    +0.000 A 
ATOM      4  C   UNL     1       2.483   8.535  17.821  0.00  0.00    +0.000 A 
ATOM      5  C   UNL     1       1.815   9.760  17.912  0.00  0.00    +0.000 A 
ATOM      6  C   UNL     1       1.064  10.077  19.049  0.00  0.00    +0.000 A 
ENDROOT
BRANCH   3   7
ATOM      7  C   UNL     1       3.172   6.312  18.832  0.00  0.00    +0.000 C 
ATOM      8  O   UNL     1       3.119   5.618  19.846  0.00  0.00    +0.000 OA
ATOM      9  N   UNL     1       3.832   5.895  17.671  0.00  0.00    +0.000 N 
ATOM     10  C   UNL     1       4.302   4.507  17.598  0.00  0.00    +0.000 C 
ATOM     11  C   UNL     1       5.751   4.425  17.131  0.00  0.00    +0.000 C 
ATOM     12  C   UNL     1       5.951   5.184  15.821  0.00  0.00    +0.000 C 
ATOM     13  C   UNL     1       5.452   6.619  15.950  0.00  0.00    +0.000 C 
ATOM     14  C   UNL     1       4.018   6.672  16.447  0.00  0.00    +0.000 C 
ATOM     15  O   UNL     1       5.244   4.511  14.763  0.00  0.00    +0.000 OA
ATOM     16  C   UNL     1       6.162   4.478  13.672  0.00  0.00    +0.000 C 
ATOM     17  C   UNL     1       7.505   4.414  14.344  0.00  0.00    +0.000 C 
ATOM     18  O   UNL     1       7.351   5.238  15.497  0.00  0.00    +0.000 OA
ENDBRANCH   3   7
BRANCH   1  22
ATOM     19  C   UNL     1      -0.582   9.631  23.483  0.00  0.00    +0.000 C 
ATOM     20  C   UNL     1       0.554   9.521  22.501  0.00  0.00    +0.000 C 
ATOM     21  O   UNL     1       1.725   9.606  22.855  0.00  0.00    +0.000 OA
ATOM     22  N   UNL     1       0.129   9.397  21.193  0.00  0.00    +0.000 N 
ATOM     23  H   UNL     1      -0.771   9.806  20.961  0.00  0.00    +0.000 HD
ENDBRANCH   1  22
BRANCH   6  24
ATOM     24  S   UNL     1       0.168  11.634  19.086  0.00  0.00    +0.000 S 
BRANCH  24  25
ATOM     25  C   UNL     1      -1.503  11.190  18.632  0.00  0.00    +0.000 A 
ATOM     26  C   UNL     1      -2.550  11.984  19.132  0.00  0.00    +0.000 A 
ATOM     27  C   UNL     1      -3.874  11.774  18.719  0.00  0.00    +0.000 A 
ATOM     28  C   UNL     1      -4.150  10.767  17.802  0.00  0.00    +0.000 A 
ATOM     29  F   UNL     1      -5.408  10.585  17.384  0.00  0.00    +0.000 F 
ATOM     30  C   UNL     1      -3.138   9.965  17.312  0.00  0.00    +0.000 A 
ATOM     31  C   UNL     1      -1.816  10.174  17.722  0.00  0.00    +0.000 A 
ENDBRANCH  24  25
ENDBRANCH   6  24
TORSDOF 4
ENDMDL
MODEL 5
REMARK VINA RESULT:      -8.3      4.401      9.112
REMARK  Name = 
REMARK  5 active torsions:
REMARK  status: ('A' for Active; 'I' for Inactive)
REMARK    1  A    between atoms: C_1  and  C_2
REMARK    2  A    between atoms: N_4  and  C_5
REMARK    3  A    between atoms: C_7  and  C_8
REMARK    4  A    between atoms: C_22  and  S_23
REMARK    5  A    between atoms: S_23  and  C_24
REMARK                            x       y       z     vdW  Elec       q    Type
REMARK                         _______ _______ _______ _____ _____    ______ ____
ROOT
ATOM      1  C   UNL     1       0.164  10.070  20.205  0.00  0.00    +0.000 A 
ATOM      2  C   UNL     1       0.855   8.875  20.468  0.00  0.00    +0.000 A 
ATOM      3  C   UNL     1       1.631   8.261  19.475  0.00  0.00    +0.000 A 
ATOM      4  C   UNL     1       1.684   8.846  18.205  0.00  0.00    +0.000 A 
ATOM      5  C   UNL     1       1.065  10.075  17.959  0.00  0.00    +0.000 A 
ATOM      6  C   UNL     1       0.298  10.695  18.950  0.00  0.00    +0.000 A 
ENDROOT
BRANCH   3   7
ATOM      7  C   UNL     1       2.254   6.931  19.770  0.00  0.00    +0.000 C 
ATOM      8  O   UNL     1       1.911   6.386  20.818  0.00  0.00    +0.000 OA
ATOM      9  N   UNL     1       3.183   6.357  18.895  0.00  0.00    +0.000 N 
ATOM     10  C   UNL     1       3.606   4.974  19.138  0.00  0.00    +0.000 C 
ATOM     11  C   UNL     1       5.122   4.830  19.089  0.00  0.00    +0.000 C 
ATOM     12  C   UNL     1       5.688   5.399  17.790  0.00  0.00    +0.000 C 
ATOM     13  C   UNL     1       5.225   6.836  17.587  0.00  0.00    +0.000 C 
ATOM     14  C   UNL     1       3.713   6.955  17.671  0.00  0.00    +0.000 C 
ATOM     15  O   UNL     1       5.263   4.583  16.684  0.00  0.00    +0.000 OA
ATOM     16  C   UNL     1       6.435   4.399  15.892  0.00  0.00    +0.000 C 
ATOM     17  C   UNL     1       7.549   4.433  16.900  0.00  0.00    +0.000 C 
ATOM     18  O   UNL     1       7.126   5.409  17.847  0.00  0.00    +0.000 OA
ENDBRANCH   3   7
BRANCH   1  22
ATOM     19  C   UNL     1      -1.459  11.939  23.032  0.00  0.00    +0.000 C 
ATOM     20  C   UNL     1      -0.391  11.649  22.012  0.00  0.00    +0.000 C 
ATOM     21  O   UNL     1       0.627  12.329  21.929  0.00  0.00    +0.000 OA
ATOM     22  N   UNL     1      -0.723  10.613  21.161  0.00  0.00    +0.000 N 
ATOM     23  H   UNL     1      -1.711  10.453  20.994  0.00  0.00    +0.000 HD
ENDBRANCH   1  22
BRANCH   6  24
ATOM     24  S   UNL     1      -0.535  12.239  18.560  0.00  0.00    +0.000 S 
BRANCH  24  25
ATOM     25  C   UNL     1      -2.230  11.760  18.258  0.00  0.00    +0.000 A 
ATOM     26  C   UNL     1      -3.199  12.153  19.197  0.00  0.00    +0.000 A 
ATOM     27  C   UNL     1      -4.563  11.923  18.964  0.00  0.00    +0.000 A 
ATOM     28  C   UNL     1      -4.958  11.299  17.787  0.00  0.00    +0.000 A 
ATOM     29  F   UNL     1      -6.261  11.106  17.550  0.00  0.00    +0.000 F 
ATOM     30  C   UNL     1      -4.021  10.890  16.860  0.00  0.00    +0.000 A 
ATOM     31  C   UNL     1      -2.660  11.120  17.089  0.00  0.00    +0.000 A 
ENDBRANCH  24  25
ENDBRANCH   6  24
TORSDOF 4
ENDMDL
MODEL 6
REMARK VINA RESULT:      -8.2      2.464      3.365
REMARK  Name = 
REMARK  5 active torsions:
REMARK  status: ('A' for Active; 'I' for Inactive)
REMARK    1  A    between atoms: C_1  and  C_2
REMARK    2  A    between atoms: N_4  and  C_5
REMARK    3  A    between atoms: C_7  and  C_8
REMARK    4  A    between atoms: C_22  and  S_23
REMARK    5  A    between atoms: S_23  and  C_24
REMARK                            x       y       z     vdW  Elec       q    Type
REMARK                         _______ _______ _______ _____ _____    ______ ____
ROOT
ATOM      1  C   UNL     1       2.815   6.094  19.539  0.00  0.00    +0.000 A 
ATOM      2  C   UNL     1       1.793   7.036  19.328  0.00  0.00    +0.000 A 
ATOM      3  C   UNL     1       1.940   8.051  18.372  0.00  0.00    +0.000 A 
ATOM      4  C   UNL     1       3.134   8.127  17.649  0.00  0.00    +0.000 A 
ATOM      5  C   UNL     1       4.122   7.148  17.797  0.00  0.00    +0.000 A 
ATOM      6  C   UNL     1       3.976   6.129  18.742  0.00  0.00    +0.000 A 
ENDROOT
BRANCH   3   7
ATOM      7  C   UNL     1       0.872   9.095  18.266  0.00  0.00    +0.000 C 
ATOM      8  O   UNL     1       0.502   9.387  17.130  0.00  0.00    +0.000 OA
ATOM      9  N   UNL     1       0.339   9.705  19.408  0.00  0.00    +0.000 N 
ATOM     10  C   UNL     1      -0.835  10.571  19.252  0.00  0.00    +0.000 C 
ATOM     11  C   UNL     1      -0.653  11.903  19.968  0.00  0.00    +0.000 C 
ATOM     12  C   UNL     1      -0.267  11.694  21.431  0.00  0.00    +0.000 C 
ATOM     13  C   UNL     1       0.958  10.794  21.538  0.00  0.00    +0.000 C 
ATOM     14  C   UNL     1       0.762   9.487  20.790  0.00  0.00    +0.000 C 
ATOM     15  O   UNL     1      -1.373  11.107  22.140  0.00  0.00    +0.000 OA
ATOM     16  C   UNL     1      -1.463  11.848  23.356  0.00  0.00    +0.000 C 
ATOM     17  C   UNL     1      -0.974  13.216  22.971  0.00  0.00    +0.000 C 
ATOM     18  O   UNL     1       0.067  12.957  22.033  0.00  0.00    +0.000 OA
ENDBRANCH   3   7
BRANCH   1  22
ATOM     19  C   UNL     1       1.956   3.226  21.810  0.00  0.00    +0.000 C 
ATOM     20  C   UNL     1       2.022   3.971  20.504  0.00  0.00    +0.000 C 
ATOM     21  O   UNL     1       1.550   3.509  19.471  0.00  0.00    +0.000 OA
ATOM     22  N   UNL     1       2.723   5.158  20.593  0.00  0.00    +0.000 N 
ATOM     23  H   UNL     1       3.446   5.213  21.303  0.00  0.00    +0.000 HD
ENDBRANCH   1  22
BRANCH   6  24
ATOM     24  S   UNL     1       5.306   4.937  18.942  0.00  0.00    +0.000 S 
BRANCH  24  25
ATOM     25  C   UNL     1       5.876   4.631  17.276  0.00  0.00    +0.000 A 
ATOM     26  C   UNL     1       4.976   4.037  16.374  0.00  0.00    +0.000 A 
ATOM     27  C   UNL     1       5.308   3.882  15.020  0.00  0.00    +0.000 A 
ATOM     28  C   UNL     1       6.546   4.324  14.568  0.00  0.00    +0.000 A 
ATOM     29  F   UNL     1       6.853   4.204  13.271  0.00  0.00    +0.000 F 
ATOM     30  C   UNL     1       7.451   4.895  15.441  0.00  0.00    +0.000 A 
ATOM     31  C   UNL     1       7.120   5.052  16.791  0.00  0.00    +0.000 A 
ENDBRANCH  24  25
ENDBRANCH   6  24
TORSDOF 4
ENDMDL
MODEL 7
REMARK VINA RESULT:      -8.1      1.781      2.107
REMARK  Name = 
REMARK  5 active torsions:
REMARK  status: ('A' for Active; 'I' for Inactive)
REMARK    1  A    between atoms: C_1  and  C_2
REMARK    2  A    between atoms: N_4  and  C_5
REMARK    3  A    between atoms: C_7  and  C_8
REMARK    4  A    between atoms: C_22  and  S_23
REMARK    5  A    between atoms: S_23  and  C_24
REMARK                            x       y       z     vdW  Elec       q    Type
REMARK                         _______ _______ _______ _____ _____    ______ ____
ROOT
ATOM      1  C   UNL     1       2.039   6.460  20.365  0.00  0.00    +0.000 A 
ATOM      2  C   UNL     1       1.445   7.369  21.256  0.00  0.00    +0.000 A 
ATOM      3  C   UNL     1       1.150   8.679  20.853  0.00  0.00    +0.000 A 
ATOM      4  C   UNL     1       1.483   9.075  19.553  0.00  0.00    +0.000 A 
ATOM      5  C   UNL     1       2.001   8.154  18.638  0.00  0.00    +0.000 A 
ATOM      6  C   UNL     1       2.288   6.843  19.033  0.00  0.00    +0.000 A 
ENDROOT
BRANCH   3   7
ATOM      7  C   UNL     1       0.623   9.642  21.872  0.00  0.00    +0.000 C 
ATOM      8  O   UNL     1       0.854   9.374  23.050  0.00  0.00    +0.000 OA
ATOM      9  N   UNL     1      -0.100  10.777  21.489  0.00  0.00    +0.000 N 
ATOM     10  C   UNL     1      -0.417  11.779  22.513  0.00  0.00    +0.000 C 
ATOM     11  C   UNL     1      -1.887  12.181  22.474  0.00  0.00    +0.000 C 
ATOM     12  C   UNL     1      -2.301  12.621  21.072  0.00  0.00    +0.000 C 
ATOM     13  C   UNL     1      -1.955  11.546  20.048  0.00  0.00    +0.000 C 
ATOM     14  C   UNL     1      -0.493  11.143  20.130  0.00  0.00    +0.000 C 
ATOM     15  O   UNL     1      -1.632  13.851  20.739  0.00  0.00    +0.000 OA
ATOM     16  C   UNL     1      -2.646  14.675  20.164  0.00  0.00    +0.000 C 
ATOM     17  C   UNL     1      -3.899  14.231  20.865  0.00  0.00    +0.000 C 
ATOM     18  O   UNL     1      -3.723  12.825  21.025  0.00  0.00    +0.000 OA
ENDBRANCH   3   7
BRANCH   1  22
ATOM     19  C   UNL     1       2.285   2.876  21.470  0.00  0.00    +0.000 C 
ATOM     20  C   UNL     1       1.649   4.068  20.807  0.00  0.00    +0.000 C 
ATOM     21  O   UNL     1       0.549   3.998  20.268  0.00  0.00    +0.000 OA
ATOM     22  N   UNL     1       2.459   5.186  20.811  0.00  0.00    +0.000 N 
ATOM     23  H   UNL     1       3.461   5.028  20.829  0.00  0.00    +0.000 HD
ENDBRANCH   1  22
BRANCH   6  24
ATOM     24  S   UNL     1       3.018   5.719  17.836  0.00  0.00    +0.000 S 
BRANCH  24  25
ATOM     25  C   UNL     1       4.779   5.911  18.070  0.00  0.00    +0.000 A 
ATOM     26  C   UNL     1       5.451   6.838  17.255  0.00  0.00    +0.000 A 
ATOM     27  C   UNL     1       6.806   7.134  17.465  0.00  0.00    +0.000 A 
ATOM     28  C   UNL     1       7.490   6.499  18.495  0.00  0.00    +0.000 A 
ATOM     29  F   UNL     1       8.774   6.802  18.716  0.00  0.00    +0.000 F 
ATOM     30  C   UNL     1       6.853   5.573  19.296  0.00  0.00    +0.000 A 
ATOM     31  C   UNL     1       5.501   5.278  19.090  0.00  0.00    +0.000 A 
ENDBRANCH  24  25
ENDBRANCH   6  24
TORSDOF 4
ENDMDL
MODEL 8
REMARK VINA RESULT:      -8.0      3.848      9.104
REMARK  Name = 
REMARK  5 active torsions:
REMARK  status: ('A' for Active; 'I' for Inactive)
REMARK    1  A    between atoms: C_1  and  C_2
REMARK    2  A    between atoms: N_4  and  C_5
REMARK    3  A    between atoms: C_7  and  C_8
REMARK    4  A    between atoms: C_22  and  S_23
REMARK    5  A    between atoms: S_23  and  C_24
REMARK                            x       y       z     vdW  Elec       q    Type
REMARK                         _______ _______ _______ _____ _____    ______ ____
ROOT
ATOM      1  C   UNL     1      -0.355  10.219  18.361  0.00  0.00    +0.000 A 
ATOM      2  C   UNL     1       0.596   9.354  17.795  0.00  0.00    +0.000 A 
ATOM      3  C   UNL     1       1.610   8.790  18.582  0.00  0.00    +0.000 A 
ATOM      4  C   UNL     1       1.676   9.125  19.939  0.00  0.00    +0.000 A 
ATOM      5  C   UNL     1       0.687   9.922  20.525  0.00  0.00    +0.000 A 
ATOM      6  C   UNL     1      -0.331  10.479  19.746  0.00  0.00    +0.000 A 
ENDROOT
BRANCH   3   7
ATOM      7  C   UNL     1       2.665   7.966  17.910  0.00  0.00    +0.000 C 
ATOM      8  O   UNL     1       3.237   8.483  16.953  0.00  0.00    +0.000 OA
ATOM      9  N   UNL     1       2.966   6.673  18.355  0.00  0.00    +0.000 N 
ATOM     10  C   UNL     1       4.137   5.996  17.786  0.00  0.00    +0.000 C 
ATOM     11  C   UNL     1       3.807   4.578  17.337  0.00  0.00    +0.000 C 
ATOM     12  C   UNL     1       3.156   3.780  18.465  0.00  0.00    +0.000 C 
ATOM     13  C   UNL     1       1.945   4.522  19.017  0.00  0.00    +0.000 C 
ATOM     14  C   UNL     1       2.295   5.942  19.428  0.00  0.00    +0.000 C 
ATOM     15  O   UNL     1       4.117   3.559  19.513  0.00  0.00    +0.000 OA
ATOM     16  C   UNL     1       3.968   2.184  19.862  0.00  0.00    +0.000 C 
ATOM     17  C   UNL     1       3.541   1.538  18.574  0.00  0.00    +0.000 C 
ATOM     18  O   UNL     1       2.698   2.512  17.965  0.00  0.00    +0.000 OA
ENDBRANCH   3   7
BRANCH   1  22
ATOM     19  C   UNL     1      -3.276  11.224  16.221  0.00  0.00    +0.000 C 
ATOM     20  C   UNL     1      -2.534  10.383  17.225  0.00  0.00    +0.000 C 
ATOM     21  O   UNL     1      -3.041   9.391  17.738  0.00  0.00    +0.000 OA
ATOM     22  N   UNL     1      -1.291  10.892  17.544  0.00  0.00    +0.000 N 
ATOM     23  H   UNL     1      -1.169  11.896  17.460  0.00  0.00    +0.000 HD
ENDBRANCH   1  22
BRANCH   6  24
ATOM     24  S   UNL     1      -1.536  11.553  20.535  0.00  0.00    +0.000 S 
BRANCH  24  25
ATOM     25  C   UNL     1      -0.741  13.152  20.576  0.00  0.00    +0.000 A 
ATOM     26  C   UNL     1      -0.116  13.543  21.773  0.00  0.00    +0.000 A 
ATOM     27  C   UNL     1       0.635  14.726  21.842  0.00  0.00    +0.000 A 
ATOM     28  C   UNL     1       0.761  15.519  20.708  0.00  0.00    +0.000 A 
ATOM     29  F   UNL     1       1.502  16.632  20.763  0.00  0.00    +0.000 F 
ATOM     30  C   UNL     1       0.141  15.162  19.527  0.00  0.00    +0.000 A 
ATOM     31  C   UNL     1      -0.606  13.981  19.456  0.00  0.00    +0.000 A 
ENDBRANCH  24  25
ENDBRANCH   6  24
TORSDOF 4
ENDMDL
MODEL 9
REMARK VINA RESULT:      -7.9      3.341      8.429
REMARK  Name = 
REMARK  5 active torsions:
REMARK  status: ('A' for Active; 'I' for Inactive)
REMARK    1  A    between atoms: C_1  and  C_2
REMARK    2  A    between atoms: N_4  and  C_5
REMARK    3  A    between atoms: C_7  and  C_8
REMARK    4  A    between atoms: C_22  and  S_23
REMARK    5  A    between atoms: S_23  and  C_24
REMARK                            x       y       z     vdW  Elec       q    Type
REMARK                         _______ _______ _______ _____ _____    ______ ____
ROOT
ATOM      1  C   UNL     1       0.113  10.159  20.112  0.00  0.00    +0.000 A 
ATOM      2  C   UNL     1       0.858   9.013  20.436  0.00  0.00    +0.000 A 
ATOM      3  C   UNL     1       1.543   8.299  19.442  0.00  0.00    +0.000 A 
ATOM      4  C   UNL     1       1.450   8.733  18.116  0.00  0.00    +0.000 A 
ATOM      5  C   UNL     1       0.776   9.916  17.798  0.00  0.00    +0.000 A 
ATOM      6  C   UNL     1       0.099  10.637  18.787  0.00  0.00    +0.000 A 
ENDROOT
BRANCH   3   7
ATOM      7  C   UNL     1       2.228   7.022  19.820  0.00  0.00    +0.000 C 
ATOM      8  O   UNL     1       1.930   6.542  20.913  0.00  0.00    +0.000 OA
ATOM      9  N   UNL     1       3.163   6.422  18.968  0.00  0.00    +0.000 N 
ATOM     10  C   UNL     1       3.649   5.080  19.302  0.00  0.00    +0.000 C 
ATOM     11  C   UNL     1       5.169   4.995  19.228  0.00  0.00    +0.000 C 
ATOM     12  C   UNL     1       5.683   5.488  17.878  0.00  0.00    +0.000 C 
ATOM     13  C   UNL     1       5.155   6.886  17.580  0.00  0.00    +0.000 C 
ATOM     14  C   UNL     1       3.641   6.949  17.691  0.00  0.00    +0.000 C 
ATOM     15  O   UNL     1       5.270   4.575  16.845  0.00  0.00    +0.000 OA
ATOM     16  C   UNL     1       6.433   4.381  16.041  0.00  0.00    +0.000 C 
ATOM     17  C   UNL     1       7.565   4.535  17.017  0.00  0.00    +0.000 C 
ATOM     18  O   UNL     1       7.120   5.561  17.900  0.00  0.00    +0.000 OA
ENDBRANCH   3   7
BRANCH   1  22
ATOM     19  C   UNL     1      -1.230  12.232  22.945  0.00  0.00    +0.000 C 
ATOM     20  C   UNL     1      -0.237  11.831  21.888  0.00  0.00    +0.000 C 
ATOM     21  O   UNL     1       0.823  12.429  21.736  0.00  0.00    +0.000 OA
ATOM     22  N   UNL     1      -0.685  10.797  21.089  0.00  0.00    +0.000 N 
ATOM     23  H   UNL     1      -1.689  10.707  20.973  0.00  0.00    +0.000 HD
ENDBRANCH   1  22
BRANCH   6  24
ATOM     24  S   UNL     1      -0.810  12.112  18.314  0.00  0.00    +0.000 S 
BRANCH  24  25
ATOM     25  C   UNL     1       0.363  13.441  18.536  0.00  0.00    +0.000 A 
ATOM     26  C   UNL     1       1.711  13.183  18.231  0.00  0.00    +0.000 A 
ATOM     27  C   UNL     1       2.667  14.209  18.260  0.00  0.00    +0.000 A 
ATOM     28  C   UNL     1       2.271  15.499  18.594  0.00  0.00    +0.000 A 
ATOM     29  F   UNL     1       3.175  16.486  18.592  0.00  0.00    +0.000 F 
ATOM     30  C   UNL     1       0.955  15.771  18.913  0.00  0.00    +0.000 A 
ATOM     31  C   UNL     1       0.000  14.749  18.883  0.00  0.00    +0.000 A 
ENDBRANCH  24  25
ENDBRANCH   6  24
TORSDOF 4
ENDMDL
