MODEL 1
REMARK VINA RESULT:      -8.1      0.000      0.000
REMARK  Name = 
REMARK  6 active torsions:
REMARK  status: ('A' for Active; 'I' for Inactive)
REMARK    1  A    between atoms: C_2  and  C_3
REMARK    2  A    between atoms: C_3  and  C_4
REMARK    3  A    between atoms: C_4  and  C_5
REMARK    4  A    between atoms: C_11  and  C_12
REMARK    5  A    between atoms: N_19  and  C_20
REMARK    6  A    between atoms: C_20  and  C_21
REMARK                            x       y       z     vdW  Elec       q    Type
REMARK                         _______ _______ _______ _____ _____    ______ ____
ROOT
ATOM      1  C   UNL     1       7.746   7.244  17.883  0.00  0.00    +0.000 C 
ATOM      2  O   UNL     1       8.131   6.823  18.973  0.00  0.00    +0.000 OA
ATOM      3  N   UNL     1       7.845   8.537  17.423  0.00  0.00    +0.000 N 
ATOM      4  C   UNL     1       8.478   9.497  18.169  0.00  0.00    +0.000 A 
ATOM      5  N   UNL     1       9.283   9.372  19.193  0.00  0.00    +0.000 NA
ATOM      6  N   UNL     1       9.692  10.595  19.690  0.00  0.00    +0.000 NA
ATOM      7  C   UNL     1       9.159  11.609  19.039  0.00  0.00    +0.000 A 
ATOM      8  S   UNL     1       8.168  11.117  17.706  0.00  0.00    +0.000 S 
ATOM      9  H   UNL     1       7.322   8.845  16.618  0.00  0.00    +0.000 HD
ENDROOT
BRANCH   7  10
ATOM     10  C   UNL     1       9.357  13.070  19.375  0.00  0.00    +0.000 C 
ATOM     11  C   UNL     1      10.551  13.306  20.313  0.00  0.00    +0.000 C 
ATOM     12  C   UNL     1      11.917  13.183  19.637  0.00  0.00    +0.000 C 
ATOM     13  C   UNL     1      12.022  13.995  18.350  0.00  0.00    +0.000 C 
ATOM     14  C   UNL     1      10.836  13.806  17.410  0.00  0.00    +0.000 C 
ATOM     15  C   UNL     1       9.489  13.944  18.120  0.00  0.00    +0.000 C 
ENDBRANCH   7  10
BRANCH   1  16
ATOM     16  C   UNL     1       7.001   6.317  16.942  0.00  0.00    +0.000 C 
BRANCH  16  17
ATOM     17  C   UNL     1       5.553   6.143  17.388  0.00  0.00    +0.000 C 
BRANCH  17  19
ATOM     18  O   UNL     1       6.096   4.222  18.719  0.00  0.00    +0.000 OA
ATOM     19  C   UNL     1       5.317   4.750  17.931  0.00  0.00    +0.000 C 
ATOM     20  N   UNL     1       4.214   4.125  17.407  0.00  0.00    +0.000 N 
ATOM     21  H   UNL     1       3.630   4.622  16.739  0.00  0.00    +0.000 HD
BRANCH  20  22
ATOM     22  C   UNL     1       3.765   2.814  17.824  0.00  0.00    +0.000 C 
BRANCH  22  23
ATOM     23  C   UNL     1       2.910   2.925  19.056  0.00  0.00    +0.000 A 
ATOM     24  C   UNL     1       3.422   2.596  20.320  0.00  0.00    +0.000 A 
ATOM     25  C   UNL     1       2.603   2.621  21.448  0.00  0.00    +0.000 A 
ATOM     26  C   UNL     1       1.257   2.975  21.327  0.00  0.00    +0.000 A 
ATOM     27  C   UNL     1       0.740   3.319  20.080  0.00  0.00    +0.000 A 
ATOM     28  C   UNL     1       1.557   3.293  18.950  0.00  0.00    +0.000 A 
ENDBRANCH  22  23
ENDBRANCH  20  22
ENDBRANCH  17  19
ENDBRANCH  16  17
ENDBRANCH   1  16
TORSDOF 6
ENDMDL
MODEL 2
REMARK VINA RESULT:      -8.0      2.230     10.252
REMARK  Name = 
REMARK  6 active torsions:
REMARK  status: ('A' for Active; 'I' for Inactive)
REMARK    1  A    between atoms: C_2  and  C_3
REMARK    2  A    between atoms: C_3  and  C_4
REMARK    3  A    between atoms: C_4  and  C_5
REMARK    4  A    between atoms: C_11  and  C_12
REMARK    5  A    between atoms: N_19  and  C_20
REMARK    6  A    between atoms: C_20  and  C_21
REMARK                            x       y       z     vdW  Elec       q    Type
REMARK                         _______ _______ _______ _____ _____    ______ ____
ROOT
ATOM      1  C   UNL     1       7.301   7.434  17.251  0.00  0.00    +0.000 C 
ATOM      2  O   UNL     1       7.947   6.678  16.528  0.00  0.00    +0.000 OA
ATOM      3  N   UNL     1       6.049   7.199  17.772  0.00  0.00    +0.000 N 
ATOM      4  C   UNL     1       5.419   6.000  17.562  0.00  0.00    +0.000 A 
ATOM      5  N   UNL     1       5.902   4.858  17.144  0.00  0.00    +0.000 NA
ATOM      6  N   UNL     1       4.926   3.885  17.034  0.00  0.00    +0.000 NA
ATOM      7  C   UNL     1       3.728   4.334  17.349  0.00  0.00    +0.000 A 
ATOM      8  S   UNL     1       3.737   5.982  17.882  0.00  0.00    +0.000 S 
ATOM      9  H   UNL     1       5.504   7.945  18.175  0.00  0.00    +0.000 HD
ENDROOT
BRANCH   7  10
ATOM     10  C   UNL     1       2.444   3.539  17.273  0.00  0.00    +0.000 C 
ATOM     11  C   UNL     1       2.620   2.083  17.736  0.00  0.00    +0.000 C 
ATOM     12  C   UNL     1       2.742   1.914  19.251  0.00  0.00    +0.000 C 
ATOM     13  C   UNL     1       1.644   2.639  20.023  0.00  0.00    +0.000 C 
ATOM     14  C   UNL     1       1.423   4.077  19.566  0.00  0.00    +0.000 C 
ATOM     15  C   UNL     1       1.298   4.204  18.047  0.00  0.00    +0.000 C 
ENDBRANCH   7  10
BRANCH   1  16
ATOM     16  C   UNL     1       7.842   8.816  17.564  0.00  0.00    +0.000 C 
BRANCH  16  17
ATOM     17  C   UNL     1       8.689   8.792  18.831  0.00  0.00    +0.000 C 
BRANCH  17  19
ATOM     18  O   UNL     1       9.465  10.535  20.286  0.00  0.00    +0.000 OA
ATOM     19  C   UNL     1       9.250  10.164  19.135  0.00  0.00    +0.000 C 
ATOM     20  N   UNL     1       9.417  10.958  18.030  0.00  0.00    +0.000 N 
ATOM     21  H   UNL     1       9.193  10.585  17.110  0.00  0.00    +0.000 HD
BRANCH  20  22
ATOM     22  C   UNL     1       9.993  12.285  18.079  0.00  0.00    +0.000 C 
BRANCH  22  23
ATOM     23  C   UNL     1       8.912  13.315  18.259  0.00  0.00    +0.000 A 
ATOM     24  C   UNL     1       8.972  14.246  19.307  0.00  0.00    +0.000 A 
ATOM     25  C   UNL     1       7.928  15.145  19.520  0.00  0.00    +0.000 A 
ATOM     26  C   UNL     1       6.807  15.125  18.687  0.00  0.00    +0.000 A 
ATOM     27  C   UNL     1       6.741  14.217  17.633  0.00  0.00    +0.000 A 
ATOM     28  C   UNL     1       7.784  13.315  17.420  0.00  0.00    +0.000 A 
ENDBRANCH  22  23
ENDBRANCH  20  22
ENDBRANCH  17  19
ENDBRANCH  16  17
ENDBRANCH   1  16
TORSDOF 6
ENDMDL
MODEL 3
REMARK VINA RESULT:      -7.9      1.634      2.325
REMARK  Name = 
REMARK  6 active torsions:
REMARK  status: ('A' for Active; 'I' for Inactive)
REMARK    1  A    between atoms: C_2  and  C_3
REMARK    2  A    between atoms: C_3  and  C_4
REMARK    3  A    between atoms: C_4  and  C_5
REMARK    4  A    between atoms: C_11  and  C_12
REMARK    5  A    between atoms: N_19  and  C_20
REMARK    6  A    between atoms: C_20  and  C_21
REMARK                            x       y       z     vdW  Elec       q    Type
REMARK                         _______ _______ _______ _____ _____    ______ ____
ROOT
ATOM      1  C   UNL     1       7.911   7.232  17.998  0.00  0.00    +0.000 C 
ATOM      2  O   UNL     1       7.504   7.515  16.873  0.00  0.00    +0.000 OA
ATOM      3  N   UNL     1       8.497   8.094  18.897  0.00  0.00    +0.000 N 
ATOM      4  C   UNL     1       8.620   9.427  18.608  0.00  0.00    +0.000 A 
ATOM      5  N   UNL     1       8.027  10.147  17.689  0.00  0.00    +0.000 NA
ATOM      6  N   UNL     1       8.448  11.464  17.703  0.00  0.00    +0.000 NA
ATOM      7  C   UNL     1       9.368  11.691  18.618  0.00  0.00    +0.000 A 
ATOM      8  S   UNL     1       9.723  10.299  19.586  0.00  0.00    +0.000 S 
ATOM      9  H   UNL     1       8.992   7.747  19.705  0.00  0.00    +0.000 HD
ENDROOT
BRANCH   7  10
ATOM     10  C   UNL     1      10.073  13.009  18.847  0.00  0.00    +0.000 C 
ATOM     11  C   UNL     1       9.232  14.216  18.402  0.00  0.00    +0.000 C 
ATOM     12  C   UNL     1       8.081  14.564  19.346  0.00  0.00    +0.000 C 
ATOM     13  C   UNL     1       8.515  14.667  20.805  0.00  0.00    +0.000 C 
ATOM     14  C   UNL     1       9.378  13.498  21.269  0.00  0.00    +0.000 C 
ATOM     15  C   UNL     1      10.522  13.185  20.304  0.00  0.00    +0.000 C 
ENDBRANCH   7  10
BRANCH   1  16
ATOM     16  C   UNL     1       7.873   5.791  18.470  0.00  0.00    +0.000 C 
BRANCH  16  17
ATOM     17  C   UNL     1       6.627   5.528  19.307  0.00  0.00    +0.000 C 
BRANCH  17  19
ATOM     18  O   UNL     1       5.482   4.292  17.599  0.00  0.00    +0.000 OA
ATOM     19  C   UNL     1       5.441   5.198  18.426  0.00  0.00    +0.000 C 
ATOM     20  N   UNL     1       4.372   6.042  18.588  0.00  0.00    +0.000 N 
ATOM     21  H   UNL     1       4.425   6.785  19.280  0.00  0.00    +0.000 HD
BRANCH  20  22
ATOM     22  C   UNL     1       3.114   5.879  17.893  0.00  0.00    +0.000 C 
BRANCH  22  23
ATOM     23  C   UNL     1       2.250   4.877  18.608  0.00  0.00    +0.000 A 
ATOM     24  C   UNL     1       1.964   5.017  19.974  0.00  0.00    +0.000 A 
ATOM     25  C   UNL     1       1.232   4.043  20.651  0.00  0.00    +0.000 A 
ATOM     26  C   UNL     1       0.775   2.912  19.971  0.00  0.00    +0.000 A 
ATOM     27  C   UNL     1       1.038   2.768  18.610  0.00  0.00    +0.000 A 
ATOM     28  C   UNL     1       1.772   3.740  17.931  0.00  0.00    +0.000 A 
ENDBRANCH  22  23
ENDBRANCH  20  22
ENDBRANCH  17  19
ENDBRANCH  16  17
ENDBRANCH   1  16
TORSDOF 6
ENDMDL
MODEL 4
REMARK VINA RESULT:      -7.8      2.144     10.773
REMARK  Name = 
REMARK  6 active torsions:
REMARK  status: ('A' for Active; 'I' for Inactive)
REMARK    1  A    between atoms: C_2  and  C_3
REMARK    2  A    between atoms: C_3  and  C_4
REMARK    3  A    between atoms: C_4  and  C_5
REMARK    4  A    between atoms: C_11  and  C_12
REMARK    5  A    between atoms: N_19  and  C_20
REMARK    6  A    between atoms: C_20  and  C_21
REMARK                            x       y       z     vdW  Elec       q    Type
REMARK                         _______ _______ _______ _____ _____    ______ ____
ROOT
ATOM      1  C   UNL     1       7.707   7.520  18.150  0.00  0.00    +0.000 C 
ATOM      2  O   UNL     1       8.452   6.888  18.897  0.00  0.00    +0.000 OA
ATOM      3  N   UNL     1       6.490   7.103  17.661  0.00  0.00    +0.000 N 
ATOM      4  C   UNL     1       5.957   5.902  18.048  0.00  0.00    +0.000 A 
ATOM      5  N   UNL     1       6.276   5.124  19.051  0.00  0.00    +0.000 NA
ATOM      6  N   UNL     1       5.512   3.972  19.084  0.00  0.00    +0.000 NA
ATOM      7  C   UNL     1       4.657   3.904  18.084  0.00  0.00    +0.000 A 
ATOM      8  S   UNL     1       4.682   5.309  17.070  0.00  0.00    +0.000 S 
ATOM      9  H   UNL     1       6.045   7.583  16.894  0.00  0.00    +0.000 HD
ENDROOT
BRANCH   7  10
ATOM     10  C   UNL     1       3.725   2.748  17.802  0.00  0.00    +0.000 C 
ATOM     11  C   UNL     1       3.431   1.904  19.054  0.00  0.00    +0.000 C 
ATOM     12  C   UNL     1       2.466   2.559  20.043  0.00  0.00    +0.000 C 
ATOM     13  C   UNL     1       1.192   3.076  19.381  0.00  0.00    +0.000 C 
ATOM     14  C   UNL     1       1.448   3.892  18.118  0.00  0.00    +0.000 C 
ATOM     15  C   UNL     1       2.411   3.202  17.151  0.00  0.00    +0.000 C 
ENDBRANCH   7  10
BRANCH   1  16
ATOM     16  C   UNL     1       8.156   8.863  17.605  0.00  0.00    +0.000 C 
BRANCH  16  17
ATOM     17  C   UNL     1       8.932   9.643  18.659  0.00  0.00    +0.000 C 
BRANCH  17  19
ATOM     18  O   UNL     1      10.579  11.066  17.649  0.00  0.00    +0.000 OA
ATOM     19  C   UNL     1       9.442  10.954  18.099  0.00  0.00    +0.000 C 
ATOM     20  N   UNL     1       8.554  11.993  18.212  0.00  0.00    +0.000 N 
ATOM     21  H   UNL     1       7.638  11.824  18.619  0.00  0.00    +0.000 HD
BRANCH  20  22
ATOM     22  C   UNL     1       8.808  13.320  17.692  0.00  0.00    +0.000 C 
BRANCH  22  23
ATOM     23  C   UNL     1       9.681  14.093  18.641  0.00  0.00    +0.000 A 
ATOM     24  C   UNL     1      10.865  14.700  18.199  0.00  0.00    +0.000 A 
ATOM     25  C   UNL     1      11.713  15.346  19.099  0.00  0.00    +0.000 A 
ATOM     26  C   UNL     1      11.387  15.393  20.456  0.00  0.00    +0.000 A 
ATOM     27  C   UNL     1      10.205  14.808  20.906  0.00  0.00    +0.000 A 
ATOM     28  C   UNL     1       9.357  14.160  20.008  0.00  0.00    +0.000 A 
ENDBRANCH  22  23
ENDBRANCH  20  22
ENDBRANCH  17  19
ENDBRANCH  16  17
ENDBRANCH   1  16
TORSDOF 6
ENDMDL
MODEL 5
REMARK VINA RESULT:      -7.8      5.727      6.540
REMARK  Name = 
REMARK  6 active torsions:
REMARK  status: ('A' for Active; 'I' for Inactive)
REMARK    1  A    between atoms: C_2  and  C_3
REMARK    2  A    between atoms: C_3  and  C_4
REMARK    3  A    between atoms: C_4  and  C_5
REMARK    4  A    between atoms: C_11  and  C_12
REMARK    5  A    between atoms: N_19  and  C_20
REMARK    6  A    between atoms: C_20  and  C_21
REMARK                            x       y       z     vdW  Elec       q    Type
REMARK                         _______ _______ _______ _____ _____    ______ ____
ROOT
ATOM      1  C   UNL     1       4.538   6.394  16.660  0.00  0.00    +0.000 C 
ATOM      2  O   UNL     1       4.904   7.329  15.951  0.00  0.00    +0.000 OA
ATOM      3  N   UNL     1       3.587   6.443  17.654  0.00  0.00    +0.000 N 
ATOM      4  C   UNL     1       2.890   7.597  17.896  0.00  0.00    +0.000 A 
ATOM      5  N   UNL     1       2.757   8.671  17.160  0.00  0.00    +0.000 NA
ATOM      6  N   UNL     1       1.986   9.638  17.777  0.00  0.00    +0.000 NA
ATOM      7  C   UNL     1       1.583   9.272  18.977  0.00  0.00    +0.000 A 
ATOM      8  S   UNL     1       2.066   7.663  19.397  0.00  0.00    +0.000 S 
ATOM      9  H   UNL     1       3.497   5.696  18.326  0.00  0.00    +0.000 HD
ENDROOT
BRANCH   7  10
ATOM     10  C   UNL     1       0.779  10.126  19.931  0.00  0.00    +0.000 C 
ATOM     11  C   UNL     1       1.172  11.611  19.875  0.00  0.00    +0.000 C 
ATOM     12  C   UNL     1       0.661  12.351  18.638  0.00  0.00    +0.000 C 
ATOM     13  C   UNL     1      -0.829  12.137  18.387  0.00  0.00    +0.000 C 
ATOM     14  C   UNL     1      -1.257  10.675  18.468  0.00  0.00    +0.000 C 
ATOM     15  C   UNL     1      -0.734   9.972  19.720  0.00  0.00    +0.000 C 
ENDBRANCH   7  10
BRANCH   1  16
ATOM     16  C   UNL     1       5.227   5.048  16.541  0.00  0.00    +0.000 C 
BRANCH  16  17
ATOM     17  C   UNL     1       6.236   4.854  17.666  0.00  0.00    +0.000 C 
BRANCH  17  19
ATOM     18  O   UNL     1       5.280   5.206  19.838  0.00  0.00    +0.000 OA
ATOM     19  C   UNL     1       5.549   4.412  18.941  0.00  0.00    +0.000 C 
ATOM     20  N   UNL     1       5.335   3.060  19.021  0.00  0.00    +0.000 N 
ATOM     21  H   UNL     1       5.609   2.465  18.243  0.00  0.00    +0.000 HD
BRANCH  20  22
ATOM     22  C   UNL     1       4.643   2.425  20.122  0.00  0.00    +0.000 C 
BRANCH  22  23
ATOM     23  C   UNL     1       3.157   2.616  19.982  0.00  0.00    +0.000 A 
ATOM     24  C   UNL     1       2.476   2.153  18.847  0.00  0.00    +0.000 A 
ATOM     25  C   UNL     1       1.114   2.403  18.683  0.00  0.00    +0.000 A 
ATOM     26  C   UNL     1       0.414   3.123  19.654  0.00  0.00    +0.000 A 
ATOM     27  C   UNL     1       1.075   3.574  20.794  0.00  0.00    +0.000 A 
ATOM     28  C   UNL     1       2.437   3.326  20.959  0.00  0.00    +0.000 A 
ENDBRANCH  22  23
ENDBRANCH  20  22
ENDBRANCH  17  19
ENDBRANCH  16  17
ENDBRANCH   1  16
TORSDOF 6
ENDMDL
MODEL 6
REMARK VINA RESULT:      -7.7      2.216     10.884
REMARK  Name = 
REMARK  6 active torsions:
REMARK  status: ('A' for Active; 'I' for Inactive)
REMARK    1  A    between atoms: C_2  and  C_3
REMARK    2  A    between atoms: C_3  and  C_4
REMARK    3  A    between atoms: C_4  and  C_5
REMARK    4  A    between atoms: C_11  and  C_12
REMARK    5  A    between atoms: N_19  and  C_20
REMARK    6  A    between atoms: C_20  and  C_21
REMARK                            x       y       z     vdW  Elec       q    Type
REMARK                         _______ _______ _______ _____ _____    ______ ____
ROOT
ATOM      1  C   UNL     1       7.620   7.572  17.843  0.00  0.00    +0.000 C 
ATOM      2  O   UNL     1       7.117   8.013  16.812  0.00  0.00    +0.000 OA
ATOM      3  N   UNL     1       7.279   6.404  18.486  0.00  0.00    +0.000 N 
ATOM      4  C   UNL     1       6.338   5.563  17.953  0.00  0.00    +0.000 A 
ATOM      5  N   UNL     1       5.838   5.517  16.744  0.00  0.00    +0.000 NA
ATOM      6  N   UNL     1       4.880   4.530  16.611  0.00  0.00    +0.000 NA
ATOM      7  C   UNL     1       4.666   3.878  17.736  0.00  0.00    +0.000 A 
ATOM      8  S   UNL     1       5.701   4.391  19.027  0.00  0.00    +0.000 S 
ATOM      9  H   UNL     1       7.585   6.220  19.429  0.00  0.00    +0.000 HD
ENDROOT
BRANCH   7  10
ATOM     10  C   UNL     1       3.640   2.786  17.936  0.00  0.00    +0.000 C 
ATOM     11  C   UNL     1       3.391   2.472  19.420  0.00  0.00    +0.000 C 
ATOM     12  C   UNL     1       2.551   3.519  20.153  0.00  0.00    +0.000 C 
ATOM     13  C   UNL     1       1.267   3.879  19.413  0.00  0.00    +0.000 C 
ATOM     14  C   UNL     1       1.476   4.166  17.930  0.00  0.00    +0.000 C 
ATOM     15  C   UNL     1       2.312   3.094  17.231  0.00  0.00    +0.000 C 
ENDBRANCH   7  10
BRANCH   1  16
ATOM     16  C   UNL     1       8.663   8.392  18.579  0.00  0.00    +0.000 C 
BRANCH  16  17
ATOM     17  C   UNL     1       8.575   9.861  18.184  0.00  0.00    +0.000 C 
BRANCH  17  19
ATOM     18  O   UNL     1       9.469  10.908  20.148  0.00  0.00    +0.000 OA
ATOM     19  C   UNL     1       9.586  10.690  18.946  0.00  0.00    +0.000 C 
ATOM     20  N   UNL     1      10.578  11.222  18.162  0.00  0.00    +0.000 N 
ATOM     21  H   UNL     1      10.592  11.013  17.166  0.00  0.00    +0.000 HD
BRANCH  20  22
ATOM     22  C   UNL     1      11.681  11.997  18.687  0.00  0.00    +0.000 C 
BRANCH  22  23
ATOM     23  C   UNL     1      11.395  13.467  18.551  0.00  0.00    +0.000 A 
ATOM     24  C   UNL     1      11.220  14.274  19.685  0.00  0.00    +0.000 A 
ATOM     25  C   UNL     1      10.873  15.619  19.555  0.00  0.00    +0.000 A 
ATOM     26  C   UNL     1      10.696  16.176  18.287  0.00  0.00    +0.000 A 
ATOM     27  C   UNL     1      10.882  15.390  17.152  0.00  0.00    +0.000 A 
ATOM     28  C   UNL     1      11.227  14.044  17.280  0.00  0.00    +0.000 A 
ENDBRANCH  22  23
ENDBRANCH  20  22
ENDBRANCH  17  19
ENDBRANCH  16  17
ENDBRANCH   1  16
TORSDOF 6
ENDMDL
MODEL 7
REMARK VINA RESULT:      -7.7      2.213     10.921
REMARK  Name = 
REMARK  6 active torsions:
REMARK  status: ('A' for Active; 'I' for Inactive)
REMARK    1  A    between atoms: C_2  and  C_3
REMARK    2  A    between atoms: C_3  and  C_4
REMARK    3  A    between atoms: C_4  and  C_5
REMARK    4  A    between atoms: C_11  and  C_12
REMARK    5  A    between atoms: N_19  and  C_20
REMARK    6  A    between atoms: C_20  and  C_21
REMARK                            x       y       z     vdW  Elec       q    Type
REMARK                         _______ _______ _______ _____ _____    ______ ____
ROOT
ATOM      1  C   UNL     1       7.046   7.169  17.636  0.00  0.00    +0.000 C 
ATOM      2  O   UNL     1       6.435   7.610  16.665  0.00  0.00    +0.000 OA
ATOM      3  N   UNL     1       6.741   6.031  18.348  0.00  0.00    +0.000 N 
ATOM      4  C   UNL     1       5.705   5.222  17.961  0.00  0.00    +0.000 A 
ATOM      5  N   UNL     1       5.054   5.173  16.827  0.00  0.00    +0.000 NA
ATOM      6  N   UNL     1       4.046   4.228  16.842  0.00  0.00    +0.000 NA
ATOM      7  C   UNL     1       3.950   3.610  18.001  0.00  0.00    +0.000 A 
ATOM      8  S   UNL     1       5.161   4.103  19.137  0.00  0.00    +0.000 S 
ATOM      9  H   UNL     1       7.157   5.854  19.250  0.00  0.00    +0.000 HD
ENDROOT
BRANCH   7  10
ATOM     10  C   UNL     1       2.913   2.569  18.359  0.00  0.00    +0.000 C 
ATOM     11  C   UNL     1       3.158   1.938  19.739  0.00  0.00    +0.000 C 
ATOM     12  C   UNL     1       2.790   2.840  20.918  0.00  0.00    +0.000 C 
ATOM     13  C   UNL     1       1.394   3.444  20.796  0.00  0.00    +0.000 C 
ATOM     14  C   UNL     1       1.109   4.051  19.426  0.00  0.00    +0.000 C 
ATOM     15  C   UNL     1       1.482   3.117  18.274  0.00  0.00    +0.000 C 
ENDBRANCH   7  10
BRANCH   1  16
ATOM     16  C   UNL     1       8.207   7.956  18.213  0.00  0.00    +0.000 C 
BRANCH  16  17
ATOM     17  C   UNL     1       8.127   9.421  17.798  0.00  0.00    +0.000 C 
BRANCH  17  19
ATOM     18  O   UNL     1       9.355  10.029  19.768  0.00  0.00    +0.000 OA
ATOM     19  C   UNL     1       9.106  10.262  18.588  0.00  0.00    +0.000 C 
ATOM     20  N   UNL     1       9.614  11.330  17.893  0.00  0.00    +0.000 N 
ATOM     21  H   UNL     1       9.340  11.470  16.924  0.00  0.00    +0.000 HD
BRANCH  20  22
ATOM     22  C   UNL     1      10.609  12.233  18.432  0.00  0.00    +0.000 C 
BRANCH  22  23
ATOM     23  C   UNL     1      10.350  13.636  17.956  0.00  0.00    +0.000 A 
ATOM     24  C   UNL     1      11.306  14.328  17.198  0.00  0.00    +0.000 A 
ATOM     25  C   UNL     1      11.097  15.656  16.830  0.00  0.00    +0.000 A 
ATOM     26  C   UNL     1       9.925  16.312  17.214  0.00  0.00    +0.000 A 
ATOM     27  C   UNL     1       8.960  15.632  17.953  0.00  0.00    +0.000 A 
ATOM     28  C   UNL     1       9.168  14.304  18.325  0.00  0.00    +0.000 A 
ENDBRANCH  22  23
ENDBRANCH  20  22
ENDBRANCH  17  19
ENDBRANCH  16  17
ENDBRANCH   1  16
TORSDOF 6
ENDMDL
MODEL 8
REMARK VINA RESULT:      -7.6      5.101      7.681
REMARK  Name = 
REMARK  6 active torsions:
REMARK  status: ('A' for Active; 'I' for Inactive)
REMARK    1  A    between atoms: C_2  and  C_3
REMARK    2  A    between atoms: C_3  and  C_4
REMARK    3  A    between atoms: C_4  and  C_5
REMARK    4  A    between atoms: C_11  and  C_12
REMARK    5  A    between atoms: N_19  and  C_20
REMARK    6  A    between atoms: C_20  and  C_21
REMARK                            x       y       z     vdW  Elec       q    Type
REMARK                         _______ _______ _______ _____ _____    ______ ____
ROOT
ATOM      1  C   UNL     1       2.612   4.351  20.450  0.00  0.00    +0.000 C 
ATOM      2  O   UNL     1       1.797   4.439  21.366  0.00  0.00    +0.000 OA
ATOM      3  N   UNL     1       2.938   5.337  19.547  0.00  0.00    +0.000 N 
ATOM      4  C   UNL     1       2.389   6.588  19.650  0.00  0.00    +0.000 A 
ATOM      5  N   UNL     1       1.760   7.152  20.650  0.00  0.00    +0.000 NA
ATOM      6  N   UNL     1       1.329   8.429  20.345  0.00  0.00    +0.000 NA
ATOM      7  C   UNL     1       1.622   8.779  19.109  0.00  0.00    +0.000 A 
ATOM      8  S   UNL     1       2.530   7.575  18.257  0.00  0.00    +0.000 S 
ATOM      9  H   UNL     1       3.451   5.123  18.705  0.00  0.00    +0.000 HD
ENDROOT
BRANCH   7  10
ATOM     10  C   UNL     1       1.235  10.085  18.451  0.00  0.00    +0.000 C 
ATOM     11  C   UNL     1      -0.186  10.056  17.868  0.00  0.00    +0.000 C 
ATOM     12  C   UNL     1      -1.298  10.149  18.913  0.00  0.00    +0.000 C 
ATOM     13  C   UNL     1      -1.099  11.299  19.897  0.00  0.00    +0.000 C 
ATOM     14  C   UNL     1       0.312  11.373  20.470  0.00  0.00    +0.000 C 
ATOM     15  C   UNL     1       1.395  11.284  19.395  0.00  0.00    +0.000 C 
ENDBRANCH   7  10
BRANCH   1  16
ATOM     16  C   UNL     1       3.296   3.025  20.179  0.00  0.00    +0.000 C 
BRANCH  16  17
ATOM     17  C   UNL     1       2.686   2.341  18.960  0.00  0.00    +0.000 C 
BRANCH  17  19
ATOM     18  O   UNL     1       2.337   3.469  16.872  0.00  0.00    +0.000 OA
ATOM     19  C   UNL     1       3.139   3.010  17.680  0.00  0.00    +0.000 C 
ATOM     20  N   UNL     1       4.496   2.983  17.484  0.00  0.00    +0.000 N 
ATOM     21  H   UNL     1       5.093   2.562  18.192  0.00  0.00    +0.000 HD
BRANCH  20  22
ATOM     22  C   UNL     1       5.153   3.612  16.359  0.00  0.00    +0.000 C 
BRANCH  22  23
ATOM     23  C   UNL     1       5.951   4.800  16.821  0.00  0.00    +0.000 A 
ATOM     24  C   UNL     1       7.084   4.636  17.632  0.00  0.00    +0.000 A 
ATOM     25  C   UNL     1       7.772   5.744  18.125  0.00  0.00    +0.000 A 
ATOM     26  C   UNL     1       7.336   7.034  17.814  0.00  0.00    +0.000 A 
ATOM     27  C   UNL     1       6.222   7.211  16.996  0.00  0.00    +0.000 A 
ATOM     28  C   UNL     1       5.531   6.104  16.504  0.00  0.00    +0.000 A 
ENDBRANCH  22  23
ENDBRANCH  20  22
ENDBRANCH  17  19
ENDBRANCH  16  17
ENDBRANCH   1  16
TORSDOF 6
ENDMDL
MODEL 9
REMARK VINA RESULT:      -7.6      5.858      8.023
REMARK  Name = 
REMARK  6 active torsions:
REMARK  status: ('A' for Active; 'I' for Inactive)
REMARK    1  A    between atoms: C_2  and  C_3
REMARK    2  A    between atoms: C_3  and  C_4
REMARK    3  A    between atoms: C_4  and  C_5
REMARK    4  A    between atoms: C_11  and  C_12
REMARK    5  A    between atoms: N_19  and  C_20
REMARK    6  A    between atoms: C_20  and  C_21
REMARK                            x       y       z     vdW  Elec       q    Type
REMARK                         _______ _______ _______ _____ _____    ______ ____
ROOT
ATOM      1  C   UNL     1       2.072   6.338  20.226  0.00  0.00    +0.000 C 
ATOM      2  O   UNL     1       2.648   6.592  19.169  0.00  0.00    +0.000 OA
ATOM      3  N   UNL     1       1.376   7.227  21.013  0.00  0.00    +0.000 N 
ATOM      4  C   UNL     1       1.209   8.528  20.617  0.00  0.00    +0.000 A 
ATOM      5  N   UNL     1       1.376   9.078  19.441  0.00  0.00    +0.000 NA
ATOM      6  N   UNL     1       1.131  10.438  19.460  0.00  0.00    +0.000 NA
ATOM      7  C   UNL     1       0.812  10.877  20.660  0.00  0.00    +0.000 A 
ATOM      8  S   UNL     1       0.714   9.616  21.843  0.00  0.00    +0.000 S 
ATOM      9  H   UNL     1       1.118   6.992  21.959  0.00  0.00    +0.000 HD
ENDROOT
BRANCH   7  10
ATOM     10  C   UNL     1       0.545  12.321  21.025  0.00  0.00    +0.000 C 
ATOM     11  C   UNL     1       0.152  13.177  19.810  0.00  0.00    +0.000 C 
ATOM     12  C   UNL     1      -1.274  12.945  19.311  0.00  0.00    +0.000 C 
ATOM     13  C   UNL     1      -2.315  13.008  20.425  0.00  0.00    +0.000 C 
ATOM     14  C   UNL     1      -1.939  12.194  21.658  0.00  0.00    +0.000 C 
ATOM     15  C   UNL     1      -0.510  12.458  22.131  0.00  0.00    +0.000 C 
ENDBRANCH   7  10
BRANCH   1  16
ATOM     16  C   UNL     1       2.177   4.947  20.822  0.00  0.00    +0.000 C 
BRANCH  16  17
ATOM     17  C   UNL     1       1.251   3.977  20.099  0.00  0.00    +0.000 C 
BRANCH  17  19
ATOM     18  O   UNL     1       1.105   3.500  17.752  0.00  0.00    +0.000 OA
ATOM     19  C   UNL     1       1.816   3.590  18.749  0.00  0.00    +0.000 C 
ATOM     20  N   UNL     1       3.153   3.285  18.769  0.00  0.00    +0.000 N 
ATOM     21  H   UNL     1       3.668   3.362  19.642  0.00  0.00    +0.000 HD
BRANCH  20  22
ATOM     22  C   UNL     1       3.913   2.946  17.585  0.00  0.00    +0.000 C 
BRANCH  22  23
ATOM     23  C   UNL     1       4.920   4.023  17.287  0.00  0.00    +0.000 A 
ATOM     24  C   UNL     1       5.068   4.531  15.989  0.00  0.00    +0.000 A 
ATOM     25  C   UNL     1       6.058   5.469  15.701  0.00  0.00    +0.000 A 
ATOM     26  C   UNL     1       6.917   5.912  16.710  0.00  0.00    +0.000 A 
ATOM     27  C   UNL     1       6.770   5.428  18.008  0.00  0.00    +0.000 A 
ATOM     28  C   UNL     1       5.781   4.487  18.297  0.00  0.00    +0.000 A 
ENDBRANCH  22  23
ENDBRANCH  20  22
ENDBRANCH  17  19
ENDBRANCH  16  17
ENDBRANCH   1  16
TORSDOF 6
ENDMDL
