MODEL 1
REMARK VINA RESULT:      -6.1      0.000      0.000
REMARK  Name = 
REMARK  5 active torsions:
REMARK  status: ('A' for Active; 'I' for Inactive)
REMARK    1  A    between atoms: C_1  and  C_2
REMARK    2  A    between atoms: C_2  and  C_3
REMARK    3  A    between atoms: C_3  and  C_4
REMARK    4  A    between atoms: C_4  and  N_5
REMARK    5  A    between atoms: C_9  and  C_10
REMARK                            x       y       z     vdW  Elec       q    Type
REMARK                         _______ _______ _______ _____ _____    ______ ____
ROOT
ATOM      1  N   UNL     1       3.234   2.492  19.269  0.00  0.00    +0.000 N 
ATOM      2  C   UNL     1       4.146   3.342  18.605  0.00  0.00    +0.000 A 
ATOM      3  C   UNL     1       3.940   3.675  17.243  0.00  0.00    +0.000 A 
ATOM      4  N   UNL     1       4.766   4.498  16.534  0.00  0.00    +0.000 NA
ATOM      5  C   UNL     1       5.846   4.951  17.220  0.00  0.00    +0.000 A 
ATOM      6  C   UNL     1       6.073   4.588  18.542  0.00  0.00    +0.000 A 
ATOM      7  N   UNL     1       5.240   3.776  19.248  0.00  0.00    +0.000 NA
ATOM      8  H   UNL     1       2.309   2.610  18.867  0.00  0.00    +0.000 HD
ENDROOT
BRANCH   5   9
ATOM      9  C   UNL     1       6.775   5.874  16.510  0.00  0.00    +0.000 C 
ATOM     10  N   UNL     1       6.866   7.173  16.936  0.00  0.00    +0.000 N 
ATOM     11  O   UNL     1       7.454   5.498  15.554  0.00  0.00    +0.000 OA
ATOM     12  H   UNL     1       6.330   7.546  17.716  0.00  0.00    +0.000 HD
ATOM     13  H   UNL     1       7.495   7.782  16.433  0.00  0.00    +0.000 HD
ENDBRANCH   5   9
BRANCH   1  14
ATOM     14  C   UNL     1       3.216   2.719  20.722  0.00  0.00    +0.000 C 
BRANCH  14  15
ATOM     15  C   UNL     1       1.769   2.877  21.192  0.00  0.00    +0.000 C 
BRANCH  15  17
ATOM     16  C   UNL     1       1.683   5.336  20.628  0.00  0.00    +0.000 C 
ATOM     17  C   UNL     1       1.039   3.974  20.411  0.00  0.00    +0.000 C 
ENDBRANCH  15  17
ENDBRANCH  14  15
ENDBRANCH   1  14
TORSDOF 4
ENDMDL
MODEL 2
REMARK VINA RESULT:      -5.9      3.073      5.851
REMARK  Name = 
REMARK  5 active torsions:
REMARK  status: ('A' for Active; 'I' for Inactive)
REMARK    1  A    between atoms: C_1  and  C_2
REMARK    2  A    between atoms: C_2  and  C_3
REMARK    3  A    between atoms: C_3  and  C_4
REMARK    4  A    between atoms: C_4  and  N_5
REMARK    5  A    between atoms: C_9  and  C_10
REMARK                            x       y       z     vdW  Elec       q    Type
REMARK                         _______ _______ _______ _____ _____    ______ ____
ROOT
ATOM      1  N   UNL     1       6.020   5.509  18.347  0.00  0.00    +0.000 N 
ATOM      2  C   UNL     1       4.953   4.866  19.014  0.00  0.00    +0.000 A 
ATOM      3  C   UNL     1       3.839   5.622  19.458  0.00  0.00    +0.000 A 
ATOM      4  N   UNL     1       2.764   5.076  20.098  0.00  0.00    +0.000 NA
ATOM      5  C   UNL     1       2.853   3.741  20.327  0.00  0.00    +0.000 A 
ATOM      6  C   UNL     1       3.966   3.008  19.933  0.00  0.00    +0.000 A 
ATOM      7  N   UNL     1       5.030   3.555  19.284  0.00  0.00    +0.000 NA
ATOM      8  H   UNL     1       5.664   6.312  17.838  0.00  0.00    +0.000 HD
ENDROOT
BRANCH   5   9
ATOM      9  C   UNL     1       1.701   3.080  21.001  0.00  0.00    +0.000 C 
ATOM     10  N   UNL     1       0.479   3.094  20.381  0.00  0.00    +0.000 N 
ATOM     11  O   UNL     1       1.822   2.529  22.095  0.00  0.00    +0.000 OA
ATOM     12  H   UNL     1       0.313   3.536  19.480  0.00  0.00    +0.000 HD
ATOM     13  H   UNL     1      -0.289   2.649  20.862  0.00  0.00    +0.000 HD
ENDBRANCH   5   9
BRANCH   1  14
ATOM     14  C   UNL     1       6.751   4.594  17.455  0.00  0.00    +0.000 C 
BRANCH  14  15
ATOM     15  C   UNL     1       6.677   5.120  16.021  0.00  0.00    +0.000 C 
BRANCH  15  17
ATOM     16  C   UNL     1       6.092   3.930  13.873  0.00  0.00    +0.000 C 
ATOM     17  C   UNL     1       5.577   4.419  15.219  0.00  0.00    +0.000 C 
ENDBRANCH  15  17
ENDBRANCH  14  15
ENDBRANCH   1  14
TORSDOF 4
ENDMDL
MODEL 3
REMARK VINA RESULT:      -5.9      1.736      2.434
REMARK  Name = 
REMARK  5 active torsions:
REMARK  status: ('A' for Active; 'I' for Inactive)
REMARK    1  A    between atoms: C_1  and  C_2
REMARK    2  A    between atoms: C_2  and  C_3
REMARK    3  A    between atoms: C_3  and  C_4
REMARK    4  A    between atoms: C_4  and  N_5
REMARK    5  A    between atoms: C_9  and  C_10
REMARK                            x       y       z     vdW  Elec       q    Type
REMARK                         _______ _______ _______ _____ _____    ______ ____
ROOT
ATOM      1  N   UNL     1       3.356   5.362  20.254  0.00  0.00    +0.000 N 
ATOM      2  C   UNL     1       4.154   5.194  19.101  0.00  0.00    +0.000 A 
ATOM      3  C   UNL     1       5.488   4.730  19.225  0.00  0.00    +0.000 A 
ATOM      4  N   UNL     1       6.319   4.529  18.162  0.00  0.00    +0.000 NA
ATOM      5  C   UNL     1       5.790   4.853  16.955  0.00  0.00    +0.000 A 
ATOM      6  C   UNL     1       4.498   5.351  16.836  0.00  0.00    +0.000 A 
ATOM      7  N   UNL     1       3.669   5.538  17.900  0.00  0.00    +0.000 NA
ATOM      8  H   UNL     1       3.639   4.691  20.961  0.00  0.00    +0.000 HD
ENDROOT
BRANCH   5   9
ATOM      9  C   UNL     1       6.639   4.635  15.751  0.00  0.00    +0.000 C 
ATOM     10  N   UNL     1       6.384   3.549  14.954  0.00  0.00    +0.000 N 
ATOM     11  O   UNL     1       7.558   5.400  15.460  0.00  0.00    +0.000 OA
ATOM     12  H   UNL     1       5.642   2.878  15.141  0.00  0.00    +0.000 HD
ATOM     13  H   UNL     1       6.979   3.416  14.149  0.00  0.00    +0.000 HD
ENDBRANCH   5   9
BRANCH   1  14
ATOM     14  C   UNL     1       1.919   5.249  19.959  0.00  0.00    +0.000 C 
BRANCH  14  15
ATOM     15  C   UNL     1       1.352   4.018  20.668  0.00  0.00    +0.000 C 
BRANCH  15  17
ATOM     16  C   UNL     1       1.935   2.137  19.089  0.00  0.00    +0.000 C 
ATOM     17  C   UNL     1       0.815   2.989  19.669  0.00  0.00    +0.000 C 
ENDBRANCH  15  17
ENDBRANCH  14  15
ENDBRANCH   1  14
TORSDOF 4
ENDMDL
MODEL 4
REMARK VINA RESULT:      -5.9      1.969      2.648
REMARK  Name = 
REMARK  5 active torsions:
REMARK  status: ('A' for Active; 'I' for Inactive)
REMARK    1  A    between atoms: C_1  and  C_2
REMARK    2  A    between atoms: C_2  and  C_3
REMARK    3  A    between atoms: C_3  and  C_4
REMARK    4  A    between atoms: C_4  and  N_5
REMARK    5  A    between atoms: C_9  and  C_10
REMARK                            x       y       z     vdW  Elec       q    Type
REMARK                         _______ _______ _______ _____ _____    ______ ____
ROOT
ATOM      1  N   UNL     1       5.471   4.118  19.290  0.00  0.00    +0.000 N 
ATOM      2  C   UNL     1       5.832   4.255  17.931  0.00  0.00    +0.000 A 
ATOM      3  C   UNL     1       7.142   4.672  17.586  0.00  0.00    +0.000 A 
ATOM      4  N   UNL     1       7.574   4.816  16.299  0.00  0.00    +0.000 NA
ATOM      5  C   UNL     1       6.634   4.574  15.351  0.00  0.00    +0.000 A 
ATOM      6  C   UNL     1       5.336   4.210  15.689  0.00  0.00    +0.000 A 
ATOM      7  N   UNL     1       4.914   4.055  16.974  0.00  0.00    +0.000 NA
ATOM      8  H   UNL     1       6.289   3.859  19.831  0.00  0.00    +0.000 HD
ENDROOT
BRANCH   5   9
ATOM      9  C   UNL     1       7.048   4.691  13.925  0.00  0.00    +0.000 C 
ATOM     10  N   UNL     1       8.029   5.590  13.597  0.00  0.00    +0.000 N 
ATOM     11  O   UNL     1       6.529   4.007  13.043  0.00  0.00    +0.000 OA
ATOM     12  H   UNL     1       8.494   6.186  14.277  0.00  0.00    +0.000 HD
ATOM     13  H   UNL     1       8.286   5.659  12.623  0.00  0.00    +0.000 HD
ENDBRANCH   5   9
BRANCH   1  14
ATOM     14  C   UNL     1       4.377   3.152  19.481  0.00  0.00    +0.000 C 
BRANCH  14  15
ATOM     15  C   UNL     1       3.188   3.857  20.133  0.00  0.00    +0.000 C 
BRANCH  15  17
ATOM     16  C   UNL     1       0.806   3.090  19.796  0.00  0.00    +0.000 C 
ATOM     17  C   UNL     1       1.968   3.879  19.208  0.00  0.00    +0.000 C 
ENDBRANCH  15  17
ENDBRANCH  14  15
ENDBRANCH   1  14
TORSDOF 4
ENDMDL
MODEL 5
REMARK VINA RESULT:      -5.9      1.348      1.533
REMARK  Name = 
REMARK  5 active torsions:
REMARK  status: ('A' for Active; 'I' for Inactive)
REMARK    1  A    between atoms: C_1  and  C_2
REMARK    2  A    between atoms: C_2  and  C_3
REMARK    3  A    between atoms: C_3  and  C_4
REMARK    4  A    between atoms: C_4  and  N_5
REMARK    5  A    between atoms: C_9  and  C_10
REMARK                            x       y       z     vdW  Elec       q    Type
REMARK                         _______ _______ _______ _____ _____    ______ ____
ROOT
ATOM      1  N   UNL     1       3.329   2.400  17.843  0.00  0.00    +0.000 N 
ATOM      2  C   UNL     1       4.313   3.413  17.888  0.00  0.00    +0.000 A 
ATOM      3  C   UNL     1       4.739   4.039  16.689  0.00  0.00    +0.000 A 
ATOM      4  N   UNL     1       5.673   5.032  16.647  0.00  0.00    +0.000 NA
ATOM      5  C   UNL     1       6.214   5.358  17.848  0.00  0.00    +0.000 A 
ATOM      6  C   UNL     1       5.831   4.713  19.018  0.00  0.00    +0.000 A 
ATOM      7  N   UNL     1       4.889   3.731  19.055  0.00  0.00    +0.000 NA
ATOM      8  H   UNL     1       2.704   2.572  17.063  0.00  0.00    +0.000 HD
ENDROOT
BRANCH   5   9
ATOM      9  C   UNL     1       7.225   6.452  17.874  0.00  0.00    +0.000 C 
ATOM     10  N   UNL     1       8.070   6.542  18.949  0.00  0.00    +0.000 N 
ATOM     11  O   UNL     1       7.313   7.272  16.960  0.00  0.00    +0.000 OA
ATOM     12  H   UNL     1       8.045   5.898  19.737  0.00  0.00    +0.000 HD
ATOM     13  H   UNL     1       8.739   7.297  18.950  0.00  0.00    +0.000 HD
ENDBRANCH   5   9
BRANCH   1  14
ATOM     14  C   UNL     1       2.585   2.291  19.108  0.00  0.00    +0.000 C 
BRANCH  14  15
ATOM     15  C   UNL     1       1.339   3.176  19.039  0.00  0.00    +0.000 C 
BRANCH  15  17
ATOM     16  C   UNL     1       1.870   3.203  21.507  0.00  0.00    +0.000 C 
ATOM     17  C   UNL     1       1.015   3.801  20.399  0.00  0.00    +0.000 C 
ENDBRANCH  15  17
ENDBRANCH  14  15
ENDBRANCH   1  14
TORSDOF 4
ENDMDL
MODEL 6
REMARK VINA RESULT:      -5.8      1.331      1.396
REMARK  Name = 
REMARK  5 active torsions:
REMARK  status: ('A' for Active; 'I' for Inactive)
REMARK    1  A    between atoms: C_1  and  C_2
REMARK    2  A    between atoms: C_2  and  C_3
REMARK    3  A    between atoms: C_3  and  C_4
REMARK    4  A    between atoms: C_4  and  N_5
REMARK    5  A    between atoms: C_9  and  C_10
REMARK                            x       y       z     vdW  Elec       q    Type
REMARK                         _______ _______ _______ _____ _____    ______ ____
ROOT
ATOM      1  N   UNL     1       3.018   2.325  17.819  0.00  0.00    +0.000 N 
ATOM      2  C   UNL     1       4.066   3.272  17.838  0.00  0.00    +0.000 A 
ATOM      3  C   UNL     1       4.464   3.912  16.637  0.00  0.00    +0.000 A 
ATOM      4  N   UNL     1       5.457   4.845  16.572  0.00  0.00    +0.000 NA
ATOM      5  C   UNL     1       6.084   5.094  17.750  0.00  0.00    +0.000 A 
ATOM      6  C   UNL     1       5.726   4.434  18.919  0.00  0.00    +0.000 A 
ATOM      7  N   UNL     1       4.726   3.512  18.980  0.00  0.00    +0.000 NA
ATOM      8  H   UNL     1       2.363   2.563  17.081  0.00  0.00    +0.000 HD
ENDROOT
BRANCH   5   9
ATOM      9  C   UNL     1       7.163   6.121  17.752  0.00  0.00    +0.000 C 
ATOM     10  N   UNL     1       7.488   6.736  16.571  0.00  0.00    +0.000 N 
ATOM     11  O   UNL     1       7.766   6.423  18.781  0.00  0.00    +0.000 OA
ATOM     12  H   UNL     1       7.031   6.529  15.686  0.00  0.00    +0.000 HD
ATOM     13  H   UNL     1       8.230   7.421  16.595  0.00  0.00    +0.000 HD
ENDBRANCH   5   9
BRANCH   1  14
ATOM     14  C   UNL     1       2.340   2.218  19.120  0.00  0.00    +0.000 C 
BRANCH  14  15
ATOM     15  C   UNL     1       1.138   3.163  19.143  0.00  0.00    +0.000 C 
BRANCH  15  17
ATOM     16  C   UNL     1       1.780   5.189  20.506  0.00  0.00    +0.000 C 
ATOM     17  C   UNL     1       1.007   3.878  20.492  0.00  0.00    +0.000 C 
ENDBRANCH  15  17
ENDBRANCH  14  15
ENDBRANCH   1  14
TORSDOF 4
ENDMDL
MODEL 7
REMARK VINA RESULT:      -5.8      1.841      2.162
REMARK  Name = 
REMARK  5 active torsions:
REMARK  status: ('A' for Active; 'I' for Inactive)
REMARK    1  A    between atoms: C_1  and  C_2
REMARK    2  A    between atoms: C_2  and  C_3
REMARK    3  A    between atoms: C_3  and  C_4
REMARK    4  A    between atoms: C_4  and  N_5
REMARK    5  A    between atoms: C_9  and  C_10
REMARK                            x       y       z     vdW  Elec       q    Type
REMARK                         _______ _______ _______ _____ _____    ______ ____
ROOT
ATOM      1  N   UNL     1       2.092   4.009  17.795  0.00  0.00    +0.000 N 
ATOM      2  C   UNL     1       3.402   4.473  18.045  0.00  0.00    +0.000 A 
ATOM      3  C   UNL     1       3.789   5.767  17.613  0.00  0.00    +0.000 A 
ATOM      4  N   UNL     1       5.029   6.295  17.826  0.00  0.00    +0.000 NA
ATOM      5  C   UNL     1       5.902   5.465  18.452  0.00  0.00    +0.000 A 
ATOM      6  C   UNL     1       5.538   4.180  18.836  0.00  0.00    +0.000 A 
ATOM      7  N   UNL     1       4.296   3.664  18.631  0.00  0.00    +0.000 NA
ATOM      8  H   UNL     1       1.452   4.796  17.781  0.00  0.00    +0.000 HD
ENDROOT
BRANCH   5   9
ATOM      9  C   UNL     1       7.267   5.990  18.736  0.00  0.00    +0.000 C 
ATOM     10  N   UNL     1       7.932   5.530  19.843  0.00  0.00    +0.000 N 
ATOM     11  O   UNL     1       7.804   6.822  18.005  0.00  0.00    +0.000 OA
ATOM     12  H   UNL     1       7.542   4.846  20.487  0.00  0.00    +0.000 HD
ATOM     13  H   UNL     1       8.851   5.907  20.020  0.00  0.00    +0.000 HD
ENDBRANCH   5   9
BRANCH   1  14
ATOM     14  C   UNL     1       1.666   2.993  18.770  0.00  0.00    +0.000 C 
BRANCH  14  15
ATOM     15  C   UNL     1       0.840   3.663  19.870  0.00  0.00    +0.000 C 
BRANCH  15  17
ATOM     16  C   UNL     1       2.425   2.662  21.562  0.00  0.00    +0.000 C 
ATOM     17  C   UNL     1       1.676   3.914  21.128  0.00  0.00    +0.000 C 
ENDBRANCH  15  17
ENDBRANCH  14  15
ENDBRANCH   1  14
TORSDOF 4
ENDMDL
MODEL 8
REMARK VINA RESULT:      -5.8      1.952      2.486
REMARK  Name = 
REMARK  5 active torsions:
REMARK  status: ('A' for Active; 'I' for Inactive)
REMARK    1  A    between atoms: C_1  and  C_2
REMARK    2  A    between atoms: C_2  and  C_3
REMARK    3  A    between atoms: C_3  and  C_4
REMARK    4  A    between atoms: C_4  and  N_5
REMARK    5  A    between atoms: C_9  and  C_10
REMARK                            x       y       z     vdW  Elec       q    Type
REMARK                         _______ _______ _______ _____ _____    ______ ____
ROOT
ATOM      1  N   UNL     1       3.041   5.949  18.769  0.00  0.00    +0.000 N 
ATOM      2  C   UNL     1       3.917   5.609  17.715  0.00  0.00    +0.000 A 
ATOM      3  C   UNL     1       4.634   6.625  17.035  0.00  0.00    +0.000 A 
ATOM      4  N   UNL     1       5.509   6.380  16.017  0.00  0.00    +0.000 NA
ATOM      5  C   UNL     1       5.616   5.076  15.658  0.00  0.00    +0.000 A 
ATOM      6  C   UNL     1       4.879   4.083  16.293  0.00  0.00    +0.000 A 
ATOM      7  N   UNL     1       4.017   4.332  17.317  0.00  0.00    +0.000 NA
ATOM      8  H   UNL     1       3.381   6.784  19.234  0.00  0.00    +0.000 HD
ENDROOT
BRANCH   5   9
ATOM      9  C   UNL     1       6.572   4.738  14.567  0.00  0.00    +0.000 C 
ATOM     10  N   UNL     1       7.697   5.506  14.416  0.00  0.00    +0.000 N 
ATOM     11  O   UNL     1       6.372   3.794  13.802  0.00  0.00    +0.000 OA
ATOM     12  H   UNL     1       7.917   6.300  15.013  0.00  0.00    +0.000 HD
ATOM     13  H   UNL     1       8.325   5.264  13.664  0.00  0.00    +0.000 HD
ENDBRANCH   5   9
BRANCH   1  14
ATOM     14  C   UNL     1       2.862   4.843  19.724  0.00  0.00    +0.000 C 
BRANCH  14  15
ATOM     15  C   UNL     1       1.374   4.506  19.834  0.00  0.00    +0.000 C 
BRANCH  15  17
ATOM     16  C   UNL     1       2.391   2.955  21.547  0.00  0.00    +0.000 C 
ATOM     17  C   UNL     1       1.132   3.321  20.774  0.00  0.00    +0.000 C 
ENDBRANCH  15  17
ENDBRANCH  14  15
ENDBRANCH   1  14
TORSDOF 4
ENDMDL
MODEL 9
REMARK VINA RESULT:      -5.8      1.517      2.115
REMARK  Name = 
REMARK  5 active torsions:
REMARK  status: ('A' for Active; 'I' for Inactive)
REMARK    1  A    between atoms: C_1  and  C_2
REMARK    2  A    between atoms: C_2  and  C_3
REMARK    3  A    between atoms: C_3  and  C_4
REMARK    4  A    between atoms: C_4  and  N_5
REMARK    5  A    between atoms: C_9  and  C_10
REMARK                            x       y       z     vdW  Elec       q    Type
REMARK                         _______ _______ _______ _____ _____    ______ ____
ROOT
ATOM      1  N   UNL     1       3.714   4.377  19.933  0.00  0.00    +0.000 N 
ATOM      2  C   UNL     1       4.430   4.404  18.716  0.00  0.00    +0.000 A 
ATOM      3  C   UNL     1       5.369   5.438  18.470  0.00  0.00    +0.000 A 
ATOM      4  N   UNL     1       6.109   5.529  17.327  0.00  0.00    +0.000 NA
ATOM      5  C   UNL     1       5.851   4.570  16.402  0.00  0.00    +0.000 A 
ATOM      6  C   UNL     1       4.898   3.583  16.623  0.00  0.00    +0.000 A 
ATOM      7  N   UNL     1       4.171   3.490  17.770  0.00  0.00    +0.000 NA
ATOM      8  H   UNL     1       4.282   4.789  20.667  0.00  0.00    +0.000 HD
ENDROOT
BRANCH   5   9
ATOM      9  C   UNL     1       6.643   4.599  15.141  0.00  0.00    +0.000 C 
ATOM     10  N   UNL     1       6.361   3.679  14.165  0.00  0.00    +0.000 N 
ATOM     11  O   UNL     1       7.539   5.422  14.959  0.00  0.00    +0.000 OA
ATOM     12  H   UNL     1       5.636   2.971  14.255  0.00  0.00    +0.000 HD
ATOM     13  H   UNL     1       6.917   3.711  13.324  0.00  0.00    +0.000 HD
ENDBRANCH   5   9
BRANCH   1  14
ATOM     14  C   UNL     1       3.280   3.018  20.294  0.00  0.00    +0.000 C 
BRANCH  14  15
ATOM     15  C   UNL     1       1.920   3.091  20.990  0.00  0.00    +0.000 C 
BRANCH  15  17
ATOM     16  C   UNL     1       0.753   2.554  18.817  0.00  0.00    +0.000 C 
ATOM     17  C   UNL     1       0.808   3.490  20.015  0.00  0.00    +0.000 C 
ENDBRANCH  15  17
ENDBRANCH  14  15
ENDBRANCH   1  14
TORSDOF 4
ENDMDL
