MODEL 1
REMARK VINA RESULT:      -7.4      0.000      0.000
REMARK  Name = 
REMARK  3 active torsions:
REMARK  status: ('A' for Active; 'I' for Inactive)
REMARK    1  A    between atoms: C_1  and  C_2
REMARK    2  A    between atoms: N_5  and  S_6
REMARK    3  A    between atoms: S_6  and  C_9
REMARK                            x       y       z     vdW  Elec       q    Type
REMARK                         _______ _______ _______ _____ _____    ______ ____
ROOT
ATOM      1  C   UNL     1       6.123   3.691  12.613  0.00  0.00    +0.000 C 
ATOM      2  C   UNL     1       6.498   4.093  13.980  0.00  0.00    +0.000 A 
ATOM      3  C   UNL     1       6.264   3.596  15.240  0.00  0.00    +0.000 A 
ATOM      4  C   UNL     1       6.927   4.502  16.096  0.00  0.00    +0.000 A 
ATOM      5  N   UNL     1       7.043   4.414  17.481  0.00  0.00    +0.000 N 
ATOM      6  N   UNL     1       7.525   5.476  15.409  0.00  0.00    +0.000 NA
ATOM      7  O   UNL     1       7.258   5.217  14.079  0.00  0.00    +0.000 OA
ATOM      8  H   UNL     1       7.223   3.475  17.831  0.00  0.00    +0.000 HD
ENDROOT
BRANCH   5   9
ATOM      9  S   UNL     1       5.758   5.033  18.388  0.00  0.00    +0.000 S 
ATOM     10  O   UNL     1       6.167   5.036  19.782  0.00  0.00    +0.000 OA
ATOM     11  O   UNL     1       5.335   6.259  17.748  0.00  0.00    +0.000 OA
BRANCH   9  12
ATOM     12  C   UNL     1       4.376   3.926  18.308  0.00  0.00    +0.000 A 
ATOM     13  C   UNL     1       3.338   3.801  17.403  0.00  0.00    +0.000 A 
ATOM     14  C   UNL     1       2.429   2.763  17.764  0.00  0.00    +0.000 A 
ATOM     15  C   UNL     1       2.810   2.131  18.927  0.00  0.00    +0.000 A 
ATOM     16  S   UNL     1       4.258   2.776  19.568  0.00  0.00    +0.000 S 
ENDBRANCH   9  12
ENDBRANCH   5   9
TORSDOF 2
ENDMDL
MODEL 2
REMARK VINA RESULT:      -7.3      0.873      1.086
REMARK  Name = 
REMARK  3 active torsions:
REMARK  status: ('A' for Active; 'I' for Inactive)
REMARK    1  A    between atoms: C_1  and  C_2
REMARK    2  A    between atoms: N_5  and  S_6
REMARK    3  A    between atoms: S_6  and  C_9
REMARK                            x       y       z     vdW  Elec       q    Type
REMARK                         _______ _______ _______ _____ _____    ______ ____
ROOT
ATOM      1  C   UNL     1       5.869   3.703  12.713  0.00  0.00    +0.000 C 
ATOM      2  C   UNL     1       6.363   4.092  14.046  0.00  0.00    +0.000 A 
ATOM      3  C   UNL     1       6.170   3.634  15.328  0.00  0.00    +0.000 A 
ATOM      4  C   UNL     1       6.958   4.494  16.122  0.00  0.00    +0.000 A 
ATOM      5  N   UNL     1       7.153   4.417  17.499  0.00  0.00    +0.000 N 
ATOM      6  N   UNL     1       7.589   5.405  15.381  0.00  0.00    +0.000 NA
ATOM      7  O   UNL     1       7.217   5.150  14.076  0.00  0.00    +0.000 OA
ATOM      8  H   UNL     1       7.278   3.471  17.856  0.00  0.00    +0.000 HD
ENDROOT
BRANCH   5   9
ATOM      9  S   UNL     1       5.984   5.154  18.472  0.00  0.00    +0.000 S 
ATOM     10  O   UNL     1       6.515   5.218  19.823  0.00  0.00    +0.000 OA
ATOM     11  O   UNL     1       5.563   6.360  17.795  0.00  0.00    +0.000 OA
BRANCH   9  12
ATOM     12  C   UNL     1       4.551   4.116  18.582  0.00  0.00    +0.000 A 
ATOM     13  C   UNL     1       4.340   2.887  19.180  0.00  0.00    +0.000 A 
ATOM     14  C   UNL     1       3.008   2.415  18.987  0.00  0.00    +0.000 A 
ATOM     15  C   UNL     1       2.251   3.303  18.254  0.00  0.00    +0.000 A 
ATOM     16  S   UNL     1       3.138   4.698  17.816  0.00  0.00    +0.000 S 
ENDBRANCH   9  12
ENDBRANCH   5   9
TORSDOF 2
ENDMDL
MODEL 3
REMARK VINA RESULT:      -7.0      1.080      1.210
REMARK  Name = 
REMARK  3 active torsions:
REMARK  status: ('A' for Active; 'I' for Inactive)
REMARK    1  A    between atoms: C_1  and  C_2
REMARK    2  A    between atoms: N_5  and  S_6
REMARK    3  A    between atoms: S_6  and  C_9
REMARK                            x       y       z     vdW  Elec       q    Type
REMARK                         _______ _______ _______ _____ _____    ______ ____
ROOT
ATOM      1  C   UNL     1       5.384   3.555  12.764  0.00  0.00    +0.000 C 
ATOM      2  C   UNL     1       6.130   4.036  13.941  0.00  0.00    +0.000 A 
ATOM      3  C   UNL     1       6.102   3.765  15.288  0.00  0.00    +0.000 A 
ATOM      4  C   UNL     1       7.098   4.606  15.829  0.00  0.00    +0.000 A 
ATOM      5  N   UNL     1       7.509   4.671  17.158  0.00  0.00    +0.000 N 
ATOM      6  N   UNL     1       7.694   5.332  14.882  0.00  0.00    +0.000 NA
ATOM      7  O   UNL     1       7.087   4.971  13.695  0.00  0.00    +0.000 OA
ATOM      8  H   UNL     1       7.587   3.767  17.621  0.00  0.00    +0.000 HD
ENDROOT
BRANCH   5   9
ATOM      9  S   UNL     1       6.602   5.665  18.182  0.00  0.00    +0.000 S 
ATOM     10  O   UNL     1       7.045   5.413  19.542  0.00  0.00    +0.000 OA
ATOM     11  O   UNL     1       6.652   7.002  17.633  0.00  0.00    +0.000 OA
BRANCH   9  12
ATOM     12  C   UNL     1       4.900   5.172  18.146  0.00  0.00    +0.000 A 
ATOM     13  C   UNL     1       3.761   5.804  17.679  0.00  0.00    +0.000 A 
ATOM     14  C   UNL     1       2.587   5.020  17.885  0.00  0.00    +0.000 A 
ATOM     15  C   UNL     1       2.874   3.819  18.495  0.00  0.00    +0.000 A 
ATOM     16  S   UNL     1       4.546   3.634  18.803  0.00  0.00    +0.000 S 
ENDBRANCH   9  12
ENDBRANCH   5   9
TORSDOF 2
ENDMDL
MODEL 4
REMARK VINA RESULT:      -6.7      1.091      1.231
REMARK  Name = 
REMARK  3 active torsions:
REMARK  status: ('A' for Active; 'I' for Inactive)
REMARK    1  A    between atoms: C_1  and  C_2
REMARK    2  A    between atoms: N_5  and  S_6
REMARK    3  A    between atoms: S_6  and  C_9
REMARK                            x       y       z     vdW  Elec       q    Type
REMARK                         _______ _______ _______ _____ _____    ______ ____
ROOT
ATOM      1  C   UNL     1       5.602   3.785  13.012  0.00  0.00    +0.000 C 
ATOM      2  C   UNL     1       6.131   3.976  14.374  0.00  0.00    +0.000 A 
ATOM      3  C   UNL     1       5.706   3.646  15.639  0.00  0.00    +0.000 A 
ATOM      4  C   UNL     1       6.717   4.151  16.484  0.00  0.00    +0.000 A 
ATOM      5  N   UNL     1       6.790   4.026  17.869  0.00  0.00    +0.000 N 
ATOM      6  N   UNL     1       7.689   4.741  15.787  0.00  0.00    +0.000 NA
ATOM      7  O   UNL     1       7.322   4.627  14.461  0.00  0.00    +0.000 OA
ATOM      8  H   UNL     1       6.523   3.110  18.225  0.00  0.00    +0.000 HD
ENDROOT
BRANCH   5   9
ATOM      9  S   UNL     1       5.939   5.169  18.778  0.00  0.00    +0.000 S 
ATOM     10  O   UNL     1       6.727   5.461  19.963  0.00  0.00    +0.000 OA
ATOM     11  O   UNL     1       5.554   6.232  17.877  0.00  0.00    +0.000 OA
BRANCH   9  12
ATOM     12  C   UNL     1       4.432   4.456  19.382  0.00  0.00    +0.000 A 
ATOM     13  C   UNL     1       3.281   5.021  19.900  0.00  0.00    +0.000 A 
ATOM     14  C   UNL     1       2.323   4.036  20.283  0.00  0.00    +0.000 A 
ATOM     15  C   UNL     1       2.775   2.758  20.038  0.00  0.00    +0.000 A 
ATOM     16  S   UNL     1       4.336   2.749  19.340  0.00  0.00    +0.000 S 
ENDBRANCH   9  12
ENDBRANCH   5   9
TORSDOF 2
ENDMDL
MODEL 5
REMARK VINA RESULT:      -6.7      1.136      1.325
REMARK  Name = 
REMARK  3 active torsions:
REMARK  status: ('A' for Active; 'I' for Inactive)
REMARK    1  A    between atoms: C_1  and  C_2
REMARK    2  A    between atoms: N_5  and  S_6
REMARK    3  A    between atoms: S_6  and  C_9
REMARK                            x       y       z     vdW  Elec       q    Type
REMARK                         _______ _______ _______ _____ _____    ______ ____
ROOT
ATOM      1  C   UNL     1       6.497   4.072  12.803  0.00  0.00    +0.000 C 
ATOM      2  C   UNL     1       6.569   4.238  14.266  0.00  0.00    +0.000 A 
ATOM      3  C   UNL     1       5.879   3.726  15.339  0.00  0.00    +0.000 A 
ATOM      4  C   UNL     1       6.486   4.333  16.459  0.00  0.00    +0.000 A 
ATOM      5  N   UNL     1       6.189   4.103  17.800  0.00  0.00    +0.000 N 
ATOM      6  N   UNL     1       7.476   5.150  16.097  0.00  0.00    +0.000 NA
ATOM      7  O   UNL     1       7.530   5.087  14.719  0.00  0.00    +0.000 OA
ATOM      8  H   UNL     1       6.022   3.126  18.034  0.00  0.00    +0.000 HD
ENDROOT
BRANCH   5   9
ATOM      9  S   UNL     1       4.903   4.987  18.452  0.00  0.00    +0.000 S 
ATOM     10  O   UNL     1       5.356   5.556  19.709  0.00  0.00    +0.000 OA
ATOM     11  O   UNL     1       4.398   5.844  17.403  0.00  0.00    +0.000 OA
BRANCH   9  12
ATOM     12  C   UNL     1       3.579   3.891  18.884  0.00  0.00    +0.000 A 
ATOM     13  C   UNL     1       2.989   3.581  20.096  0.00  0.00    +0.000 A 
ATOM     14  C   UNL     1       1.953   2.610  19.959  0.00  0.00    +0.000 A 
ATOM     15  C   UNL     1       1.787   2.220  18.649  0.00  0.00    +0.000 A 
ATOM     16  S   UNL     1       2.862   3.029  17.593  0.00  0.00    +0.000 S 
ENDBRANCH   9  12
ENDBRANCH   5   9
TORSDOF 2
ENDMDL
MODEL 6
REMARK VINA RESULT:      -6.6      1.429      1.506
REMARK  Name = 
REMARK  3 active torsions:
REMARK  status: ('A' for Active; 'I' for Inactive)
REMARK    1  A    between atoms: C_1  and  C_2
REMARK    2  A    between atoms: N_5  and  S_6
REMARK    3  A    between atoms: S_6  and  C_9
REMARK                            x       y       z     vdW  Elec       q    Type
REMARK                         _______ _______ _______ _____ _____    ______ ____
ROOT
ATOM      1  C   UNL     1       5.758   3.162  11.953  0.00  0.00    +0.000 C 
ATOM      2  C   UNL     1       6.323   3.822  13.142  0.00  0.00    +0.000 A 
ATOM      3  C   UNL     1       6.136   3.711  14.499  0.00  0.00    +0.000 A 
ATOM      4  C   UNL     1       7.015   4.669  15.047  0.00  0.00    +0.000 A 
ATOM      5  N   UNL     1       7.248   4.915  16.398  0.00  0.00    +0.000 N 
ATOM      6  N   UNL     1       7.692   5.314  14.097  0.00  0.00    +0.000 NA
ATOM      7  O   UNL     1       7.259   4.779  12.899  0.00  0.00    +0.000 OA
ATOM      8  H   UNL     1       7.309   4.079  16.976  0.00  0.00    +0.000 HD
ENDROOT
BRANCH   5   9
ATOM      9  S   UNL     1       6.173   5.965  17.173  0.00  0.00    +0.000 S 
ATOM     10  O   UNL     1       6.801   6.402  18.408  0.00  0.00    +0.000 OA
ATOM     11  O   UNL     1       5.740   6.934  16.191  0.00  0.00    +0.000 OA
BRANCH   9  12
ATOM     12  C   UNL     1       4.723   5.078  17.674  0.00  0.00    +0.000 A 
ATOM     13  C   UNL     1       3.985   4.083  17.059  0.00  0.00    +0.000 A 
ATOM     14  C   UNL     1       2.864   3.680  17.843  0.00  0.00    +0.000 A 
ATOM     15  C   UNL     1       2.791   4.376  19.029  0.00  0.00    +0.000 A 
ATOM     16  S   UNL     1       4.072   5.496  19.199  0.00  0.00    +0.000 S 
ENDBRANCH   9  12
ENDBRANCH   5   9
TORSDOF 2
ENDMDL
MODEL 7
REMARK VINA RESULT:      -6.6      1.734      2.040
REMARK  Name = 
REMARK  3 active torsions:
REMARK  status: ('A' for Active; 'I' for Inactive)
REMARK    1  A    between atoms: C_1  and  C_2
REMARK    2  A    between atoms: N_5  and  S_6
REMARK    3  A    between atoms: S_6  and  C_9
REMARK                            x       y       z     vdW  Elec       q    Type
REMARK                         _______ _______ _______ _____ _____    ______ ____
ROOT
ATOM      1  C   UNL     1       5.698   3.117  12.015  0.00  0.00    +0.000 C 
ATOM      2  C   UNL     1       6.335   3.841  13.129  0.00  0.00    +0.000 A 
ATOM      3  C   UNL     1       6.207   3.830  14.498  0.00  0.00    +0.000 A 
ATOM      4  C   UNL     1       7.136   4.797  14.938  0.00  0.00    +0.000 A 
ATOM      5  N   UNL     1       7.438   5.129  16.256  0.00  0.00    +0.000 N 
ATOM      6  N   UNL     1       7.787   5.352  13.915  0.00  0.00    +0.000 NA
ATOM      7  O   UNL     1       7.286   4.749  12.779  0.00  0.00    +0.000 OA
ATOM      8  H   UNL     1       7.501   4.334  16.889  0.00  0.00    +0.000 HD
ENDROOT
BRANCH   5   9
ATOM      9  S   UNL     1       6.429   6.263  17.000  0.00  0.00    +0.000 S 
ATOM     10  O   UNL     1       7.244   7.039  17.919  0.00  0.00    +0.000 OA
ATOM     11  O   UNL     1       5.681   6.923  15.953  0.00  0.00    +0.000 OA
BRANCH   9  12
ATOM     12  C   UNL     1       5.238   5.433  18.017  0.00  0.00    +0.000 A 
ATOM     13  C   UNL     1       5.198   5.173  19.375  0.00  0.00    +0.000 A 
ATOM     14  C   UNL     1       4.033   4.442  19.751  0.00  0.00    +0.000 A 
ATOM     15  C   UNL     1       3.224   4.177  18.668  0.00  0.00    +0.000 A 
ATOM     16  S   UNL     1       3.860   4.817  17.215  0.00  0.00    +0.000 S 
ENDBRANCH   9  12
ENDBRANCH   5   9
TORSDOF 2
ENDMDL
MODEL 8
REMARK VINA RESULT:      -6.5      1.608      1.743
REMARK  Name = 
REMARK  3 active torsions:
REMARK  status: ('A' for Active; 'I' for Inactive)
REMARK    1  A    between atoms: C_1  and  C_2
REMARK    2  A    between atoms: N_5  and  S_6
REMARK    3  A    between atoms: S_6  and  C_9
REMARK                            x       y       z     vdW  Elec       q    Type
REMARK                         _______ _______ _______ _____ _____    ______ ____
ROOT
ATOM      1  C   UNL     1       7.051   4.878  13.299  0.00  0.00    +0.000 C 
ATOM      2  C   UNL     1       6.756   4.594  14.715  0.00  0.00    +0.000 A 
ATOM      3  C   UNL     1       5.645   4.194  15.417  0.00  0.00    +0.000 A 
ATOM      4  C   UNL     1       6.088   4.129  16.755  0.00  0.00    +0.000 A 
ATOM      5  N   UNL     1       5.351   3.714  17.862  0.00  0.00    +0.000 N 
ATOM      6  N   UNL     1       7.375   4.460  16.862  0.00  0.00    +0.000 NA
ATOM      7  O   UNL     1       7.796   4.750  15.579  0.00  0.00    +0.000 OA
ATOM      8  H   UNL     1       4.761   2.901  17.696  0.00  0.00    +0.000 HD
ENDROOT
BRANCH   5   9
ATOM      9  S   UNL     1       4.378   4.880  18.604  0.00  0.00    +0.000 S 
ATOM     10  O   UNL     1       5.140   5.453  19.700  0.00  0.00    +0.000 OA
ATOM     11  O   UNL     1       3.854   5.728  17.557  0.00  0.00    +0.000 OA
BRANCH   9  12
ATOM     12  C   UNL     1       2.979   4.101  19.364  0.00  0.00    +0.000 A 
ATOM     13  C   UNL     1       1.620   4.336  19.265  0.00  0.00    +0.000 A 
ATOM     14  C   UNL     1       0.859   3.458  20.093  0.00  0.00    +0.000 A 
ATOM     15  C   UNL     1       1.665   2.583  20.788  0.00  0.00    +0.000 A 
ATOM     16  S   UNL     1       3.322   2.811  20.432  0.00  0.00    +0.000 S 
ENDBRANCH   9  12
ENDBRANCH   5   9
TORSDOF 2
ENDMDL
MODEL 9
REMARK VINA RESULT:      -6.5      2.614      4.940
REMARK  Name = 
REMARK  3 active torsions:
REMARK  status: ('A' for Active; 'I' for Inactive)
REMARK    1  A    between atoms: C_1  and  C_2
REMARK    2  A    between atoms: N_5  and  S_6
REMARK    3  A    between atoms: S_6  and  C_9
REMARK                            x       y       z     vdW  Elec       q    Type
REMARK                         _______ _______ _______ _____ _____    ______ ____
ROOT
ATOM      1  C   UNL     1       0.428   2.144  18.903  0.00  0.00    +0.000 C 
ATOM      2  C   UNL     1       1.876   2.416  18.858  0.00  0.00    +0.000 A 
ATOM      3  C   UNL     1       2.776   3.039  19.690  0.00  0.00    +0.000 A 
ATOM      4  C   UNL     1       4.005   2.937  19.004  0.00  0.00    +0.000 A 
ATOM      5  N   UNL     1       5.252   3.365  19.452  0.00  0.00    +0.000 N 
ATOM      6  N   UNL     1       3.867   2.296  17.843  0.00  0.00    +0.000 NA
ATOM      7  O   UNL     1       2.529   1.966  17.753  0.00  0.00    +0.000 OA
ATOM      8  H   UNL     1       5.434   3.178  20.437  0.00  0.00    +0.000 HD
ENDROOT
BRANCH   5   9
ATOM      9  S   UNL     1       5.634   4.991  19.188  0.00  0.00    +0.000 S 
ATOM     10  O   UNL     1       4.510   5.785  19.650  0.00  0.00    +0.000 OA
ATOM     11  O   UNL     1       6.957   5.213  19.728  0.00  0.00    +0.000 OA
BRANCH   9  12
ATOM     12  C   UNL     1       5.745   5.306  17.447  0.00  0.00    +0.000 A 
ATOM     13  C   UNL     1       4.970   6.067  16.591  0.00  0.00    +0.000 A 
ATOM     14  C   UNL     1       5.435   6.005  15.244  0.00  0.00    +0.000 A 
ATOM     15  C   UNL     1       6.550   5.206  15.123  0.00  0.00    +0.000 A 
ATOM     16  S   UNL     1       7.038   4.548  16.624  0.00  0.00    +0.000 S 
ENDBRANCH   9  12
ENDBRANCH   5   9
TORSDOF 2
ENDMDL
