MODEL 1
REMARK VINA RESULT:      -7.0      0.000      0.000
REMARK  Name = 
REMARK  9 active torsions:
REMARK  status: ('A' for Active; 'I' for Inactive)
REMARK    1  A    between atoms: C_1  and  C_2
REMARK    2  A    between atoms: C_2  and  C_3
REMARK    3  A    between atoms: C_3  and  C_4
REMARK    4  A    between atoms: C_4  and  C_5
REMARK    5  A    between atoms: C_5  and  C_6
REMARK    6  A    between atoms: C_6  and  O_7
REMARK    7  A    between atoms: O_7  and  C_8
REMARK    8  A    between atoms: C_13  and  C_14
REMARK    9  A    between atoms: N_19  and  C_20
REMARK                            x       y       z     vdW  Elec       q    Type
REMARK                         _______ _______ _______ _____ _____    ______ ____
ROOT
ATOM      1  C   UNL     1       6.084   5.612  16.933  0.00  0.00    +0.000 A 
ATOM      2  N   UNL     1       7.286   6.234  16.854  0.00  0.00    +0.000 NA
ATOM      3  C   UNL     1       7.959   6.358  18.018  0.00  0.00    +0.000 A 
ATOM      4  C   UNL     1       7.463   5.864  19.214  0.00  0.00    +0.000 A 
ATOM      5  N   UNL     1       6.285   5.204  19.299  0.00  0.00    +0.000 NA
ATOM      6  C   UNL     1       5.594   5.081  18.133  0.00  0.00    +0.000 A 
ENDROOT
BRANCH   6   7
ATOM      7  C   UNL     1       4.320   4.341  18.229  0.00  0.00    +0.000 C 
ATOM      8  C   UNL     1       4.301   3.033  17.901  0.00  0.00    +0.000 C 
ATOM      9  C   UNL     1       3.104   2.125  17.898  0.00  0.00    +0.000 C 
ATOM     10  C   UNL     1       1.749   2.822  17.839  0.00  0.00    +0.000 C 
ATOM     11  C   UNL     1       1.352   3.521  19.141  0.00  0.00    +0.000 C 
ATOM     12  N   UNL     1       2.353   4.408  19.745  0.00  0.00    +0.000 NA
ATOM     13  C   UNL     1       1.719   5.303  20.711  0.00  0.00    +0.000 C 
ATOM     14  C   UNL     1       3.165   5.154  18.773  0.00  0.00    +0.000 C 
ENDBRANCH   6   7
BRANCH   1  15
ATOM     15  O   UNL     1       5.307   5.531  15.795  0.00  0.00    +0.000 OA
BRANCH  15  16
ATOM     16  C   UNL     1       6.052   5.304  14.598  0.00  0.00    +0.000 C 
BRANCH  16  17
ATOM     17  C   UNL     1       5.720   3.902  14.102  0.00  0.00    +0.000 C 
BRANCH  17  18
ATOM     18  C   UNL     1       6.368   3.628  12.747  0.00  0.00    +0.000 C 
BRANCH  18  19
ATOM     19  C   UNL     1       5.414   2.860  11.835  0.00  0.00    +0.000 C 
BRANCH  19  21
ATOM     20  C   UNL     1       3.313   2.987  10.457  0.00  0.00    +0.000 C 
ATOM     21  C   UNL     1       4.203   3.709  11.455  0.00  0.00    +0.000 C 
ENDBRANCH  19  21
ENDBRANCH  18  19
ENDBRANCH  17  18
ENDBRANCH  16  17
ENDBRANCH  15  16
ENDBRANCH   1  15
TORSDOF 7
ENDMDL
MODEL 2
REMARK VINA RESULT:      -6.9      2.749      6.182
REMARK  Name = 
REMARK  9 active torsions:
REMARK  status: ('A' for Active; 'I' for Inactive)
REMARK    1  A    between atoms: C_1  and  C_2
REMARK    2  A    between atoms: C_2  and  C_3
REMARK    3  A    between atoms: C_3  and  C_4
REMARK    4  A    between atoms: C_4  and  C_5
REMARK    5  A    between atoms: C_5  and  C_6
REMARK    6  A    between atoms: C_6  and  O_7
REMARK    7  A    between atoms: O_7  and  C_8
REMARK    8  A    between atoms: C_13  and  C_14
REMARK    9  A    between atoms: N_19  and  C_20
REMARK                            x       y       z     vdW  Elec       q    Type
REMARK                         _______ _______ _______ _____ _____    ______ ____
ROOT
ATOM      1  C   UNL     1       6.694   5.713  16.559  0.00  0.00    +0.000 A 
ATOM      2  N   UNL     1       7.576   5.550  15.542  0.00  0.00    +0.000 NA
ATOM      3  C   UNL     1       7.160   4.764  14.527  0.00  0.00    +0.000 A 
ATOM      4  C   UNL     1       5.906   4.177  14.513  0.00  0.00    +0.000 A 
ATOM      5  N   UNL     1       5.000   4.366  15.501  0.00  0.00    +0.000 NA
ATOM      6  C   UNL     1       5.412   5.151  16.534  0.00  0.00    +0.000 A 
ENDROOT
BRANCH   6   7
ATOM      7  C   UNL     1       4.412   5.371  17.598  0.00  0.00    +0.000 C 
ATOM      8  C   UNL     1       3.633   6.469  17.541  0.00  0.00    +0.000 C 
ATOM      9  C   UNL     1       2.591   6.885  18.540  0.00  0.00    +0.000 C 
ATOM     10  C   UNL     1       2.724   6.262  19.926  0.00  0.00    +0.000 C 
ATOM     11  C   UNL     1       2.342   4.781  19.981  0.00  0.00    +0.000 C 
ATOM     12  N   UNL     1       2.949   3.906  18.972  0.00  0.00    +0.000 NA
ATOM     13  C   UNL     1       2.841   2.507  19.383  0.00  0.00    +0.000 C 
ATOM     14  C   UNL     1       4.333   4.257  18.621  0.00  0.00    +0.000 C 
ENDBRANCH   6   7
BRANCH   1  15
ATOM     15  O   UNL     1       7.091   6.434  17.668  0.00  0.00    +0.000 OA
BRANCH  15  16
ATOM     16  C   UNL     1       7.388   7.804  17.394  0.00  0.00    +0.000 C 
BRANCH  16  17
ATOM     17  C   UNL     1       8.351   8.295  18.467  0.00  0.00    +0.000 C 
BRANCH  17  18
ATOM     18  C   UNL     1       8.692   9.769  18.271  0.00  0.00    +0.000 C 
BRANCH  18  19
ATOM     19  C   UNL     1       9.402  10.330  19.502  0.00  0.00    +0.000 C 
BRANCH  19  21
ATOM     20  C   UNL     1      11.274  11.914  20.065  0.00  0.00    +0.000 C 
ATOM     21  C   UNL     1      10.043  11.684  19.204  0.00  0.00    +0.000 C 
ENDBRANCH  19  21
ENDBRANCH  18  19
ENDBRANCH  17  18
ENDBRANCH  16  17
ENDBRANCH  15  16
ENDBRANCH   1  15
TORSDOF 7
ENDMDL
MODEL 3
REMARK VINA RESULT:      -6.9      0.967      1.089
REMARK  Name = 
REMARK  9 active torsions:
REMARK  status: ('A' for Active; 'I' for Inactive)
REMARK    1  A    between atoms: C_1  and  C_2
REMARK    2  A    between atoms: C_2  and  C_3
REMARK    3  A    between atoms: C_3  and  C_4
REMARK    4  A    between atoms: C_4  and  C_5
REMARK    5  A    between atoms: C_5  and  C_6
REMARK    6  A    between atoms: C_6  and  O_7
REMARK    7  A    between atoms: O_7  and  C_8
REMARK    8  A    between atoms: C_13  and  C_14
REMARK    9  A    between atoms: N_19  and  C_20
REMARK                            x       y       z     vdW  Elec       q    Type
REMARK                         _______ _______ _______ _____ _____    ______ ____
ROOT
ATOM      1  C   UNL     1       5.752   5.862  17.363  0.00  0.00    +0.000 A 
ATOM      2  N   UNL     1       6.900   6.579  17.276  0.00  0.00    +0.000 NA
ATOM      3  C   UNL     1       7.726   6.491  18.340  0.00  0.00    +0.000 A 
ATOM      4  C   UNL     1       7.432   5.705  19.441  0.00  0.00    +0.000 A 
ATOM      5  N   UNL     1       6.310   4.951  19.522  0.00  0.00    +0.000 NA
ATOM      6  C   UNL     1       5.466   5.038  18.459  0.00  0.00    +0.000 A 
ENDROOT
BRANCH   6   7
ATOM      7  C   UNL     1       4.255   4.197  18.543  0.00  0.00    +0.000 C 
ATOM      8  C   UNL     1       4.368   2.872  18.327  0.00  0.00    +0.000 C 
ATOM      9  C   UNL     1       3.254   1.863  18.332  0.00  0.00    +0.000 C 
ATOM     10  C   UNL     1       1.852   2.430  18.136  0.00  0.00    +0.000 C 
ATOM     11  C   UNL     1       1.314   3.191  19.349  0.00  0.00    +0.000 C 
ATOM     12  N   UNL     1       2.195   4.210  19.932  0.00  0.00    +0.000 NA
ATOM     13  C   UNL     1       1.427   5.119  20.780  0.00  0.00    +0.000 C 
ATOM     14  C   UNL     1       3.003   4.945  18.949  0.00  0.00    +0.000 C 
ENDBRANCH   6   7
BRANCH   1  15
ATOM     15  O   UNL     1       4.824   5.977  16.347  0.00  0.00    +0.000 OA
BRANCH  15  16
ATOM     16  C   UNL     1       5.377   5.841  15.038  0.00  0.00    +0.000 C 
BRANCH  16  17
ATOM     17  C   UNL     1       5.598   4.356  14.777  0.00  0.00    +0.000 C 
BRANCH  17  18
ATOM     18  C   UNL     1       6.442   4.135  13.525  0.00  0.00    +0.000 C 
BRANCH  18  19
ATOM     19  C   UNL     1       5.680   3.300  12.498  0.00  0.00    +0.000 C 
BRANCH  19  21
ATOM     20  C   UNL     1       6.010   1.195  11.159  0.00  0.00    +0.000 C 
ATOM     21  C   UNL     1       6.635   2.506  11.609  0.00  0.00    +0.000 C 
ENDBRANCH  19  21
ENDBRANCH  18  19
ENDBRANCH  17  18
ENDBRANCH  16  17
ENDBRANCH  15  16
ENDBRANCH   1  15
TORSDOF 7
ENDMDL
MODEL 4
REMARK VINA RESULT:      -6.8      2.919      6.105
REMARK  Name = 
REMARK  9 active torsions:
REMARK  status: ('A' for Active; 'I' for Inactive)
REMARK    1  A    between atoms: C_1  and  C_2
REMARK    2  A    between atoms: C_2  and  C_3
REMARK    3  A    between atoms: C_3  and  C_4
REMARK    4  A    between atoms: C_4  and  C_5
REMARK    5  A    between atoms: C_5  and  C_6
REMARK    6  A    between atoms: C_6  and  O_7
REMARK    7  A    between atoms: O_7  and  C_8
REMARK    8  A    between atoms: C_13  and  C_14
REMARK    9  A    between atoms: N_19  and  C_20
REMARK                            x       y       z     vdW  Elec       q    Type
REMARK                         _______ _______ _______ _____ _____    ______ ____
ROOT
ATOM      1  C   UNL     1       6.333   6.282  16.740  0.00  0.00    +0.000 A 
ATOM      2  N   UNL     1       7.274   5.910  15.837  0.00  0.00    +0.000 NA
ATOM      3  C   UNL     1       7.097   4.697  15.273  0.00  0.00    +0.000 A 
ATOM      4  C   UNL     1       6.013   3.890  15.580  0.00  0.00    +0.000 A 
ATOM      5  N   UNL     1       5.046   4.267  16.448  0.00  0.00    +0.000 NA
ATOM      6  C   UNL     1       5.218   5.485  17.029  0.00  0.00    +0.000 A 
ENDROOT
BRANCH   6   7
ATOM      7  C   UNL     1       4.147   5.899  17.958  0.00  0.00    +0.000 C 
ATOM      8  C   UNL     1       3.320   6.898  17.592  0.00  0.00    +0.000 C 
ATOM      9  C   UNL     1       2.202   7.483  18.408  0.00  0.00    +0.000 C 
ATOM     10  C   UNL     1       2.283   7.232  19.911  0.00  0.00    +0.000 C 
ATOM     11  C   UNL     1       1.972   5.790  20.318  0.00  0.00    +0.000 C 
ATOM     12  N   UNL     1       2.680   4.732  19.589  0.00  0.00    +0.000 NA
ATOM     13  C   UNL     1       2.617   3.474  20.331  0.00  0.00    +0.000 C 
ATOM     14  C   UNL     1       4.063   5.071  19.223  0.00  0.00    +0.000 C 
ENDBRANCH   6   7
BRANCH   1  15
ATOM     15  O   UNL     1       6.502   7.473  17.418  0.00  0.00    +0.000 OA
BRANCH  15  16
ATOM     16  C   UNL     1       7.857   7.751  17.772  0.00  0.00    +0.000 C 
BRANCH  16  17
ATOM     17  C   UNL     1       8.036   9.265  17.773  0.00  0.00    +0.000 C 
BRANCH  17  18
ATOM     18  C   UNL     1       9.040   9.701  18.837  0.00  0.00    +0.000 C 
BRANCH  18  19
ATOM     19  C   UNL     1       9.461  11.154  18.622  0.00  0.00    +0.000 C 
BRANCH  19  21
ATOM     20  C   UNL     1      11.465  12.457  17.837  0.00  0.00    +0.000 C 
ATOM     21  C   UNL     1      10.977  11.311  18.709  0.00  0.00    +0.000 C 
ENDBRANCH  19  21
ENDBRANCH  18  19
ENDBRANCH  17  18
ENDBRANCH  16  17
ENDBRANCH  15  16
ENDBRANCH   1  15
TORSDOF 7
ENDMDL
MODEL 5
REMARK VINA RESULT:      -6.7      2.704      5.933
REMARK  Name = 
REMARK  9 active torsions:
REMARK  status: ('A' for Active; 'I' for Inactive)
REMARK    1  A    between atoms: C_1  and  C_2
REMARK    2  A    between atoms: C_2  and  C_3
REMARK    3  A    between atoms: C_3  and  C_4
REMARK    4  A    between atoms: C_4  and  C_5
REMARK    5  A    between atoms: C_5  and  C_6
REMARK    6  A    between atoms: C_6  and  O_7
REMARK    7  A    between atoms: O_7  and  C_8
REMARK    8  A    between atoms: C_13  and  C_14
REMARK    9  A    between atoms: N_19  and  C_20
REMARK                            x       y       z     vdW  Elec       q    Type
REMARK                         _______ _______ _______ _____ _____    ______ ____
ROOT
ATOM      1  C   UNL     1       6.550   5.567  16.606  0.00  0.00    +0.000 A 
ATOM      2  N   UNL     1       7.388   5.690  15.547  0.00  0.00    +0.000 NA
ATOM      3  C   UNL     1       7.156   4.851  14.516  0.00  0.00    +0.000 A 
ATOM      4  C   UNL     1       6.117   3.934  14.529  0.00  0.00    +0.000 A 
ATOM      5  N   UNL     1       5.248   3.830  15.562  0.00  0.00    +0.000 NA
ATOM      6  C   UNL     1       5.477   4.667  16.610  0.00  0.00    +0.000 A 
ENDROOT
BRANCH   6   7
ATOM      7  C   UNL     1       4.513   4.563  17.723  0.00  0.00    +0.000 C 
ATOM      8  C   UNL     1       4.750   3.674  18.708  0.00  0.00    +0.000 C 
ATOM      9  C   UNL     1       3.876   3.397  19.899  0.00  0.00    +0.000 C 
ATOM     10  C   UNL     1       2.420   3.831  19.760  0.00  0.00    +0.000 C 
ATOM     11  C   UNL     1       2.214   5.346  19.825  0.00  0.00    +0.000 C 
ATOM     12  N   UNL     1       3.071   6.165  18.960  0.00  0.00    +0.000 NA
ATOM     13  C   UNL     1       2.505   7.504  18.807  0.00  0.00    +0.000 C 
ATOM     14  C   UNL     1       3.372   5.557  17.656  0.00  0.00    +0.000 C 
ENDBRANCH   6   7
BRANCH   1  15
ATOM     15  O   UNL     1       6.787   6.336  17.728  0.00  0.00    +0.000 OA
BRANCH  15  16
ATOM     16  C   UNL     1       7.085   7.703  17.443  0.00  0.00    +0.000 C 
BRANCH  16  17
ATOM     17  C   UNL     1       8.270   8.112  18.309  0.00  0.00    +0.000 C 
BRANCH  17  18
ATOM     18  C   UNL     1       8.547   9.608  18.195  0.00  0.00    +0.000 C 
BRANCH  18  19
ATOM     19  C   UNL     1       9.323  10.110  19.411  0.00  0.00    +0.000 C 
BRANCH  19  21
ATOM     20  C   UNL     1      11.000  11.852  20.105  0.00  0.00    +0.000 C 
ATOM     21  C   UNL     1       9.818  11.540  19.203  0.00  0.00    +0.000 C 
ENDBRANCH  19  21
ENDBRANCH  18  19
ENDBRANCH  17  18
ENDBRANCH  16  17
ENDBRANCH  15  16
ENDBRANCH   1  15
TORSDOF 7
ENDMDL
MODEL 6
REMARK VINA RESULT:      -6.7      2.125      5.314
REMARK  Name = 
REMARK  9 active torsions:
REMARK  status: ('A' for Active; 'I' for Inactive)
REMARK    1  A    between atoms: C_1  and  C_2
REMARK    2  A    between atoms: C_2  and  C_3
REMARK    3  A    between atoms: C_3  and  C_4
REMARK    4  A    between atoms: C_4  and  C_5
REMARK    5  A    between atoms: C_5  and  C_6
REMARK    6  A    between atoms: C_6  and  O_7
REMARK    7  A    between atoms: O_7  and  C_8
REMARK    8  A    between atoms: C_13  and  C_14
REMARK    9  A    between atoms: N_19  and  C_20
REMARK                            x       y       z     vdW  Elec       q    Type
REMARK                         _______ _______ _______ _____ _____    ______ ____
ROOT
ATOM      1  C   UNL     1       6.593   4.529  17.117  0.00  0.00    +0.000 A 
ATOM      2  N   UNL     1       7.550   4.421  16.162  0.00  0.00    +0.000 NA
ATOM      3  C   UNL     1       7.103   4.341  14.892  0.00  0.00    +0.000 A 
ATOM      4  C   UNL     1       5.754   4.385  14.579  0.00  0.00    +0.000 A 
ATOM      5  N   UNL     1       4.791   4.535  15.518  0.00  0.00    +0.000 NA
ATOM      6  C   UNL     1       5.230   4.609  16.804  0.00  0.00    +0.000 A 
ENDROOT
BRANCH   6   7
ATOM      7  C   UNL     1       4.177   4.794  17.822  0.00  0.00    +0.000 C 
ATOM      8  C   UNL     1       3.652   6.023  17.998  0.00  0.00    +0.000 C 
ATOM      9  C   UNL     1       2.605   6.418  19.002  0.00  0.00    +0.000 C 
ATOM     10  C   UNL     1       2.440   5.472  20.187  0.00  0.00    +0.000 C 
ATOM     11  C   UNL     1       1.759   4.147  19.834  0.00  0.00    +0.000 C 
ATOM     12  N   UNL     1       2.291   3.420  18.676  0.00  0.00    +0.000 NA
ATOM     13  C   UNL     1       1.850   2.027  18.705  0.00  0.00    +0.000 C 
ATOM     14  C   UNL     1       3.749   3.519  18.517  0.00  0.00    +0.000 C 
ENDBRANCH   6   7
BRANCH   1  15
ATOM     15  O   UNL     1       6.980   4.527  18.443  0.00  0.00    +0.000 OA
BRANCH  15  16
ATOM     16  C   UNL     1       6.863   5.798  19.083  0.00  0.00    +0.000 C 
BRANCH  16  17
ATOM     17  C   UNL     1       7.978   6.691  18.552  0.00  0.00    +0.000 C 
BRANCH  17  18
ATOM     18  C   UNL     1       7.451   7.670  17.506  0.00  0.00    +0.000 C 
BRANCH  18  19
ATOM     19  C   UNL     1       8.041   9.062  17.720  0.00  0.00    +0.000 C 
BRANCH  19  21
ATOM     20  C   UNL     1       9.418  10.519  19.239  0.00  0.00    +0.000 C 
ATOM     21  C   UNL     1       8.898   9.114  18.983  0.00  0.00    +0.000 C 
ENDBRANCH  19  21
ENDBRANCH  18  19
ENDBRANCH  17  18
ENDBRANCH  16  17
ENDBRANCH  15  16
ENDBRANCH   1  15
TORSDOF 7
ENDMDL
MODEL 7
REMARK VINA RESULT:      -6.7      1.332      2.286
REMARK  Name = 
REMARK  9 active torsions:
REMARK  status: ('A' for Active; 'I' for Inactive)
REMARK    1  A    between atoms: C_1  and  C_2
REMARK    2  A    between atoms: C_2  and  C_3
REMARK    3  A    between atoms: C_3  and  C_4
REMARK    4  A    between atoms: C_4  and  C_5
REMARK    5  A    between atoms: C_5  and  C_6
REMARK    6  A    between atoms: C_6  and  O_7
REMARK    7  A    between atoms: O_7  and  C_8
REMARK    8  A    between atoms: C_13  and  C_14
REMARK    9  A    between atoms: N_19  and  C_20
REMARK                            x       y       z     vdW  Elec       q    Type
REMARK                         _______ _______ _______ _____ _____    ______ ____
ROOT
ATOM      1  C   UNL     1       5.866   6.363  17.929  0.00  0.00    +0.000 A 
ATOM      2  N   UNL     1       7.070   6.881  17.581  0.00  0.00    +0.000 NA
ATOM      3  C   UNL     1       8.090   6.605  18.420  0.00  0.00    +0.000 A 
ATOM      4  C   UNL     1       7.924   5.826  19.554  0.00  0.00    +0.000 A 
ATOM      5  N   UNL     1       6.738   5.269  19.890  0.00  0.00    +0.000 NA
ATOM      6  C   UNL     1       5.700   5.547  19.056  0.00  0.00    +0.000 A 
ENDROOT
BRANCH   6   7
ATOM      7  C   UNL     1       4.413   4.919  19.416  0.00  0.00    +0.000 C 
ATOM      8  C   UNL     1       3.361   5.711  19.703  0.00  0.00    +0.000 C 
ATOM      9  C   UNL     1       1.989   5.265  20.123  0.00  0.00    +0.000 C 
ATOM     10  C   UNL     1       1.901   3.849  20.685  0.00  0.00    +0.000 C 
ATOM     11  C   UNL     1       2.053   2.752  19.629  0.00  0.00    +0.000 C 
ATOM     12  N   UNL     1       3.199   2.866  18.720  0.00  0.00    +0.000 NA
ATOM     13  C   UNL     1       3.459   1.584  18.067  0.00  0.00    +0.000 C 
ATOM     14  C   UNL     1       4.415   3.407  19.344  0.00  0.00    +0.000 C 
ENDBRANCH   6   7
BRANCH   1  15
ATOM     15  O   UNL     1       4.763   6.681  17.161  0.00  0.00    +0.000 OA
BRANCH  15  16
ATOM     16  C   UNL     1       4.969   6.523  15.757  0.00  0.00    +0.000 C 
BRANCH  16  17
ATOM     17  C   UNL     1       5.196   5.041  15.484  0.00  0.00    +0.000 C 
BRANCH  17  18
ATOM     18  C   UNL     1       6.285   4.832  14.436  0.00  0.00    +0.000 C 
BRANCH  18  19
ATOM     19  C   UNL     1       6.144   3.463  13.772  0.00  0.00    +0.000 C 
BRANCH  19  21
ATOM     20  C   UNL     1       5.817   2.246  11.595  0.00  0.00    +0.000 C 
ATOM     21  C   UNL     1       6.120   3.584  12.250  0.00  0.00    +0.000 C 
ENDBRANCH  19  21
ENDBRANCH  18  19
ENDBRANCH  17  18
ENDBRANCH  16  17
ENDBRANCH  15  16
ENDBRANCH   1  15
TORSDOF 7
ENDMDL
MODEL 8
REMARK VINA RESULT:      -6.7      1.099      2.105
REMARK  Name = 
REMARK  9 active torsions:
REMARK  status: ('A' for Active; 'I' for Inactive)
REMARK    1  A    between atoms: C_1  and  C_2
REMARK    2  A    between atoms: C_2  and  C_3
REMARK    3  A    between atoms: C_3  and  C_4
REMARK    4  A    between atoms: C_4  and  C_5
REMARK    5  A    between atoms: C_5  and  C_6
REMARK    6  A    between atoms: C_6  and  O_7
REMARK    7  A    between atoms: O_7  and  C_8
REMARK    8  A    between atoms: C_13  and  C_14
REMARK    9  A    between atoms: N_19  and  C_20
REMARK                            x       y       z     vdW  Elec       q    Type
REMARK                         _______ _______ _______ _____ _____    ______ ____
ROOT
ATOM      1  C   UNL     1       6.012   5.328  17.559  0.00  0.00    +0.000 A 
ATOM      2  N   UNL     1       7.294   5.598  17.211  0.00  0.00    +0.000 NA
ATOM      3  C   UNL     1       8.154   5.775  18.237  0.00  0.00    +0.000 A 
ATOM      4  C   UNL     1       7.757   5.670  19.560  0.00  0.00    +0.000 A 
ATOM      5  N   UNL     1       6.490   5.359  19.920  0.00  0.00    +0.000 NA
ATOM      6  C   UNL     1       5.613   5.185  18.894  0.00  0.00    +0.000 A 
ENDROOT
BRANCH   6   7
ATOM      7  C   UNL     1       4.237   4.825  19.293  0.00  0.00    +0.000 C 
ATOM      8  C   UNL     1       3.406   5.800  19.711  0.00  0.00    +0.000 C 
ATOM      9  C   UNL     1       1.991   5.630  20.189  0.00  0.00    +0.000 C 
ATOM     10  C   UNL     1       1.615   4.224  20.645  0.00  0.00    +0.000 C 
ATOM     11  C   UNL     1       1.465   3.219  19.501  0.00  0.00    +0.000 C 
ATOM     12  N   UNL     1       2.560   3.159  18.527  0.00  0.00    +0.000 NA
ATOM     13  C   UNL     1       2.492   1.916  17.762  0.00  0.00    +0.000 C 
ATOM     14  C   UNL     1       3.896   3.362  19.106  0.00  0.00    +0.000 C 
ENDBRANCH   6   7
BRANCH   1  15
ATOM     15  O   UNL     1       5.065   5.222  16.559  0.00  0.00    +0.000 OA
BRANCH  15  16
ATOM     16  C   UNL     1       5.163   4.021  15.792  0.00  0.00    +0.000 C 
BRANCH  16  17
ATOM     17  C   UNL     1       5.243   4.413  14.322  0.00  0.00    +0.000 C 
BRANCH  17  18
ATOM     18  C   UNL     1       6.689   4.436  13.835  0.00  0.00    +0.000 C 
BRANCH  18  19
ATOM     19  C   UNL     1       6.795   3.871  12.420  0.00  0.00    +0.000 C 
BRANCH  19  21
ATOM     20  C   UNL     1       5.743   1.833  11.385  0.00  0.00    +0.000 C 
ATOM     21  C   UNL     1       5.490   3.204  11.990  0.00  0.00    +0.000 C 
ENDBRANCH  19  21
ENDBRANCH  18  19
ENDBRANCH  17  18
ENDBRANCH  16  17
ENDBRANCH  15  16
ENDBRANCH   1  15
TORSDOF 7
ENDMDL
MODEL 9
REMARK VINA RESULT:      -6.6      3.368      5.508
REMARK  Name = 
REMARK  9 active torsions:
REMARK  status: ('A' for Active; 'I' for Inactive)
REMARK    1  A    between atoms: C_1  and  C_2
REMARK    2  A    between atoms: C_2  and  C_3
REMARK    3  A    between atoms: C_3  and  C_4
REMARK    4  A    between atoms: C_4  and  C_5
REMARK    5  A    between atoms: C_5  and  C_6
REMARK    6  A    between atoms: C_6  and  O_7
REMARK    7  A    between atoms: O_7  and  C_8
REMARK    8  A    between atoms: C_13  and  C_14
REMARK    9  A    between atoms: N_19  and  C_20
REMARK                            x       y       z     vdW  Elec       q    Type
REMARK                         _______ _______ _______ _____ _____    ______ ____
ROOT
ATOM      1  C   UNL     1       5.125   6.262  17.870  0.00  0.00    +0.000 A 
ATOM      2  N   UNL     1       6.252   6.810  17.351  0.00  0.00    +0.000 NA
ATOM      3  C   UNL     1       7.393   6.547  18.021  0.00  0.00    +0.000 A 
ATOM      4  C   UNL     1       7.417   5.752  19.156  0.00  0.00    +0.000 A 
ATOM      5  N   UNL     1       6.306   5.165  19.660  0.00  0.00    +0.000 NA
ATOM      6  C   UNL     1       5.148   5.430  18.996  0.00  0.00    +0.000 A 
ENDROOT
BRANCH   6   7
ATOM      7  C   UNL     1       3.944   4.769  19.538  0.00  0.00    +0.000 C 
ATOM      8  C   UNL     1       3.069   5.500  20.257  0.00  0.00    +0.000 C 
ATOM      9  C   UNL     1       1.813   5.005  20.917  0.00  0.00    +0.000 C 
ATOM     10  C   UNL     1       1.748   3.501  21.161  0.00  0.00    +0.000 C 
ATOM     11  C   UNL     1       1.536   2.674  19.891  0.00  0.00    +0.000 C 
ATOM     12  N   UNL     1       2.423   2.965  18.759  0.00  0.00    +0.000 NA
ATOM     13  C   UNL     1       2.400   1.863  17.800  0.00  0.00    +0.000 C 
ATOM     14  C   UNL     1       3.798   3.315  19.143  0.00  0.00    +0.000 C 
ENDBRANCH   6   7
BRANCH   1  15
ATOM     15  O   UNL     1       3.912   6.564  17.282  0.00  0.00    +0.000 OA
BRANCH  15  16
ATOM     16  C   UNL     1       3.534   7.936  17.404  0.00  0.00    +0.000 C 
BRANCH  16  17
ATOM     17  C   UNL     1       2.151   7.982  18.042  0.00  0.00    +0.000 C 
BRANCH  17  18
ATOM     18  C   UNL     1       1.562   9.389  17.980  0.00  0.00    +0.000 C 
BRANCH  18  19
ATOM     19  C   UNL     1       0.599   9.624  19.142  0.00  0.00    +0.000 C 
BRANCH  19  21
ATOM     20  C   UNL     1       0.102   8.549  21.362  0.00  0.00    +0.000 C 
ATOM     21  C   UNL     1       1.184   9.120  20.460  0.00  0.00    +0.000 C 
ENDBRANCH  19  21
ENDBRANCH  18  19
ENDBRANCH  17  18
ENDBRANCH  16  17
ENDBRANCH  15  16
ENDBRANCH   1  15
TORSDOF 7
ENDMDL
