MODEL 1
REMARK VINA RESULT:      -6.7      0.000      0.000
REMARK  Name = 
REMARK  9 active torsions:
REMARK  status: ('A' for Active; 'I' for Inactive)
REMARK    1  A    between atoms: C_1  and  C_2
REMARK    2  A    between atoms: C_2  and  C_3
REMARK    3  A    between atoms: C_3  and  N_4
REMARK    4  A    between atoms: C_5  and  O_7
REMARK    5  A    between atoms: O_7  and  C_8
REMARK    6  A    between atoms: C_8  and  C_9
REMARK    7  A    between atoms: C_8  and  C_20
REMARK    8  A    between atoms: C_9  and  C_10
REMARK    9  A    between atoms: C_20  and  C_21
REMARK                            x       y       z     vdW  Elec       q    Type
REMARK                         _______ _______ _______ _____ _____    ______ ____
ROOT
ATOM      1  C   UNL     1       4.926   7.006  17.622  0.00  0.00    +0.000 C 
ENDROOT
BRANCH   1   2
ATOM      2  O   UNL     1       6.016   7.702  16.968  0.00  0.00    +0.000 OA
BRANCH   2   4
ATOM      3  N   UNL     1       7.566   9.098  17.837  0.00  0.00    +0.000 N 
ATOM      4  C   UNL     1       7.225   7.774  17.623  0.00  0.00    +0.000 C 
ATOM      5  O   UNL     1       7.851   6.833  18.011  0.00  0.00    +0.000 OA
ATOM      6  H   UNL     1       6.800   9.668  18.144  0.00  0.00    +0.000 HD
BRANCH   3   7
ATOM      7  C   UNL     1       8.897   9.480  18.322  0.00  0.00    +0.000 C 
BRANCH   7   9
ATOM      8  C   UNL     1      10.485  11.415  18.840  0.00  0.00    +0.000 C 
ATOM      9  C   UNL     1       9.146  10.991  18.248  0.00  0.00    +0.000 C 
ENDBRANCH   7   9
ENDBRANCH   3   7
ENDBRANCH   2   4
ENDBRANCH   1   2
BRANCH   1  10
ATOM     10  C   UNL     1       3.706   8.011  17.743  0.00  0.00    +0.000 C 
BRANCH  10  11
ATOM     11  C   UNL     1       2.235   7.641  18.102  0.00  0.00    +0.000 C 
ATOM     12  C   UNL     1       1.888   7.596  19.580  0.00  0.00    +0.000 C 
ATOM     13  C   UNL     1       1.875   8.957  20.258  0.00  0.00    +0.000 C 
ATOM     14  N   UNL     1       1.098  10.025  19.488  0.00  0.00    +0.000 N 
ATOM     15  C   UNL     1       1.512  11.407  20.075  0.00  0.00    +0.000 C 
ATOM     16  C   UNL     1       0.212  12.123  20.327  0.00  0.00    +0.000 C 
ATOM     17  C   UNL     1      -0.758  11.007  20.659  0.00  0.00    +0.000 C 
ATOM     18  C   UNL     1      -0.421   9.916  19.679  0.00  0.00    +0.000 C 
ATOM     19  C   UNL     1       1.355  10.021  17.998  0.00  0.00    +0.000 C 
ATOM     20  C   UNL     1       1.229   8.603  17.443  0.00  0.00    +0.000 C 
ENDBRANCH  10  11
ENDBRANCH   1  10
BRANCH   1  21
ATOM     21  C   UNL     1       4.497   5.747  16.761  0.00  0.00    +0.000 C 
BRANCH  21  22
ATOM     22  C   UNL     1       4.845   4.282  17.253  0.00  0.00    +0.000 C 
ATOM     23  C   UNL     1       5.205   4.060  18.724  0.00  0.00    +0.000 C 
ATOM     24  C   UNL     1       4.050   4.454  19.637  0.00  0.00    +0.000 C 
ATOM     25  N   UNL     1       2.805   3.619  19.398  0.00  0.00    +0.000 N 
ATOM     26  C   UNL     1       1.631   4.313  20.172  0.00  0.00    +0.000 C 
ATOM     27  C   UNL     1       1.177   3.318  21.215  0.00  0.00    +0.000 C 
ATOM     28  C   UNL     1       2.393   2.458  21.465  0.00  0.00    +0.000 C 
ATOM     29  C   UNL     1       2.956   2.242  20.072  0.00  0.00    +0.000 C 
ATOM     30  C   UNL     1       2.460   3.556  17.902  0.00  0.00    +0.000 C 
ATOM     31  C   UNL     1       3.683   3.284  17.015  0.00  0.00    +0.000 C 
ENDBRANCH  21  22
ENDBRANCH   1  21
TORSDOF 8
ENDMDL
MODEL 2
REMARK VINA RESULT:      -6.6      3.218      5.927
REMARK  Name = 
REMARK  9 active torsions:
REMARK  status: ('A' for Active; 'I' for Inactive)
REMARK    1  A    between atoms: C_1  and  C_2
REMARK    2  A    between atoms: C_2  and  C_3
REMARK    3  A    between atoms: C_3  and  N_4
REMARK    4  A    between atoms: C_5  and  O_7
REMARK    5  A    between atoms: O_7  and  C_8
REMARK    6  A    between atoms: C_8  and  C_9
REMARK    7  A    between atoms: C_8  and  C_20
REMARK    8  A    between atoms: C_9  and  C_10
REMARK    9  A    between atoms: C_20  and  C_21
REMARK                            x       y       z     vdW  Elec       q    Type
REMARK                         _______ _______ _______ _____ _____    ______ ____
ROOT
ATOM      1  C   UNL     1       1.443   7.880  20.170  0.00  0.00    +0.000 C 
ENDROOT
BRANCH   1   2
ATOM      2  O   UNL     1       1.323   8.520  21.464  0.00  0.00    +0.000 OA
BRANCH   2   4
ATOM      3  N   UNL     1       0.035  10.071  22.487  0.00  0.00    +0.000 N 
ATOM      4  C   UNL     1       0.060   8.803  21.933  0.00  0.00    +0.000 C 
ATOM      5  O   UNL     1      -0.891   8.087  21.816  0.00  0.00    +0.000 OA
ATOM      6  H   UNL     1       0.530  10.756  21.947  0.00  0.00    +0.000 HD
BRANCH   3   7
ATOM      7  C   UNL     1      -1.120  10.553  23.252  0.00  0.00    +0.000 C 
BRANCH   7   9
ATOM      8  C   UNL     1      -2.582  12.376  22.216  0.00  0.00    +0.000 C 
ATOM      9  C   UNL     1      -1.364  12.057  23.075  0.00  0.00    +0.000 C 
ENDBRANCH   7   9
ENDBRANCH   3   7
ENDBRANCH   2   4
ENDBRANCH   1   2
BRANCH   1  10
ATOM     10  C   UNL     1       2.062   8.932  19.159  0.00  0.00    +0.000 C 
BRANCH  10  11
ATOM     11  C   UNL     1       1.287   9.742  18.076  0.00  0.00    +0.000 C 
ATOM     12  C   UNL     1      -0.135  10.148  18.423  0.00  0.00    +0.000 C 
ATOM     13  C   UNL     1      -0.233  11.208  19.510  0.00  0.00    +0.000 C 
ATOM     14  N   UNL     1       0.700  12.401  19.297  0.00  0.00    +0.000 N 
ATOM     15  C   UNL     1       0.784  13.166  20.651  0.00  0.00    +0.000 C 
ATOM     16  C   UNL     1       0.552  14.609  20.292  0.00  0.00    +0.000 C 
ATOM     17  C   UNL     1      -0.376  14.540  19.096  0.00  0.00    +0.000 C 
ATOM     18  C   UNL     1       0.164  13.406  18.269  0.00  0.00    +0.000 C 
ATOM     19  C   UNL     1       2.096  12.021  18.855  0.00  0.00    +0.000 C 
ATOM     20  C   UNL     1       2.031  11.033  17.690  0.00  0.00    +0.000 C 
ENDBRANCH  10  11
ENDBRANCH   1  10
BRANCH   1  21
ATOM     21  C   UNL     1       2.396   6.619  20.279  0.00  0.00    +0.000 C 
BRANCH  21  22
ATOM     22  C   UNL     1       2.152   5.347  19.366  0.00  0.00    +0.000 C 
ATOM     23  C   UNL     1       2.328   5.478  17.851  0.00  0.00    +0.000 C 
ATOM     24  C   UNL     1       3.756   5.875  17.496  0.00  0.00    +0.000 C 
ATOM     25  N   UNL     1       4.776   4.839  17.931  0.00  0.00    +0.000 N 
ATOM     26  C   UNL     1       6.192   5.497  17.780  0.00  0.00    +0.000 C 
ATOM     27  C   UNL     1       6.922   4.675  16.744  0.00  0.00    +0.000 C 
ATOM     28  C   UNL     1       5.822   4.067  15.907  0.00  0.00    +0.000 C 
ATOM     29  C   UNL     1       4.787   3.660  16.939  0.00  0.00    +0.000 C 
ATOM     30  C   UNL     1       4.559   4.429  19.396  0.00  0.00    +0.000 C 
ATOM     31  C   UNL     1       3.085   4.165  19.734  0.00  0.00    +0.000 C 
ENDBRANCH  21  22
ENDBRANCH   1  21
TORSDOF 8
ENDMDL
MODEL 3
REMARK VINA RESULT:      -6.6      2.053      2.974
REMARK  Name = 
REMARK  9 active torsions:
REMARK  status: ('A' for Active; 'I' for Inactive)
REMARK    1  A    between atoms: C_1  and  C_2
REMARK    2  A    between atoms: C_2  and  C_3
REMARK    3  A    between atoms: C_3  and  N_4
REMARK    4  A    between atoms: C_5  and  O_7
REMARK    5  A    between atoms: O_7  and  C_8
REMARK    6  A    between atoms: C_8  and  C_9
REMARK    7  A    between atoms: C_8  and  C_20
REMARK    8  A    between atoms: C_9  and  C_10
REMARK    9  A    between atoms: C_20  and  C_21
REMARK                            x       y       z     vdW  Elec       q    Type
REMARK                         _______ _______ _______ _____ _____    ______ ____
ROOT
ATOM      1  C   UNL     1       4.590   6.473  17.851  0.00  0.00    +0.000 C 
ENDROOT
BRANCH   1   2
ATOM      2  O   UNL     1       5.752   7.065  17.220  0.00  0.00    +0.000 OA
BRANCH   2   4
ATOM      3  N   UNL     1       6.375   6.004  15.323  0.00  0.00    +0.000 N 
ATOM      4  C   UNL     1       6.683   6.221  16.655  0.00  0.00    +0.000 C 
ATOM      5  O   UNL     1       7.651   5.798  17.212  0.00  0.00    +0.000 OA
ATOM      6  H   UNL     1       6.092   6.833  14.834  0.00  0.00    +0.000 HD
BRANCH   3   7
ATOM      7  C   UNL     1       7.068   4.983  14.531  0.00  0.00    +0.000 C 
BRANCH   7   9
ATOM      8  C   UNL     1       6.337   3.566  12.533  0.00  0.00    +0.000 C 
ATOM      9  C   UNL     1       6.123   3.895  14.006  0.00  0.00    +0.000 C 
ENDBRANCH   7   9
ENDBRANCH   3   7
ENDBRANCH   2   4
ENDBRANCH   1   2
BRANCH   1  10
ATOM     10  C   UNL     1       3.581   7.641  18.214  0.00  0.00    +0.000 C 
BRANCH  10  11
ATOM     11  C   UNL     1       2.031   7.524  18.323  0.00  0.00    +0.000 C 
ATOM     12  C   UNL     1       1.445   7.563  19.725  0.00  0.00    +0.000 C 
ATOM     13  C   UNL     1       1.547   8.920  20.404  0.00  0.00    +0.000 C 
ATOM     14  N   UNL     1       1.092  10.088  19.528  0.00  0.00    +0.000 N 
ATOM     15  C   UNL     1       1.627  11.393  20.187  0.00  0.00    +0.000 C 
ATOM     16  C   UNL     1       0.440  12.317  20.230  0.00  0.00    +0.000 C 
ATOM     17  C   UNL     1      -0.742  11.382  20.388  0.00  0.00    +0.000 C 
ATOM     18  C   UNL     1      -0.434  10.233  19.467  0.00  0.00    +0.000 C 
ATOM     19  C   UNL     1       1.584  10.015  18.100  0.00  0.00    +0.000 C 
ATOM     20  C   UNL     1       1.318   8.626  17.518  0.00  0.00    +0.000 C 
ENDBRANCH  10  11
ENDBRANCH   1  10
BRANCH   1  21
ATOM     21  C   UNL     1       3.894   5.457  16.855  0.00  0.00    +0.000 C 
BRANCH  21  22
ATOM     22  C   UNL     1       3.975   3.896  17.113  0.00  0.00    +0.000 C 
ATOM     23  C   UNL     1       4.608   3.392  18.412  0.00  0.00    +0.000 C 
ATOM     24  C   UNL     1       3.838   3.893  19.629  0.00  0.00    +0.000 C 
ATOM     25  N   UNL     1       2.405   3.393  19.659  0.00  0.00    +0.000 N 
ATOM     26  C   UNL     1       1.658   4.208  20.773  0.00  0.00    +0.000 C 
ATOM     27  C   UNL     1       1.234   3.197  21.811  0.00  0.00    +0.000 C 
ATOM     28  C   UNL     1       2.222   2.065  21.658  0.00  0.00    +0.000 C 
ATOM     29  C   UNL     1       2.365   1.934  20.152  0.00  0.00    +0.000 C 
ATOM     30  C   UNL     1       1.709   3.623  18.309  0.00  0.00    +0.000 C 
ATOM     31  C   UNL     1       2.579   3.221  17.110  0.00  0.00    +0.000 C 
ENDBRANCH  21  22
ENDBRANCH   1  21
TORSDOF 8
ENDMDL
MODEL 4
REMARK VINA RESULT:      -6.5      2.953      5.645
REMARK  Name = 
REMARK  9 active torsions:
REMARK  status: ('A' for Active; 'I' for Inactive)
REMARK    1  A    between atoms: C_1  and  C_2
REMARK    2  A    between atoms: C_2  and  C_3
REMARK    3  A    between atoms: C_3  and  N_4
REMARK    4  A    between atoms: C_5  and  O_7
REMARK    5  A    between atoms: O_7  and  C_8
REMARK    6  A    between atoms: C_8  and  C_9
REMARK    7  A    between atoms: C_8  and  C_20
REMARK    8  A    between atoms: C_9  and  C_10
REMARK    9  A    between atoms: C_20  and  C_21
REMARK                            x       y       z     vdW  Elec       q    Type
REMARK                         _______ _______ _______ _____ _____    ______ ____
ROOT
ATOM      1  C   UNL     1       1.482   7.082  20.332  0.00  0.00    +0.000 C 
ENDROOT
BRANCH   1   2
ATOM      2  O   UNL     1       1.723   6.041  21.310  0.00  0.00    +0.000 OA
BRANCH   2   4
ATOM      3  N   UNL     1       2.258   3.877  21.685  0.00  0.00    +0.000 N 
ATOM      4  C   UNL     1       1.466   4.737  20.946  0.00  0.00    +0.000 C 
ATOM      5  O   UNL     1       0.632   4.397  20.160  0.00  0.00    +0.000 OA
ATOM      6  H   UNL     1       2.319   4.119  22.657  0.00  0.00    +0.000 HD
BRANCH   3   7
ATOM      7  C   UNL     1       2.351   2.449  21.362  0.00  0.00    +0.000 C 
BRANCH   7   9
ATOM      8  C   UNL     1       4.631   1.954  20.318  0.00  0.00    +0.000 C 
ATOM      9  C   UNL     1       3.143   2.182  20.076  0.00  0.00    +0.000 C 
ENDBRANCH   7   9
ENDBRANCH   3   7
ENDBRANCH   2   4
ENDBRANCH   1   2
BRANCH   1  10
ATOM     10  C   UNL     1       1.189   8.430  21.114  0.00  0.00    +0.000 C 
BRANCH  10  11
ATOM     11  C   UNL     1      -0.119   9.275  21.044  0.00  0.00    +0.000 C 
ATOM     12  C   UNL     1      -0.135  10.566  21.843  0.00  0.00    +0.000 C 
ATOM     13  C   UNL     1       0.779  11.650  21.293  0.00  0.00    +0.000 C 
ATOM     14  N   UNL     1       0.642  11.872  19.787  0.00  0.00    +0.000 N 
ATOM     15  C   UNL     1       1.887  12.684  19.325  0.00  0.00    +0.000 C 
ATOM     16  C   UNL     1       1.328  13.805  18.491  0.00  0.00    +0.000 C 
ATOM     17  C   UNL     1      -0.025  14.081  19.116  0.00  0.00    +0.000 C 
ATOM     18  C   UNL     1      -0.584  12.716  19.414  0.00  0.00    +0.000 C 
ATOM     19  C   UNL     1       0.557  10.594  18.981  0.00  0.00    +0.000 C 
ATOM     20  C   UNL     1      -0.477   9.650  19.594  0.00  0.00    +0.000 C 
ENDBRANCH  10  11
ENDBRANCH   1  10
BRANCH   1  21
ATOM     21  C   UNL     1       2.759   7.265  19.414  0.00  0.00    +0.000 C 
BRANCH  21  22
ATOM     22  C   UNL     1       2.720   6.836  17.889  0.00  0.00    +0.000 C 
ATOM     23  C   UNL     1       3.790   7.377  16.939  0.00  0.00    +0.000 C 
ATOM     24  C   UNL     1       5.183   6.937  17.374  0.00  0.00    +0.000 C 
ATOM     25  N   UNL     1       5.353   5.429  17.353  0.00  0.00    +0.000 N 
ATOM     26  C   UNL     1       6.698   5.108  18.094  0.00  0.00    +0.000 C 
ATOM     27  C   UNL     1       7.594   4.463  17.063  0.00  0.00    +0.000 C 
ATOM     28  C   UNL     1       7.086   4.991  15.742  0.00  0.00    +0.000 C 
ATOM     29  C   UNL     1       5.578   4.943  15.909  0.00  0.00    +0.000 C 
ATOM     30  C   UNL     1       4.193   4.731  18.081  0.00  0.00    +0.000 C 
ATOM     31  C   UNL     1       2.818   5.300  17.703  0.00  0.00    +0.000 C 
ENDBRANCH  21  22
ENDBRANCH   1  21
TORSDOF 8
ENDMDL
MODEL 5
REMARK VINA RESULT:      -6.5      2.064      6.399
REMARK  Name = 
REMARK  9 active torsions:
REMARK  status: ('A' for Active; 'I' for Inactive)
REMARK    1  A    between atoms: C_1  and  C_2
REMARK    2  A    between atoms: C_2  and  C_3
REMARK    3  A    between atoms: C_3  and  N_4
REMARK    4  A    between atoms: C_5  and  O_7
REMARK    5  A    between atoms: O_7  and  C_8
REMARK    6  A    between atoms: C_8  and  C_9
REMARK    7  A    between atoms: C_8  and  C_20
REMARK    8  A    between atoms: C_9  and  C_10
REMARK    9  A    between atoms: C_20  and  C_21
REMARK                            x       y       z     vdW  Elec       q    Type
REMARK                         _______ _______ _______ _____ _____    ______ ____
ROOT
ATOM      1  C   UNL     1       4.589   6.913  16.924  0.00  0.00    +0.000 C 
ENDROOT
BRANCH   1   2
ATOM      2  O   UNL     1       5.995   6.919  17.274  0.00  0.00    +0.000 OA
BRANCH   2   4
ATOM      3  N   UNL     1       6.487   6.030  15.255  0.00  0.00    +0.000 N 
ATOM      4  C   UNL     1       6.837   6.068  16.593  0.00  0.00    +0.000 C 
ATOM      5  O   UNL     1       7.774   5.502  17.073  0.00  0.00    +0.000 OA
ATOM      6  H   UNL     1       6.271   6.930  14.868  0.00  0.00    +0.000 HD
BRANCH   3   7
ATOM      7  C   UNL     1       7.072   5.048  14.335  0.00  0.00    +0.000 C 
BRANCH   7   9
ATOM      8  C   UNL     1       5.911   3.485  12.679  0.00  0.00    +0.000 C 
ATOM      9  C   UNL     1       6.186   3.812  14.142  0.00  0.00    +0.000 C 
ENDBRANCH   7   9
ENDBRANCH   3   7
ENDBRANCH   2   4
ENDBRANCH   1   2
BRANCH   1  10
ATOM     10  C   UNL     1       4.087   5.409  16.941  0.00  0.00    +0.000 C 
BRANCH  10  11
ATOM     11  C   UNL     1       4.721   4.231  17.741  0.00  0.00    +0.000 C 
ATOM     12  C   UNL     1       5.040   4.498  19.202  0.00  0.00    +0.000 C 
ATOM     13  C   UNL     1       3.814   4.647  20.090  0.00  0.00    +0.000 C 
ATOM     14  N   UNL     1       2.768   3.549  19.892  0.00  0.00    +0.000 N 
ATOM     15  C   UNL     1       1.445   4.052  20.542  0.00  0.00    +0.000 C 
ATOM     16  C   UNL     1       0.976   2.904  21.396  0.00  0.00    +0.000 C 
ATOM     17  C   UNL     1       2.260   2.233  21.838  0.00  0.00    +0.000 C 
ATOM     18  C   UNL     1       3.128   2.241  20.609  0.00  0.00    +0.000 C 
ATOM     19  C   UNL     1       2.508   3.199  18.444  0.00  0.00    +0.000 C 
ATOM     20  C   UNL     1       3.829   2.976  17.708  0.00  0.00    +0.000 C 
ENDBRANCH  10  11
ENDBRANCH   1  10
BRANCH   1  21
ATOM     21  C   UNL     1       3.768   7.762  17.979  0.00  0.00    +0.000 C 
BRANCH  21  22
ATOM     22  C   UNL     1       2.242   7.438  18.256  0.00  0.00    +0.000 C 
ATOM     23  C   UNL     1       1.716   7.518  19.691  0.00  0.00    +0.000 C 
ATOM     24  C   UNL     1       1.866   8.927  20.253  0.00  0.00    +0.000 C 
ATOM     25  N   UNL     1       1.066   9.955  19.474  0.00  0.00    +0.000 N 
ATOM     26  C   UNL     1       1.539  11.369  19.961  0.00  0.00    +0.000 C 
ATOM     27  C   UNL     1       0.328  12.017  20.589  0.00  0.00    +0.000 C 
ATOM     28  C   UNL     1      -0.529  10.856  21.034  0.00  0.00    +0.000 C 
ATOM     29  C   UNL     1      -0.419   9.882  19.875  0.00  0.00    +0.000 C 
ATOM     30  C   UNL     1       1.320   9.826  17.964  0.00  0.00    +0.000 C 
ATOM     31  C   UNL     1       1.285   8.373  17.472  0.00  0.00    +0.000 C 
ENDBRANCH  21  22
ENDBRANCH   1  21
TORSDOF 8
ENDMDL
MODEL 6
REMARK VINA RESULT:      -6.3      3.086      8.148
REMARK  Name = 
REMARK  9 active torsions:
REMARK  status: ('A' for Active; 'I' for Inactive)
REMARK    1  A    between atoms: C_1  and  C_2
REMARK    2  A    between atoms: C_2  and  C_3
REMARK    3  A    between atoms: C_3  and  N_4
REMARK    4  A    between atoms: C_5  and  O_7
REMARK    5  A    between atoms: O_7  and  C_8
REMARK    6  A    between atoms: C_8  and  C_9
REMARK    7  A    between atoms: C_8  and  C_20
REMARK    8  A    between atoms: C_9  and  C_10
REMARK    9  A    between atoms: C_20  and  C_21
REMARK                            x       y       z     vdW  Elec       q    Type
REMARK                         _______ _______ _______ _____ _____    ______ ____
ROOT
ATOM      1  C   UNL     1       2.053   6.596  20.772  0.00  0.00    +0.000 C 
ENDROOT
BRANCH   1   2
ATOM      2  O   UNL     1       0.933   5.677  20.789  0.00  0.00    +0.000 OA
BRANCH   2   4
ATOM      3  N   UNL     1       2.071   3.878  21.552  0.00  0.00    +0.000 N 
ATOM      4  C   UNL     1       1.190   4.338  20.589  0.00  0.00    +0.000 C 
ATOM      5  O   UNL     1       0.674   3.660  19.752  0.00  0.00    +0.000 OA
ATOM      6  H   UNL     1       1.870   4.213  22.476  0.00  0.00    +0.000 HD
BRANCH   3   7
ATOM      7  C   UNL     1       2.685   2.549  21.459  0.00  0.00    +0.000 C 
BRANCH   7   9
ATOM      8  C   UNL     1       3.508   1.650  19.212  0.00  0.00    +0.000 C 
ATOM      9  C   UNL     1       3.830   2.494  20.440  0.00  0.00    +0.000 C 
ENDBRANCH   7   9
ENDBRANCH   3   7
ENDBRANCH   2   4
ENDBRANCH   1   2
BRANCH   1  10
ATOM     10  C   UNL     1       3.048   6.134  19.627  0.00  0.00    +0.000 C 
BRANCH  10  11
ATOM     11  C   UNL     1       2.817   6.265  18.091  0.00  0.00    +0.000 C 
ATOM     12  C   UNL     1       3.700   7.258  17.356  0.00  0.00    +0.000 C 
ATOM     13  C   UNL     1       5.160   6.840  17.258  0.00  0.00    +0.000 C 
ATOM     14  N   UNL     1       5.361   5.396  16.796  0.00  0.00    +0.000 N 
ATOM     15  C   UNL     1       6.830   5.006  17.135  0.00  0.00    +0.000 C 
ATOM     16  C   UNL     1       7.365   4.389  15.870  0.00  0.00    +0.000 C 
ATOM     17  C   UNL     1       6.622   5.118  14.769  0.00  0.00    +0.000 C 
ATOM     18  C   UNL     1       5.210   5.225  15.279  0.00  0.00    +0.000 C 
ATOM     19  C   UNL     1       4.422   4.405  17.446  0.00  0.00    +0.000 C 
ATOM     20  C   UNL     1       2.982   4.913  17.373  0.00  0.00    +0.000 C 
ENDBRANCH  10  11
ENDBRANCH   1  10
BRANCH   1  21
ATOM     21  C   UNL     1       1.540   8.064  20.472  0.00  0.00    +0.000 C 
BRANCH  21  22
ATOM     22  C   UNL     1       0.068   8.497  20.867  0.00  0.00    +0.000 C 
ATOM     23  C   UNL     1      -0.159   9.234  22.189  0.00  0.00    +0.000 C 
ATOM     24  C   UNL     1       0.597  10.557  22.216  0.00  0.00    +0.000 C 
ATOM     25  N   UNL     1       0.133  11.517  21.136  0.00  0.00    +0.000 N 
ATOM     26  C   UNL     1       1.173  12.690  21.087  0.00  0.00    +0.000 C 
ATOM     27  C   UNL     1       0.409  13.937  21.464  0.00  0.00    +0.000 C 
ATOM     28  C   UNL     1      -0.741  13.433  22.302  0.00  0.00    +0.000 C 
ATOM     29  C   UNL     1      -1.189  12.187  21.559  0.00  0.00    +0.000 C 
ATOM     30  C   UNL     1       0.080  10.825  19.766  0.00  0.00    +0.000 C 
ATOM     31  C   UNL     1      -0.576   9.439  19.818  0.00  0.00    +0.000 C 
ENDBRANCH  21  22
ENDBRANCH   1  21
TORSDOF 8
ENDMDL
MODEL 7
REMARK VINA RESULT:      -6.3      2.968      5.880
REMARK  Name = 
REMARK  9 active torsions:
REMARK  status: ('A' for Active; 'I' for Inactive)
REMARK    1  A    between atoms: C_1  and  C_2
REMARK    2  A    between atoms: C_2  and  C_3
REMARK    3  A    between atoms: C_3  and  N_4
REMARK    4  A    between atoms: C_5  and  O_7
REMARK    5  A    between atoms: O_7  and  C_8
REMARK    6  A    between atoms: C_8  and  C_9
REMARK    7  A    between atoms: C_8  and  C_20
REMARK    8  A    between atoms: C_9  and  C_10
REMARK    9  A    between atoms: C_20  and  C_21
REMARK                            x       y       z     vdW  Elec       q    Type
REMARK                         _______ _______ _______ _____ _____    ______ ____
ROOT
ATOM      1  C   UNL     1       1.579   6.334  20.434  0.00  0.00    +0.000 C 
ENDROOT
BRANCH   1   2
ATOM      2  O   UNL     1       2.032   5.449  21.488  0.00  0.00    +0.000 OA
BRANCH   2   4
ATOM      3  N   UNL     1       1.269   3.845  20.089  0.00  0.00    +0.000 N 
ATOM      4  C   UNL     1       1.897   4.092  21.297  0.00  0.00    +0.000 C 
ATOM      5  O   UNL     1       2.324   3.251  22.032  0.00  0.00    +0.000 OA
ATOM      6  H   UNL     1       1.598   4.423  19.338  0.00  0.00    +0.000 HD
BRANCH   3   7
ATOM      7  C   UNL     1       0.804   2.503  19.725  0.00  0.00    +0.000 C 
BRANCH   7   9
ATOM      8  C   UNL     1       2.962   1.499  18.790  0.00  0.00    +0.000 C 
ATOM      9  C   UNL     1       1.530   1.935  18.499  0.00  0.00    +0.000 C 
ENDBRANCH   7   9
ENDBRANCH   3   7
ENDBRANCH   2   4
ENDBRANCH   1   2
BRANCH   1  10
ATOM     10  C   UNL     1       0.944   7.619  21.113  0.00  0.00    +0.000 C 
BRANCH  10  11
ATOM     11  C   UNL     1       1.455   9.085  20.977  0.00  0.00    +0.000 C 
ATOM     12  C   UNL     1       1.799   9.556  19.575  0.00  0.00    +0.000 C 
ATOM     13  C   UNL     1       0.594   9.727  18.663  0.00  0.00    +0.000 C 
ATOM     14  N   UNL     1      -0.557  10.509  19.296  0.00  0.00    +0.000 N 
ATOM     15  C   UNL     1      -1.823  10.249  18.428  0.00  0.00    +0.000 C 
ATOM     16  C   UNL     1      -2.406  11.615  18.179  0.00  0.00    +0.000 C 
ATOM     17  C   UNL     1      -1.196  12.527  18.157  0.00  0.00    +0.000 C 
ATOM     18  C   UNL     1      -0.330  12.027  19.281  0.00  0.00    +0.000 C 
ATOM     19  C   UNL     1      -0.850  10.122  20.729  0.00  0.00    +0.000 C 
ATOM     20  C   UNL     1       0.442  10.096  21.545  0.00  0.00    +0.000 C 
ENDBRANCH  10  11
ENDBRANCH   1  10
BRANCH   1  21
ATOM     21  C   UNL     1       2.804   6.761  19.525  0.00  0.00    +0.000 C 
BRANCH  21  22
ATOM     22  C   UNL     1       2.748   6.555  17.955  0.00  0.00    +0.000 C 
ATOM     23  C   UNL     1       3.797   7.244  17.079  0.00  0.00    +0.000 C 
ATOM     24  C   UNL     1       5.202   6.768  17.429  0.00  0.00    +0.000 C 
ATOM     25  N   UNL     1       5.391   5.281  17.189  0.00  0.00    +0.000 N 
ATOM     26  C   UNL     1       6.751   4.877  17.859  0.00  0.00    +0.000 C 
ATOM     27  C   UNL     1       7.641   4.402  16.735  0.00  0.00    +0.000 C 
ATOM     28  C   UNL     1       7.106   5.106  15.511  0.00  0.00    +0.000 C 
ATOM     29  C   UNL     1       5.602   5.011  15.687  0.00  0.00    +0.000 C 
ATOM     30  C   UNL     1       4.252   4.468  17.823  0.00  0.00    +0.000 C 
ATOM     31  C   UNL     1       2.864   5.064  17.548  0.00  0.00    +0.000 C 
ENDBRANCH  21  22
ENDBRANCH   1  21
TORSDOF 8
ENDMDL
MODEL 8
REMARK VINA RESULT:      -6.2      2.153      6.513
REMARK  Name = 
REMARK  9 active torsions:
REMARK  status: ('A' for Active; 'I' for Inactive)
REMARK    1  A    between atoms: C_1  and  C_2
REMARK    2  A    between atoms: C_2  and  C_3
REMARK    3  A    between atoms: C_3  and  N_4
REMARK    4  A    between atoms: C_5  and  O_7
REMARK    5  A    between atoms: O_7  and  C_8
REMARK    6  A    between atoms: C_8  and  C_9
REMARK    7  A    between atoms: C_8  and  C_20
REMARK    8  A    between atoms: C_9  and  C_10
REMARK    9  A    between atoms: C_20  and  C_21
REMARK                            x       y       z     vdW  Elec       q    Type
REMARK                         _______ _______ _______ _____ _____    ______ ____
ROOT
ATOM      1  C   UNL     1       4.594   6.775  17.320  0.00  0.00    +0.000 C 
ENDROOT
BRANCH   1   2
ATOM      2  O   UNL     1       5.681   7.430  16.622  0.00  0.00    +0.000 OA
BRANCH   2   4
ATOM      3  N   UNL     1       6.184   5.941  14.997  0.00  0.00    +0.000 N 
ATOM      4  C   UNL     1       6.675   6.643  16.084  0.00  0.00    +0.000 C 
ATOM      5  O   UNL     1       7.810   6.623  16.457  0.00  0.00    +0.000 OA
ATOM      6  H   UNL     1       5.602   6.489  14.392  0.00  0.00    +0.000 HD
BRANCH   3   7
ATOM      7  C   UNL     1       6.957   4.868  14.363  0.00  0.00    +0.000 C 
BRANCH   7   9
ATOM      8  C   UNL     1       6.092   3.457  12.414  0.00  0.00    +0.000 C 
ATOM      9  C   UNL     1       6.083   3.688  13.920  0.00  0.00    +0.000 C 
ENDBRANCH   7   9
ENDBRANCH   3   7
ENDBRANCH   2   4
ENDBRANCH   1   2
BRANCH   1  10
ATOM     10  C   UNL     1       5.222   5.852  18.446  0.00  0.00    +0.000 C 
BRANCH  10  11
ATOM     11  C   UNL     1       5.322   4.296  18.418  0.00  0.00    +0.000 C 
ATOM     12  C   UNL     1       4.937   3.569  19.695  0.00  0.00    +0.000 C 
ATOM     13  C   UNL     1       3.451   3.623  20.018  0.00  0.00    +0.000 C 
ATOM     14  N   UNL     1       2.547   3.283  18.833  0.00  0.00    +0.000 N 
ATOM     15  C   UNL     1       1.112   3.769  19.195  0.00  0.00    +0.000 C 
ATOM     16  C   UNL     1       0.218   2.600  18.879  0.00  0.00    +0.000 C 
ATOM     17  C   UNL     1       1.095   1.392  19.143  0.00  0.00    +0.000 C 
ATOM     18  C   UNL     1       2.436   1.774  18.578  0.00  0.00    +0.000 C 
ATOM     19  C   UNL     1       2.972   3.920  17.529  0.00  0.00    +0.000 C 
ATOM     20  C   UNL     1       4.465   3.691  17.291  0.00  0.00    +0.000 C 
ENDBRANCH  10  11
ENDBRANCH   1  10
BRANCH   1  21
ATOM     21  C   UNL     1       3.649   7.859  17.985  0.00  0.00    +0.000 C 
BRANCH  21  22
ATOM     22  C   UNL     1       2.132   7.522  18.289  0.00  0.00    +0.000 C 
ATOM     23  C   UNL     1       1.655   7.498  19.743  0.00  0.00    +0.000 C 
ATOM     24  C   UNL     1       1.833   8.861  20.402  0.00  0.00    +0.000 C 
ATOM     25  N   UNL     1       1.014   9.947  19.728  0.00  0.00    +0.000 N 
ATOM     26  C   UNL     1       1.512  11.319  20.300  0.00  0.00    +0.000 C 
ATOM     27  C   UNL     1       0.327  11.924  21.016  0.00  0.00    +0.000 C 
ATOM     28  C   UNL     1      -0.522  10.737  21.403  0.00  0.00    +0.000 C 
ATOM     29  C   UNL     1      -0.458   9.850  20.173  0.00  0.00    +0.000 C 
ATOM     30  C   UNL     1       1.216   9.928  18.205  0.00  0.00    +0.000 C 
ATOM     31  C   UNL     1       1.155   8.515  17.609  0.00  0.00    +0.000 C 
ENDBRANCH  21  22
ENDBRANCH   1  21
TORSDOF 8
ENDMDL
MODEL 9
REMARK VINA RESULT:      -6.1      0.551      5.624
REMARK  Name = 
REMARK  9 active torsions:
REMARK  status: ('A' for Active; 'I' for Inactive)
REMARK    1  A    between atoms: C_1  and  C_2
REMARK    2  A    between atoms: C_2  and  C_3
REMARK    3  A    between atoms: C_3  and  N_4
REMARK    4  A    between atoms: C_5  and  O_7
REMARK    5  A    between atoms: O_7  and  C_8
REMARK    6  A    between atoms: C_8  and  C_9
REMARK    7  A    between atoms: C_8  and  C_20
REMARK    8  A    between atoms: C_9  and  C_10
REMARK    9  A    between atoms: C_20  and  C_21
REMARK                            x       y       z     vdW  Elec       q    Type
REMARK                         _______ _______ _______ _____ _____    ______ ____
ROOT
ATOM      1  C   UNL     1       4.848   7.070  17.193  0.00  0.00    +0.000 C 
ENDROOT
BRANCH   1   2
ATOM      2  O   UNL     1       6.114   6.809  17.847  0.00  0.00    +0.000 OA
BRANCH   2   4
ATOM      3  N   UNL     1       7.547   8.539  18.104  0.00  0.00    +0.000 N 
ATOM      4  C   UNL     1       7.241   7.422  17.346  0.00  0.00    +0.000 C 
ATOM      5  O   UNL     1       7.898   7.011  16.436  0.00  0.00    +0.000 OA
ATOM      6  H   UNL     1       7.458   8.392  19.093  0.00  0.00    +0.000 HD
BRANCH   3   7
ATOM      7  C   UNL     1       8.566   9.503  17.677  0.00  0.00    +0.000 C 
BRANCH   7   9
ATOM      8  C   UNL     1      10.309  11.190  18.484  0.00  0.00    +0.000 C 
ATOM      9  C   UNL     1       9.045  10.407  18.820  0.00  0.00    +0.000 C 
ENDBRANCH   7   9
ENDBRANCH   3   7
ENDBRANCH   2   4
ENDBRANCH   1   2
BRANCH   1  10
ATOM     10  C   UNL     1       4.187   5.675  16.831  0.00  0.00    +0.000 C 
BRANCH  10  11
ATOM     11  C   UNL     1       4.630   4.276  17.359  0.00  0.00    +0.000 C 
ATOM     12  C   UNL     1       5.207   4.234  18.763  0.00  0.00    +0.000 C 
ATOM     13  C   UNL     1       4.190   4.500  19.863  0.00  0.00    +0.000 C 
ATOM     14  N   UNL     1       2.896   3.698  19.718  0.00  0.00    +0.000 N 
ATOM     15  C   UNL     1       1.836   4.363  20.644  0.00  0.00    +0.000 C 
ATOM     16  C   UNL     1       1.234   3.223  21.420  0.00  0.00    +0.000 C 
ATOM     17  C   UNL     1       2.371   2.230  21.547  0.00  0.00    +0.000 C 
ATOM     18  C   UNL     1       3.034   2.246  20.196  0.00  0.00    +0.000 C 
ATOM     19  C   UNL     1       2.358   3.646  18.305  0.00  0.00    +0.000 C 
ATOM     20  C   UNL     1       3.470   3.264  17.329  0.00  0.00    +0.000 C 
ENDBRANCH  10  11
ENDBRANCH   1  10
BRANCH   1  21
ATOM     21  C   UNL     1       3.894   7.875  18.168  0.00  0.00    +0.000 C 
BRANCH  21  22
ATOM     22  C   UNL     1       2.336   7.588  18.184  0.00  0.00    +0.000 C 
ATOM     23  C   UNL     1       1.620   7.457  19.531  0.00  0.00    +0.000 C 
ATOM     24  C   UNL     1       1.732   8.745  20.339  0.00  0.00    +0.000 C 
ATOM     25  N   UNL     1       1.076   9.926  19.649  0.00  0.00    +0.000 N 
ATOM     26  C   UNL     1       1.517  11.215  20.426  0.00  0.00    +0.000 C 
ATOM     27  C   UNL     1       0.250  11.811  20.992  0.00  0.00    +0.000 C 
ATOM     28  C   UNL     1      -0.693  10.638  21.118  0.00  0.00    +0.000 C 
ATOM     29  C   UNL     1      -0.452   9.864  19.834  0.00  0.00    +0.000 C 
ATOM     30  C   UNL     1       1.530  10.035  18.185  0.00  0.00    +0.000 C 
ATOM     31  C   UNL     1       1.523   8.686  17.453  0.00  0.00    +0.000 C 
ENDBRANCH  21  22
ENDBRANCH   1  21
TORSDOF 8
ENDMDL
