MODEL 1
REMARK VINA RESULT:      -7.5      0.000      0.000
REMARK  Name = 
REMARK  9 active torsions:
REMARK  status: ('A' for Active; 'I' for Inactive)
REMARK    1  A    between atoms: C_1  and  C_2
REMARK    2  A    between atoms: C_2  and  C_3
REMARK    3  A    between atoms: C_2  and  C_4
REMARK    4  A    between atoms: C_9  and  N_10
REMARK    5  A    between atoms: C_11  and  C_13
REMARK    6  A    between atoms: C_13  and  N_14
REMARK    7  A    between atoms: N_14  and  C_15
REMARK    8  A    between atoms: C_15  and  C_16
REMARK    9  A    between atoms: C_15  and  C_17
REMARK                            x       y       z     vdW  Elec       q    Type
REMARK                         _______ _______ _______ _____ _____    ______ ____
ROOT
ATOM      1  N   UNL     1       5.312   3.525  18.049  0.00  0.00    +0.000 N 
ATOM      2  C   UNL     1       4.624   2.948  19.107  0.00  0.00    +0.000 C 
ATOM      3  O   UNL     1       4.708   3.246  20.297  0.00  0.00    +0.000 OA
ATOM      4  H   UNL     1       5.245   3.013  17.177  0.00  0.00    +0.000 HD
ENDROOT
BRANCH   1  10
ATOM      5  C   UNL     1       6.166   5.649  17.107  0.00  0.00    +0.000 A 
ATOM      6  C   UNL     1       7.016   6.771  17.274  0.00  0.00    +0.000 A 
ATOM      7  C   UNL     1       7.891   6.880  18.353  0.00  0.00    +0.000 A 
ATOM      8  C   UNL     1       7.901   5.898  19.325  0.00  0.00    +0.000 A 
ATOM      9  C   UNL     1       7.030   4.814  19.218  0.00  0.00    +0.000 A 
ATOM     10  C   UNL     1       6.171   4.652  18.115  0.00  0.00    +0.000 A 
BRANCH   5  12
ATOM     11  C   UNL     1       4.832   6.946  15.380  0.00  0.00    +0.000 C 
ATOM     12  C   UNL     1       5.340   5.569  15.821  0.00  0.00    +0.000 C 
ATOM     13  C   UNL     1       6.112   4.914  14.662  0.00  0.00    +0.000 C 
ENDBRANCH   5  12
ENDBRANCH   1  10
BRANCH   2  14
ATOM     14  C   UNL     1       3.654   1.844  18.679  0.00  0.00    +0.000 C 
BRANCH  14  15
ATOM     15  N   UNL     1       2.740   2.345  17.636  0.00  0.00    +0.000 NA
ATOM     16  H   UNL     1       2.472   1.542  17.058  0.00  0.00    +0.000 HD
BRANCH  15  17
ATOM     17  C   UNL     1       1.493   2.887  18.215  0.00  0.00    +0.000 C 
ATOM     18  C   UNL     1       0.952   2.010  19.351  0.00  0.00    +0.000 C 
BRANCH  17  19
ATOM     19  C   UNL     1       1.698   4.307  18.740  0.00  0.00    +0.000 A 
ATOM     20  C   UNL     1       1.425   4.589  20.092  0.00  0.00    +0.000 A 
ATOM     21  C   UNL     1       1.652   5.865  20.612  0.00  0.00    +0.000 A 
ATOM     22  C   UNL     1       2.145   6.865  19.784  0.00  0.00    +0.000 A 
ATOM     23  F   UNL     1       2.365   8.088  20.283  0.00  0.00    +0.000 F 
ATOM     24  C   UNL     1       2.421   6.615  18.448  0.00  0.00    +0.000 A 
ATOM     25  C   UNL     1       2.206   5.335  17.928  0.00  0.00    +0.000 A 
ENDBRANCH  17  19
ENDBRANCH  15  17
ENDBRANCH  14  15
ENDBRANCH   2  14
TORSDOF 6
ENDMDL
MODEL 2
REMARK VINA RESULT:      -7.2      0.806      1.308
REMARK  Name = 
REMARK  9 active torsions:
REMARK  status: ('A' for Active; 'I' for Inactive)
REMARK    1  A    between atoms: C_1  and  C_2
REMARK    2  A    between atoms: C_2  and  C_3
REMARK    3  A    between atoms: C_2  and  C_4
REMARK    4  A    between atoms: C_9  and  N_10
REMARK    5  A    between atoms: C_11  and  C_13
REMARK    6  A    between atoms: C_13  and  N_14
REMARK    7  A    between atoms: N_14  and  C_15
REMARK    8  A    between atoms: C_15  and  C_16
REMARK    9  A    between atoms: C_15  and  C_17
REMARK                            x       y       z     vdW  Elec       q    Type
REMARK                         _______ _______ _______ _____ _____    ______ ____
ROOT
ATOM      1  N   UNL     1       4.883   3.243  17.824  0.00  0.00    +0.000 N 
ATOM      2  C   UNL     1       4.454   2.437  18.869  0.00  0.00    +0.000 C 
ATOM      3  O   UNL     1       4.867   2.439  20.027  0.00  0.00    +0.000 OA
ATOM      4  H   UNL     1       4.552   2.957  16.910  0.00  0.00    +0.000 HD
ENDROOT
BRANCH   1  10
ATOM      5  C   UNL     1       6.423   4.859  16.754  0.00  0.00    +0.000 A 
ATOM      6  C   UNL     1       7.298   5.962  16.921  0.00  0.00    +0.000 A 
ATOM      7  C   UNL     1       7.618   6.468  18.180  0.00  0.00    +0.000 A 
ATOM      8  C   UNL     1       7.028   5.921  19.303  0.00  0.00    +0.000 A 
ATOM      9  C   UNL     1       6.116   4.876  19.164  0.00  0.00    +0.000 A 
ATOM     10  C   UNL     1       5.811   4.313  17.910  0.00  0.00    +0.000 A 
BRANCH   5  12
ATOM     11  C   UNL     1       4.859   4.632  14.768  0.00  0.00    +0.000 C 
ATOM     12  C   UNL     1       6.242   4.304  15.340  0.00  0.00    +0.000 C 
ATOM     13  C   UNL     1       7.327   4.798  14.367  0.00  0.00    +0.000 C 
ENDBRANCH   5  12
ENDBRANCH   1  10
BRANCH   2  14
ATOM     14  C   UNL     1       3.326   1.478  18.480  0.00  0.00    +0.000 C 
BRANCH  14  15
ATOM     15  N   UNL     1       2.362   2.157  17.595  0.00  0.00    +0.000 NA
ATOM     16  H   UNL     1       1.946   1.438  16.993  0.00  0.00    +0.000 HD
BRANCH  15  17
ATOM     17  C   UNL     1       1.253   2.768  18.357  0.00  0.00    +0.000 C 
ATOM     18  C   UNL     1       0.842   1.917  19.565  0.00  0.00    +0.000 C 
BRANCH  17  19
ATOM     19  C   UNL     1       1.621   4.169  18.841  0.00  0.00    +0.000 A 
ATOM     20  C   UNL     1       2.085   5.122  17.913  0.00  0.00    +0.000 A 
ATOM     21  C   UNL     1       2.379   6.425  18.319  0.00  0.00    +0.000 A 
ATOM     22  C   UNL     1       2.219   6.782  19.651  0.00  0.00    +0.000 A 
ATOM     23  F   UNL     1       2.500   8.031  20.039  0.00  0.00    +0.000 F 
ATOM     24  C   UNL     1       1.766   5.863  20.587  0.00  0.00    +0.000 A 
ATOM     25  C   UNL     1       1.459   4.561  20.181  0.00  0.00    +0.000 A 
ENDBRANCH  17  19
ENDBRANCH  15  17
ENDBRANCH  14  15
ENDBRANCH   2  14
TORSDOF 6
ENDMDL
MODEL 3
REMARK VINA RESULT:      -7.2      2.649      5.466
REMARK  Name = 
REMARK  9 active torsions:
REMARK  status: ('A' for Active; 'I' for Inactive)
REMARK    1  A    between atoms: C_1  and  C_2
REMARK    2  A    between atoms: C_2  and  C_3
REMARK    3  A    between atoms: C_2  and  C_4
REMARK    4  A    between atoms: C_9  and  N_10
REMARK    5  A    between atoms: C_11  and  C_13
REMARK    6  A    between atoms: C_13  and  N_14
REMARK    7  A    between atoms: N_14  and  C_15
REMARK    8  A    between atoms: C_15  and  C_16
REMARK    9  A    between atoms: C_15  and  C_17
REMARK                            x       y       z     vdW  Elec       q    Type
REMARK                         _______ _______ _______ _____ _____    ______ ____
ROOT
ATOM      1  N   UNL     1       2.498   6.018  20.561  0.00  0.00    +0.000 N 
ATOM      2  C   UNL     1       1.730   4.870  20.690  0.00  0.00    +0.000 C 
ATOM      3  O   UNL     1       0.613   4.667  20.217  0.00  0.00    +0.000 OA
ATOM      4  H   UNL     1       3.300   6.057  21.180  0.00  0.00    +0.000 HD
ENDROOT
BRANCH   1  10
ATOM      5  C   UNL     1       1.472   8.254  20.284  0.00  0.00    +0.000 A 
ATOM      6  C   UNL     1       1.258   9.371  19.438  0.00  0.00    +0.000 A 
ATOM      7  C   UNL     1       1.675   9.381  18.108  0.00  0.00    +0.000 A 
ATOM      8  C   UNL     1       2.368   8.297  17.604  0.00  0.00    +0.000 A 
ATOM      9  C   UNL     1       2.647   7.211  18.432  0.00  0.00    +0.000 A 
ATOM     10  C   UNL     1       2.196   7.152  19.764  0.00  0.00    +0.000 A 
BRANCH   5  12
ATOM     11  C   UNL     1       1.523   9.363  22.567  0.00  0.00    +0.000 C 
ATOM     12  C   UNL     1       0.861   8.298  21.687  0.00  0.00    +0.000 C 
ATOM     13  C   UNL     1      -0.661   8.530  21.661  0.00  0.00    +0.000 C 
ENDBRANCH   5  12
ENDBRANCH   1  10
BRANCH   2  14
ATOM     14  C   UNL     1       2.411   3.763  21.499  0.00  0.00    +0.000 C 
BRANCH  14  15
ATOM     15  N   UNL     1       2.804   2.652  20.612  0.00  0.00    +0.000 NA
ATOM     16  H   UNL     1       2.295   2.776  19.730  0.00  0.00    +0.000 HD
BRANCH  15  17
ATOM     17  C   UNL     1       4.244   2.697  20.282  0.00  0.00    +0.000 C 
ATOM     18  C   UNL     1       4.832   1.296  20.069  0.00  0.00    +0.000 C 
BRANCH  17  19
ATOM     19  C   UNL     1       4.499   3.535  19.032  0.00  0.00    +0.000 A 
ATOM     20  C   UNL     1       5.461   4.563  19.073  0.00  0.00    +0.000 A 
ATOM     21  C   UNL     1       5.751   5.311  17.931  0.00  0.00    +0.000 A 
ATOM     22  C   UNL     1       5.080   5.044  16.745  0.00  0.00    +0.000 A 
ATOM     23  F   UNL     1       5.359   5.760  15.650  0.00  0.00    +0.000 F 
ATOM     24  C   UNL     1       4.125   4.039  16.677  0.00  0.00    +0.000 A 
ATOM     25  C   UNL     1       3.841   3.279  17.816  0.00  0.00    +0.000 A 
ENDBRANCH  17  19
ENDBRANCH  15  17
ENDBRANCH  14  15
ENDBRANCH   2  14
TORSDOF 6
ENDMDL
MODEL 4
REMARK VINA RESULT:      -7.1      2.169      5.731
REMARK  Name = 
REMARK  9 active torsions:
REMARK  status: ('A' for Active; 'I' for Inactive)
REMARK    1  A    between atoms: C_1  and  C_2
REMARK    2  A    between atoms: C_2  and  C_3
REMARK    3  A    between atoms: C_2  and  C_4
REMARK    4  A    between atoms: C_9  and  N_10
REMARK    5  A    between atoms: C_11  and  C_13
REMARK    6  A    between atoms: C_13  and  N_14
REMARK    7  A    between atoms: N_14  and  C_15
REMARK    8  A    between atoms: C_15  and  C_16
REMARK    9  A    between atoms: C_15  and  C_17
REMARK                            x       y       z     vdW  Elec       q    Type
REMARK                         _______ _______ _______ _____ _____    ______ ____
ROOT
ATOM      1  N   UNL     1       3.542   4.774  18.110  0.00  0.00    +0.000 N 
ATOM      2  C   UNL     1       3.025   3.932  17.134  0.00  0.00    +0.000 C 
ATOM      3  O   UNL     1       1.840   3.687  16.918  0.00  0.00    +0.000 OA
ATOM      4  H   UNL     1       4.543   4.693  18.245  0.00  0.00    +0.000 HD
ENDROOT
BRANCH   1  10
ATOM      5  C   UNL     1       2.121   5.082  20.113  0.00  0.00    +0.000 A 
ATOM      6  C   UNL     1       1.446   5.989  20.968  0.00  0.00    +0.000 A 
ATOM      7  C   UNL     1       1.380   7.354  20.692  0.00  0.00    +0.000 A 
ATOM      8  C   UNL     1       2.033   7.857  19.584  0.00  0.00    +0.000 A 
ATOM      9  C   UNL     1       2.756   6.996  18.759  0.00  0.00    +0.000 A 
ATOM     10  C   UNL     1       2.800   5.607  18.985  0.00  0.00    +0.000 A 
BRANCH   5  12
ATOM     11  C   UNL     1       2.192   3.321  21.939  0.00  0.00    +0.000 C 
ATOM     12  C   UNL     1       2.023   3.590  20.441  0.00  0.00    +0.000 C 
ATOM     13  C   UNL     1       0.703   2.964  19.955  0.00  0.00    +0.000 C 
ENDBRANCH   5  12
ENDBRANCH   1  10
BRANCH   2  14
ATOM     14  C   UNL     1       4.096   3.290  16.249  0.00  0.00    +0.000 C 
BRANCH  14  15
ATOM     15  N   UNL     1       5.411   3.356  16.910  0.00  0.00    +0.000 NA
ATOM     16  H   UNL     1       5.766   2.396  16.974  0.00  0.00    +0.000 HD
BRANCH  15  17
ATOM     17  C   UNL     1       6.391   4.118  16.108  0.00  0.00    +0.000 C 
ATOM     18  C   UNL     1       5.759   4.733  14.853  0.00  0.00    +0.000 C 
BRANCH  17  19
ATOM     19  C   UNL     1       7.036   5.230  16.933  0.00  0.00    +0.000 A 
ATOM     20  C   UNL     1       7.053   6.544  16.427  0.00  0.00    +0.000 A 
ATOM     21  C   UNL     1       7.590   7.589  17.183  0.00  0.00    +0.000 A 
ATOM     22  C   UNL     1       8.118   7.327  18.440  0.00  0.00    +0.000 A 
ATOM     23  F   UNL     1       8.631   8.329  19.164  0.00  0.00    +0.000 F 
ATOM     24  C   UNL     1       8.117   6.041  18.961  0.00  0.00    +0.000 A 
ATOM     25  C   UNL     1       7.569   4.995  18.212  0.00  0.00    +0.000 A 
ENDBRANCH  17  19
ENDBRANCH  15  17
ENDBRANCH  14  15
ENDBRANCH   2  14
TORSDOF 6
ENDMDL
MODEL 5
REMARK VINA RESULT:      -6.9      4.867      6.643
REMARK  Name = 
REMARK  9 active torsions:
REMARK  status: ('A' for Active; 'I' for Inactive)
REMARK    1  A    between atoms: C_1  and  C_2
REMARK    2  A    between atoms: C_2  and  C_3
REMARK    3  A    between atoms: C_2  and  C_4
REMARK    4  A    between atoms: C_9  and  N_10
REMARK    5  A    between atoms: C_11  and  C_13
REMARK    6  A    between atoms: C_13  and  N_14
REMARK    7  A    between atoms: N_14  and  C_15
REMARK    8  A    between atoms: C_15  and  C_16
REMARK    9  A    between atoms: C_15  and  C_17
REMARK                            x       y       z     vdW  Elec       q    Type
REMARK                         _______ _______ _______ _____ _____    ______ ____
ROOT
ATOM      1  N   UNL     1       2.682   7.089  19.124  0.00  0.00    +0.000 N 
ATOM      2  C   UNL     1       1.998   8.208  18.669  0.00  0.00    +0.000 C 
ATOM      3  O   UNL     1       1.828   8.550  17.500  0.00  0.00    +0.000 OA
ATOM      4  H   UNL     1       2.871   7.089  20.119  0.00  0.00    +0.000 HD
ENDROOT
BRANCH   1  10
ATOM      5  C   UNL     1       2.714   4.733  18.366  0.00  0.00    +0.000 A 
ATOM      6  C   UNL     1       3.282   3.767  17.497  0.00  0.00    +0.000 A 
ATOM      7  C   UNL     1       4.362   4.064  16.668  0.00  0.00    +0.000 A 
ATOM      8  C   UNL     1       4.868   5.349  16.643  0.00  0.00    +0.000 A 
ATOM      9  C   UNL     1       4.289   6.334  17.442  0.00  0.00    +0.000 A 
ATOM     10  C   UNL     1       3.230   6.053  18.325  0.00  0.00    +0.000 A 
BRANCH   5  12
ATOM     11  C   UNL     1       0.953   2.970  18.851  0.00  0.00    +0.000 C 
ATOM     12  C   UNL     1       1.616   4.267  19.326  0.00  0.00    +0.000 C 
ATOM     13  C   UNL     1       2.130   4.081  20.765  0.00  0.00    +0.000 C 
ENDBRANCH   5  12
ENDBRANCH   1  10
BRANCH   2  14
ATOM     14  C   UNL     1       1.393   9.055  19.792  0.00  0.00    +0.000 C 
BRANCH  14  15
ATOM     15  N   UNL     1       0.694  10.224  19.228  0.00  0.00    +0.000 NA
ATOM     16  H   UNL     1       0.635  10.080  18.214  0.00  0.00    +0.000 HD
BRANCH  15  17
ATOM     17  C   UNL     1      -0.694  10.325  19.725  0.00  0.00    +0.000 C 
ATOM     18  C   UNL     1      -0.862  11.456  20.747  0.00  0.00    +0.000 C 
BRANCH  17  19
ATOM     19  C   UNL     1      -1.677  10.545  18.577  0.00  0.00    +0.000 A 
ATOM     20  C   UNL     1      -1.511   9.826  17.378  0.00  0.00    +0.000 A 
ATOM     21  C   UNL     1      -2.425   9.969  16.331  0.00  0.00    +0.000 A 
ATOM     22  C   UNL     1      -3.502  10.834  16.474  0.00  0.00    +0.000 A 
ATOM     23  F   UNL     1      -4.379  10.969  15.471  0.00  0.00    +0.000 F 
ATOM     24  C   UNL     1      -3.689  11.556  17.643  0.00  0.00    +0.000 A 
ATOM     25  C   UNL     1      -2.783  11.405  18.698  0.00  0.00    +0.000 A 
ENDBRANCH  17  19
ENDBRANCH  15  17
ENDBRANCH  14  15
ENDBRANCH   2  14
TORSDOF 6
ENDMDL
MODEL 6
REMARK VINA RESULT:      -6.9      2.184      5.522
REMARK  Name = 
REMARK  9 active torsions:
REMARK  status: ('A' for Active; 'I' for Inactive)
REMARK    1  A    between atoms: C_1  and  C_2
REMARK    2  A    between atoms: C_2  and  C_3
REMARK    3  A    between atoms: C_2  and  C_4
REMARK    4  A    between atoms: C_9  and  N_10
REMARK    5  A    between atoms: C_11  and  C_13
REMARK    6  A    between atoms: C_13  and  N_14
REMARK    7  A    between atoms: N_14  and  C_15
REMARK    8  A    between atoms: C_15  and  C_16
REMARK    9  A    between atoms: C_15  and  C_17
REMARK                            x       y       z     vdW  Elec       q    Type
REMARK                         _______ _______ _______ _____ _____    ______ ____
ROOT
ATOM      1  N   UNL     1       3.184   5.365  18.131  0.00  0.00    +0.000 N 
ATOM      2  C   UNL     1       2.570   4.383  17.367  0.00  0.00    +0.000 C 
ATOM      3  O   UNL     1       1.363   4.206  17.215  0.00  0.00    +0.000 OA
ATOM      4  H   UNL     1       4.177   5.224  18.277  0.00  0.00    +0.000 HD
ENDROOT
BRANCH   1  10
ATOM      5  C   UNL     1       2.032   6.286  20.119  0.00  0.00    +0.000 A 
ATOM      6  C   UNL     1       1.451   7.420  20.742  0.00  0.00    +0.000 A 
ATOM      7  C   UNL     1       1.310   8.637  20.078  0.00  0.00    +0.000 A 
ATOM      8  C   UNL     1       1.796   8.771  18.791  0.00  0.00    +0.000 A 
ATOM      9  C   UNL     1       2.428   7.690  18.177  0.00  0.00    +0.000 A 
ATOM     10  C   UNL     1       2.541   6.435  18.805  0.00  0.00    +0.000 A 
BRANCH   5  12
ATOM     11  C   UNL     1       0.839   4.078  20.493  0.00  0.00    +0.000 C 
ATOM     12  C   UNL     1       2.021   4.967  20.894  0.00  0.00    +0.000 C 
ATOM     13  C   UNL     1       3.332   4.176  20.734  0.00  0.00    +0.000 C 
ENDBRANCH   5  12
ENDBRANCH   1  10
BRANCH   2  14
ATOM     14  C   UNL     1       3.557   3.465  16.640  0.00  0.00    +0.000 C 
BRANCH  14  15
ATOM     15  N   UNL     1       4.838   3.416  17.368  0.00  0.00    +0.000 NA
ATOM     16  H   UNL     1       5.028   2.430  17.578  0.00  0.00    +0.000 HD
BRANCH  15  17
ATOM     17  C   UNL     1       5.961   3.898  16.537  0.00  0.00    +0.000 C 
ATOM     18  C   UNL     1       5.510   4.286  15.123  0.00  0.00    +0.000 C 
BRANCH  17  19
ATOM     19  C   UNL     1       6.651   5.097  17.183  0.00  0.00    +0.000 A 
ATOM     20  C   UNL     1       7.421   4.908  18.347  0.00  0.00    +0.000 A 
ATOM     21  C   UNL     1       8.105   5.977  18.928  0.00  0.00    +0.000 A 
ATOM     22  C   UNL     1       8.019   7.240  18.357  0.00  0.00    +0.000 A 
ATOM     23  F   UNL     1       8.676   8.264  18.914  0.00  0.00    +0.000 F 
ATOM     24  C   UNL     1       7.266   7.455  17.212  0.00  0.00    +0.000 A 
ATOM     25  C   UNL     1       6.590   6.384  16.620  0.00  0.00    +0.000 A 
ENDBRANCH  17  19
ENDBRANCH  15  17
ENDBRANCH  14  15
ENDBRANCH   2  14
TORSDOF 6
ENDMDL
MODEL 7
REMARK VINA RESULT:      -6.9      4.692      6.299
REMARK  Name = 
REMARK  9 active torsions:
REMARK  status: ('A' for Active; 'I' for Inactive)
REMARK    1  A    between atoms: C_1  and  C_2
REMARK    2  A    between atoms: C_2  and  C_3
REMARK    3  A    between atoms: C_2  and  C_4
REMARK    4  A    between atoms: C_9  and  N_10
REMARK    5  A    between atoms: C_11  and  C_13
REMARK    6  A    between atoms: C_13  and  N_14
REMARK    7  A    between atoms: N_14  and  C_15
REMARK    8  A    between atoms: C_15  and  C_16
REMARK    9  A    between atoms: C_15  and  C_17
REMARK                            x       y       z     vdW  Elec       q    Type
REMARK                         _______ _______ _______ _____ _____    ______ ____
ROOT
ATOM      1  N   UNL     1       2.586   6.903  17.687  0.00  0.00    +0.000 N 
ATOM      2  C   UNL     1       2.282   7.825  18.680  0.00  0.00    +0.000 C 
ATOM      3  O   UNL     1       2.090   7.595  19.873  0.00  0.00    +0.000 OA
ATOM      4  H   UNL     1       2.519   7.267  16.744  0.00  0.00    +0.000 HD
ENDROOT
BRANCH   1  10
ATOM      5  C   UNL     1       4.159   5.033  18.081  0.00  0.00    +0.000 A 
ATOM      6  C   UNL     1       4.325   3.643  18.308  0.00  0.00    +0.000 A 
ATOM      7  C   UNL     1       3.255   2.753  18.262  0.00  0.00    +0.000 A 
ATOM      8  C   UNL     1       1.978   3.234  18.042  0.00  0.00    +0.000 A 
ATOM      9  C   UNL     1       1.776   4.604  17.877  0.00  0.00    +0.000 A 
ATOM     10  C   UNL     1       2.844   5.521  17.870  0.00  0.00    +0.000 A 
BRANCH   5  12
ATOM     11  C   UNL     1       6.508   5.387  18.975  0.00  0.00    +0.000 C 
ATOM     12  C   UNL     1       5.418   5.900  18.028  0.00  0.00    +0.000 C 
ATOM     13  C   UNL     1       5.993   6.021  16.605  0.00  0.00    +0.000 C 
ENDBRANCH   5  12
ENDBRANCH   1  10
BRANCH   2  14
ATOM     14  C   UNL     1       2.218   9.269  18.177  0.00  0.00    +0.000 C 
BRANCH  14  15
ATOM     15  N   UNL     1       0.867   9.574  17.673  0.00  0.00    +0.000 NA
ATOM     16  H   UNL     1       0.401   8.677  17.497  0.00  0.00    +0.000 HD
BRANCH  15  17
ATOM     17  C   UNL     1       0.053  10.285  18.680  0.00  0.00    +0.000 C 
ATOM     18  C   UNL     1       0.657  11.644  19.059  0.00  0.00    +0.000 C 
BRANCH  17  19
ATOM     19  C   UNL     1      -1.376  10.500  18.185  0.00  0.00    +0.000 A 
ATOM     20  C   UNL     1      -2.209  11.417  18.855  0.00  0.00    +0.000 A 
ATOM     21  C   UNL     1      -3.502  11.671  18.393  0.00  0.00    +0.000 A 
ATOM     22  C   UNL     1      -3.972  11.007  17.268  0.00  0.00    +0.000 A 
ATOM     23  F   UNL     1      -5.211  11.252  16.825  0.00  0.00    +0.000 F 
ATOM     24  C   UNL     1      -3.173  10.097  16.590  0.00  0.00    +0.000 A 
ATOM     25  C   UNL     1      -1.874   9.850  17.043  0.00  0.00    +0.000 A 
ENDBRANCH  17  19
ENDBRANCH  15  17
ENDBRANCH  14  15
ENDBRANCH   2  14
TORSDOF 6
ENDMDL
MODEL 8
REMARK VINA RESULT:      -6.8      4.796      7.393
REMARK  Name = 
REMARK  9 active torsions:
REMARK  status: ('A' for Active; 'I' for Inactive)
REMARK    1  A    between atoms: C_1  and  C_2
REMARK    2  A    between atoms: C_2  and  C_3
REMARK    3  A    between atoms: C_2  and  C_4
REMARK    4  A    between atoms: C_9  and  N_10
REMARK    5  A    between atoms: C_11  and  C_13
REMARK    6  A    between atoms: C_13  and  N_14
REMARK    7  A    between atoms: N_14  and  C_15
REMARK    8  A    between atoms: C_15  and  C_16
REMARK    9  A    between atoms: C_15  and  C_17
REMARK                            x       y       z     vdW  Elec       q    Type
REMARK                         _______ _______ _______ _____ _____    ______ ____
ROOT
ATOM      1  N   UNL     1       0.736  10.104  17.881  0.00  0.00    +0.000 N 
ATOM      2  C   UNL     1       1.466   9.067  18.446  0.00  0.00    +0.000 C 
ATOM      3  O   UNL     1       1.558   8.788  19.640  0.00  0.00    +0.000 OA
ATOM      4  H   UNL     1       0.943  10.278  16.904  0.00  0.00    +0.000 HD
ENDROOT
BRANCH   1  10
ATOM      5  C   UNL     1      -1.536  10.992  18.301  0.00  0.00    +0.000 A 
ATOM      6  C   UNL     1      -2.352  11.866  19.062  0.00  0.00    +0.000 A 
ATOM      7  C   UNL     1      -1.817  12.753  19.994  0.00  0.00    +0.000 A 
ATOM      8  C   UNL     1      -0.455  12.751  20.232  0.00  0.00    +0.000 A 
ATOM      9  C   UNL     1       0.364  11.858  19.543  0.00  0.00    +0.000 A 
ATOM     10  C   UNL     1      -0.142  10.986  18.561  0.00  0.00    +0.000 A 
BRANCH   5  12
ATOM     11  C   UNL     1      -3.465   9.441  17.739  0.00  0.00    +0.000 C 
ATOM     12  C   UNL     1      -2.213  10.153  17.215  0.00  0.00    +0.000 C 
ATOM     13  C   UNL     1      -2.579  10.981  15.971  0.00  0.00    +0.000 C 
ENDBRANCH   5  12
ENDBRANCH   1  10
BRANCH   2  14
ATOM     14  C   UNL     1       2.194   8.198  17.417  0.00  0.00    +0.000 C 
BRANCH  14  15
ATOM     15  N   UNL     1       3.486   7.741  17.960  0.00  0.00    +0.000 NA
ATOM     16  H   UNL     1       3.430   7.821  18.981  0.00  0.00    +0.000 HD
BRANCH  15  17
ATOM     17  C   UNL     1       3.735   6.315  17.659  0.00  0.00    +0.000 C 
ATOM     18  C   UNL     1       5.210   5.934  17.838  0.00  0.00    +0.000 C 
BRANCH  17  19
ATOM     19  C   UNL     1       2.878   5.406  18.538  0.00  0.00    +0.000 A 
ATOM     20  C   UNL     1       2.046   4.444  17.933  0.00  0.00    +0.000 A 
ATOM     21  C   UNL     1       1.292   3.566  18.714  0.00  0.00    +0.000 A 
ATOM     22  C   UNL     1       1.358   3.648  20.099  0.00  0.00    +0.000 A 
ATOM     23  F   UNL     1       0.636   2.805  20.847  0.00  0.00    +0.000 F 
ATOM     24  C   UNL     1       2.168   4.588  20.720  0.00  0.00    +0.000 A 
ATOM     25  C   UNL     1       2.934   5.460  19.941  0.00  0.00    +0.000 A 
ENDBRANCH  17  19
ENDBRANCH  15  17
ENDBRANCH  14  15
ENDBRANCH   2  14
TORSDOF 6
ENDMDL
MODEL 9
REMARK VINA RESULT:      -6.8      4.891      8.003
REMARK  Name = 
REMARK  9 active torsions:
REMARK  status: ('A' for Active; 'I' for Inactive)
REMARK    1  A    between atoms: C_1  and  C_2
REMARK    2  A    between atoms: C_2  and  C_3
REMARK    3  A    between atoms: C_2  and  C_4
REMARK    4  A    between atoms: C_9  and  N_10
REMARK    5  A    between atoms: C_11  and  C_13
REMARK    6  A    between atoms: C_13  and  N_14
REMARK    7  A    between atoms: N_14  and  C_15
REMARK    8  A    between atoms: C_15  and  C_16
REMARK    9  A    between atoms: C_15  and  C_17
REMARK                            x       y       z     vdW  Elec       q    Type
REMARK                         _______ _______ _______ _____ _____    ______ ____
ROOT
ATOM      1  N   UNL     1       6.793   7.589  17.127  0.00  0.00    +0.000 N 
ATOM      2  C   UNL     1       7.824   7.812  18.029  0.00  0.00    +0.000 C 
ATOM      3  O   UNL     1       8.367   6.983  18.756  0.00  0.00    +0.000 OA
ATOM      4  H   UNL     1       6.361   8.432  16.767  0.00  0.00    +0.000 HD
ENDROOT
BRANCH   1  10
ATOM      5  C   UNL     1       4.981   5.911  17.297  0.00  0.00    +0.000 A 
ATOM      6  C   UNL     1       4.465   4.665  16.859  0.00  0.00    +0.000 A 
ATOM      7  C   UNL     1       5.178   3.830  16.002  0.00  0.00    +0.000 A 
ATOM      8  C   UNL     1       6.403   4.242  15.513  0.00  0.00    +0.000 A 
ATOM      9  C   UNL     1       6.907   5.490  15.878  0.00  0.00    +0.000 A 
ATOM     10  C   UNL     1       6.232   6.333  16.780  0.00  0.00    +0.000 A 
BRANCH   5  12
ATOM     11  C   UNL     1       3.154   7.629  17.686  0.00  0.00    +0.000 C 
ATOM     12  C   UNL     1       4.173   6.689  18.338  0.00  0.00    +0.000 C 
ATOM     13  C   UNL     1       3.450   5.765  19.336  0.00  0.00    +0.000 C 
ENDBRANCH   5  12
ENDBRANCH   1  10
BRANCH   2  14
ATOM     14  C   UNL     1       8.309   9.264  18.059  0.00  0.00    +0.000 C 
BRANCH  14  15
ATOM     15  N   UNL     1       8.996   9.546  19.332  0.00  0.00    +0.000 NA
ATOM     16  H   UNL     1       9.540   8.710  19.573  0.00  0.00    +0.000 HD
BRANCH  15  17
ATOM     17  C   UNL     1       9.961  10.658  19.201  0.00  0.00    +0.000 C 
ATOM     18  C   UNL     1       9.843  11.370  17.847  0.00  0.00    +0.000 C 
BRANCH  17  19
ATOM     19  C   UNL     1       9.777  11.683  20.317  0.00  0.00    +0.000 A 
ATOM     20  C   UNL     1      10.399  12.942  20.208  0.00  0.00    +0.000 A 
ATOM     21  C   UNL     1      10.206  13.917  21.189  0.00  0.00    +0.000 A 
ATOM     22  C   UNL     1       9.400  13.640  22.284  0.00  0.00    +0.000 A 
ATOM     23  F   UNL     1       9.214  14.575  23.223  0.00  0.00    +0.000 F 
ATOM     24  C   UNL     1       8.777  12.407  22.418  0.00  0.00    +0.000 A 
ATOM     25  C   UNL     1       8.958  11.433  21.432  0.00  0.00    +0.000 A 
ENDBRANCH  17  19
ENDBRANCH  15  17
ENDBRANCH  14  15
ENDBRANCH   2  14
TORSDOF 6
ENDMDL
