MODEL 1
REMARK VINA RESULT:      -7.3      0.000      0.000
REMARK  Name = 
REMARK  8 active torsions:
REMARK  status: ('A' for Active; 'I' for Inactive)
REMARK    1  A    between atoms: C_1  and  O_2
REMARK    2  A    between atoms: O_2  and  C_3
REMARK    3  A    between atoms: C_6  and  C_7
REMARK    4  A    between atoms: C_7  and  C_8
REMARK    5  A    between atoms: C_8  and  C_9
REMARK    6  A    between atoms: N_11  and  C_12
REMARK    7  A    between atoms: C_12  and  C_13
REMARK    8  A    between atoms: N_26  and  C_27
REMARK                            x       y       z     vdW  Elec       q    Type
REMARK                         _______ _______ _______ _____ _____    ______ ____
ROOT
ATOM      1  C   UNL     1      -0.104  10.958  19.054  0.00  0.00    +0.000 C 
ATOM      2  C   UNL     1      -0.922  11.016  20.359  0.00  0.00    +0.000 C 
ATOM      3  C   UNL     1      -0.736  12.407  20.890  0.00  0.00    +0.000 C 
ATOM      4  O   UNL     1      -1.260  12.787  21.928  0.00  0.00    +0.000 OA
ATOM      5  N   UNL     1       0.130  13.092  20.088  0.00  0.00    +0.000 N 
ATOM      6  C   UNL     1       0.638  12.296  19.094  0.00  0.00    +0.000 C 
ATOM      7  O   UNL     1       1.538  12.620  18.329  0.00  0.00    +0.000 OA
ENDROOT
BRANCH   1  11
ATOM      8  C   UNL     1       2.467   7.396  19.107  0.00  0.00    +0.000 A 
ATOM      9  C   UNL     1       2.259   8.113  17.932  0.00  0.00    +0.000 A 
ATOM     10  C   UNL     1       1.447   9.256  17.929  0.00  0.00    +0.000 A 
ATOM     11  C   UNL     1       0.802   9.704  19.100  0.00  0.00    +0.000 A 
ATOM     12  C   UNL     1       0.999   8.943  20.263  0.00  0.00    +0.000 A 
ATOM     13  C   UNL     1       1.819   7.806  20.268  0.00  0.00    +0.000 A 
BRANCH   8  15
ATOM     14  C   UNL     1       3.042   5.273  19.964  0.00  0.00    +0.000 C 
ATOM     15  O   UNL     1       3.284   6.303  19.008  0.00  0.00    +0.000 OA
ENDBRANCH   8  15
ENDBRANCH   1  11
BRANCH   5  16
ATOM     16  C   UNL     1       0.636  14.440  20.319  0.00  0.00    +0.000 C 
ATOM     17  C   UNL     1      -0.401  15.560  20.392  0.00  0.00    +0.000 C 
ATOM     18  C   UNL     1       0.355  16.721  21.022  0.00  0.00    +0.000 C 
ATOM     19  C   UNL     1       1.411  16.089  21.927  0.00  0.00    +0.000 C 
ATOM     20  C   UNL     1       1.404  14.587  21.634  0.00  0.00    +0.000 C 
ENDBRANCH   5  16
BRANCH   1  21
ATOM     21  C   UNL     1      -0.984  10.930  17.759  0.00  0.00    +0.000 C 
BRANCH  21  22
ATOM     22  C   UNL     1      -2.487  10.817  17.997  0.00  0.00    +0.000 C 
ATOM     23  O   UNL     1      -3.068   9.732  17.954  0.00  0.00    +0.000 OA
ATOM     24  N   UNL     1      -3.199  11.983  18.150  0.00  0.00    +0.000 N 
ATOM     25  H   UNL     1      -2.753  12.831  18.495  0.00  0.00    +0.000 HD
BRANCH  24  26
ATOM     26  C   UNL     1      -4.636  11.871  18.328  0.00  0.00    +0.000 C 
BRANCH  26  27
ATOM     27  C   UNL     1      -5.071  12.083  19.746  0.00  0.00    +0.000 A 
ATOM     28  N   UNL     1      -6.272  11.913  20.247  0.00  0.00    +0.000 NA
ATOM     29  C   UNL     1      -6.224  12.449  21.515  0.00  0.00    +0.000 A 
ATOM     30  C   UNL     1      -7.247  12.587  22.462  0.00  0.00    +0.000 A 
ATOM     31  C   UNL     1      -6.945  13.221  23.666  0.00  0.00    +0.000 A 
ATOM     32  F   UNL     1      -7.914  13.372  24.582  0.00  0.00    +0.000 F 
ATOM     33  C   UNL     1      -5.672  13.713  23.944  0.00  0.00    +0.000 A 
ATOM     34  C   UNL     1      -4.630  13.565  23.018  0.00  0.00    +0.000 A 
ATOM     35  C   UNL     1      -4.950  12.927  21.805  0.00  0.00    +0.000 A 
ATOM     36  N   UNL     1      -4.217  12.625  20.688  0.00  0.00    +0.000 N 
ATOM     37  H   UNL     1      -3.235  12.828  20.555  0.00  0.00    +0.000 HD
ENDBRANCH  26  27
ENDBRANCH  24  26
ENDBRANCH  21  22
ENDBRANCH   1  21
TORSDOF 7
ENDMDL
MODEL 2
REMARK VINA RESULT:      -7.3      0.777      1.337
REMARK  Name = 
REMARK  8 active torsions:
REMARK  status: ('A' for Active; 'I' for Inactive)
REMARK    1  A    between atoms: C_1  and  O_2
REMARK    2  A    between atoms: O_2  and  C_3
REMARK    3  A    between atoms: C_6  and  C_7
REMARK    4  A    between atoms: C_7  and  C_8
REMARK    5  A    between atoms: C_8  and  C_9
REMARK    6  A    between atoms: N_11  and  C_12
REMARK    7  A    between atoms: C_12  and  C_13
REMARK    8  A    between atoms: N_26  and  C_27
REMARK                            x       y       z     vdW  Elec       q    Type
REMARK                         _______ _______ _______ _____ _____    ______ ____
ROOT
ATOM      1  C   UNL     1      -0.329  10.973  19.014  0.00  0.00    +0.000 C 
ATOM      2  C   UNL     1      -1.308  10.983  20.204  0.00  0.00    +0.000 C 
ATOM      3  C   UNL     1      -1.229  12.367  20.779  0.00  0.00    +0.000 C 
ATOM      4  O   UNL     1      -1.891  12.712  21.748  0.00  0.00    +0.000 OA
ATOM      5  N   UNL     1      -0.287  13.090  20.107  0.00  0.00    +0.000 N 
ATOM      6  C   UNL     1       0.366  12.327  19.173  0.00  0.00    +0.000 C 
ATOM      7  O   UNL     1       1.347  12.689  18.535  0.00  0.00    +0.000 OA
ENDROOT
BRANCH   1  11
ATOM      8  C   UNL     1       2.295   7.464  19.333  0.00  0.00    +0.000 A 
ATOM      9  C   UNL     1       2.025   8.048  18.098  0.00  0.00    +0.000 A 
ATOM     10  C   UNL     1       1.197   9.175  18.009  0.00  0.00    +0.000 A 
ATOM     11  C   UNL     1       0.597   9.740  19.154  0.00  0.00    +0.000 A 
ATOM     12  C   UNL     1       0.856   9.112  20.381  0.00  0.00    +0.000 A 
ATOM     13  C   UNL     1       1.693   7.990  20.471  0.00  0.00    +0.000 A 
BRANCH   8  15
ATOM     14  C   UNL     1       2.661   5.245  20.052  0.00  0.00    +0.000 C 
ATOM     15  O   UNL     1       3.124   6.375  19.315  0.00  0.00    +0.000 OA
ENDBRANCH   8  15
ENDBRANCH   1  11
BRANCH   5  16
ATOM     16  C   UNL     1       0.150  14.444  20.424  0.00  0.00    +0.000 C 
ATOM     17  C   UNL     1      -0.939  15.514  20.512  0.00  0.00    +0.000 C 
ATOM     18  C   UNL     1      -0.260  16.672  21.229  0.00  0.00    +0.000 C 
ATOM     19  C   UNL     1       0.789  16.040  22.142  0.00  0.00    +0.000 C 
ATOM     20  C   UNL     1       0.860  14.556  21.774  0.00  0.00    +0.000 C 
ENDBRANCH   5  16
BRANCH   1  21
ATOM     21  C   UNL     1      -1.035  10.950  17.617  0.00  0.00    +0.000 C 
BRANCH  21  22
ATOM     22  C   UNL     1      -2.537  10.682  17.651  0.00  0.00    +0.000 C 
ATOM     23  O   UNL     1      -2.988   9.542  17.772  0.00  0.00    +0.000 OA
ATOM     24  N   UNL     1      -3.381  11.745  17.430  0.00  0.00    +0.000 N 
ATOM     25  H   UNL     1      -3.091  12.699  17.634  0.00  0.00    +0.000 HD
BRANCH  24  26
ATOM     26  C   UNL     1      -4.808  11.474  17.417  0.00  0.00    +0.000 C 
BRANCH  26  27
ATOM     27  C   UNL     1      -5.486  11.837  18.702  0.00  0.00    +0.000 A 
ATOM     28  N   UNL     1      -5.042  12.639  19.642  0.00  0.00    +0.000 NA
ATOM     29  C   UNL     1      -5.899  12.474  20.707  0.00  0.00    +0.000 A 
ATOM     30  C   UNL     1      -5.849  13.042  21.986  0.00  0.00    +0.000 A 
ATOM     31  C   UNL     1      -6.822  12.664  22.911  0.00  0.00    +0.000 A 
ATOM     32  F   UNL     1      -6.786  13.190  24.144  0.00  0.00    +0.000 F 
ATOM     33  C   UNL     1      -7.824  11.749  22.596  0.00  0.00    +0.000 A 
ATOM     34  C   UNL     1      -7.904  11.186  21.316  0.00  0.00    +0.000 A 
ATOM     35  C   UNL     1      -6.913  11.573  20.395  0.00  0.00    +0.000 A 
ATOM     36  N   UNL     1      -6.666  11.230  19.092  0.00  0.00    +0.000 N 
ATOM     37  H   UNL     1      -7.217  10.590  18.536  0.00  0.00    +0.000 HD
ENDBRANCH  26  27
ENDBRANCH  24  26
ENDBRANCH  21  22
ENDBRANCH   1  21
TORSDOF 7
ENDMDL
MODEL 3
REMARK VINA RESULT:      -7.2      4.273      8.278
REMARK  Name = 
REMARK  8 active torsions:
REMARK  status: ('A' for Active; 'I' for Inactive)
REMARK    1  A    between atoms: C_1  and  O_2
REMARK    2  A    between atoms: O_2  and  C_3
REMARK    3  A    between atoms: C_6  and  C_7
REMARK    4  A    between atoms: C_7  and  C_8
REMARK    5  A    between atoms: C_8  and  C_9
REMARK    6  A    between atoms: N_11  and  C_12
REMARK    7  A    between atoms: C_12  and  C_13
REMARK    8  A    between atoms: N_26  and  C_27
REMARK                            x       y       z     vdW  Elec       q    Type
REMARK                         _______ _______ _______ _____ _____    ______ ____
ROOT
ATOM      1  C   UNL     1      -0.630  11.674  19.572  0.00  0.00    +0.000 C 
ATOM      2  C   UNL     1       0.440  11.041  18.661  0.00  0.00    +0.000 C 
ATOM      3  C   UNL     1       1.585  12.012  18.649  0.00  0.00    +0.000 C 
ATOM      4  O   UNL     1       2.609  11.808  18.012  0.00  0.00    +0.000 OA
ATOM      5  N   UNL     1       1.253  13.120  19.373  0.00  0.00    +0.000 N 
ATOM      6  C   UNL     1      -0.041  13.064  19.822  0.00  0.00    +0.000 C 
ATOM      7  O   UNL     1      -0.633  13.986  20.370  0.00  0.00    +0.000 OA
ENDROOT
BRANCH   1  11
ATOM      8  C   UNL     1      -4.506  11.639  17.503  0.00  0.00    +0.000 A 
ATOM      9  C   UNL     1      -4.411  12.006  18.843  0.00  0.00    +0.000 A 
ATOM     10  C   UNL     1      -3.167  12.027  19.490  0.00  0.00    +0.000 A 
ATOM     11  C   UNL     1      -1.982  11.659  18.819  0.00  0.00    +0.000 A 
ATOM     12  C   UNL     1      -2.110  11.260  17.480  0.00  0.00    +0.000 A 
ATOM     13  C   UNL     1      -3.353  11.249  16.831  0.00  0.00    +0.000 A 
BRANCH   8  15
ATOM     14  C   UNL     1      -6.792  12.125  17.831  0.00  0.00    +0.000 C 
ATOM     15  O   UNL     1      -5.762  11.663  16.961  0.00  0.00    +0.000 OA
ENDBRANCH   8  15
ENDBRANCH   1  11
BRANCH   5  16
ATOM     16  C   UNL     1       2.060  14.326  19.522  0.00  0.00    +0.000 C 
ATOM     17  C   UNL     1       3.290  14.221  20.423  0.00  0.00    +0.000 C 
ATOM     18  C   UNL     1       4.113  15.451  20.066  0.00  0.00    +0.000 C 
ATOM     19  C   UNL     1       3.798  15.753  18.602  0.00  0.00    +0.000 C 
ATOM     20  C   UNL     1       2.635  14.843  18.203  0.00  0.00    +0.000 C 
ENDBRANCH   5  16
BRANCH   1  21
ATOM     21  C   UNL     1      -0.785  10.957  20.955  0.00  0.00    +0.000 C 
BRANCH  21  22
ATOM     22  C   UNL     1       0.399  10.092  21.376  0.00  0.00    +0.000 C 
ATOM     23  O   UNL     1       1.381  10.572  21.944  0.00  0.00    +0.000 OA
ATOM     24  N   UNL     1       0.390   8.769  21.000  0.00  0.00    +0.000 N 
ATOM     25  H   UNL     1      -0.484   8.278  20.824  0.00  0.00    +0.000 HD
BRANCH  24  26
ATOM     26  C   UNL     1       1.542   7.963  21.362  0.00  0.00    +0.000 C 
BRANCH  26  27
ATOM     27  C   UNL     1       1.790   6.832  20.412  0.00  0.00    +0.000 A 
ATOM     28  N   UNL     1       1.519   5.561  20.593  0.00  0.00    +0.000 NA
ATOM     29  C   UNL     1       2.132   4.898  19.554  0.00  0.00    +0.000 A 
ATOM     30  C   UNL     1       2.214   3.523  19.300  0.00  0.00    +0.000 A 
ATOM     31  C   UNL     1       2.948   3.102  18.192  0.00  0.00    +0.000 A 
ATOM     32  F   UNL     1       3.046   1.789  17.938  0.00  0.00    +0.000 F 
ATOM     33  C   UNL     1       3.594   4.003  17.348  0.00  0.00    +0.000 A 
ATOM     34  C   UNL     1       3.506   5.383  17.573  0.00  0.00    +0.000 A 
ATOM     35  C   UNL     1       2.765   5.793  18.697  0.00  0.00    +0.000 A 
ATOM     36  N   UNL     1       2.479   7.023  19.228  0.00  0.00    +0.000 N 
ATOM     37  H   UNL     1       2.781   7.912  18.852  0.00  0.00    +0.000 HD
ENDBRANCH  26  27
ENDBRANCH  24  26
ENDBRANCH  21  22
ENDBRANCH   1  21
TORSDOF 7
ENDMDL
MODEL 4
REMARK VINA RESULT:      -7.2      7.806     12.561
REMARK  Name = 
REMARK  8 active torsions:
REMARK  status: ('A' for Active; 'I' for Inactive)
REMARK    1  A    between atoms: C_1  and  O_2
REMARK    2  A    between atoms: O_2  and  C_3
REMARK    3  A    between atoms: C_6  and  C_7
REMARK    4  A    between atoms: C_7  and  C_8
REMARK    5  A    between atoms: C_8  and  C_9
REMARK    6  A    between atoms: N_11  and  C_12
REMARK    7  A    between atoms: C_12  and  C_13
REMARK    8  A    between atoms: N_26  and  C_27
REMARK                            x       y       z     vdW  Elec       q    Type
REMARK                         _______ _______ _______ _____ _____    ______ ____
ROOT
ATOM      1  C   UNL     1       5.993   6.557  17.324  0.00  0.00    +0.000 C 
ATOM      2  C   UNL     1       7.049   5.645  17.979  0.00  0.00    +0.000 C 
ATOM      3  C   UNL     1       7.544   4.749  16.882  0.00  0.00    +0.000 C 
ATOM      4  O   UNL     1       8.399   3.895  17.070  0.00  0.00    +0.000 OA
ATOM      5  N   UNL     1       6.850   5.002  15.734  0.00  0.00    +0.000 N 
ATOM      6  C   UNL     1       5.857   5.927  15.936  0.00  0.00    +0.000 C 
ATOM      7  O   UNL     1       5.002   6.226  15.113  0.00  0.00    +0.000 OA
ENDROOT
BRANCH   1  11
ATOM      8  C   UNL     1       2.337   6.527  19.759  0.00  0.00    +0.000 A 
ATOM      9  C   UNL     1       2.562   7.525  18.816  0.00  0.00    +0.000 A 
ATOM     10  C   UNL     1       3.726   7.519  18.034  0.00  0.00    +0.000 A 
ATOM     11  C   UNL     1       4.711   6.521  18.190  0.00  0.00    +0.000 A 
ATOM     12  C   UNL     1       4.477   5.547  19.172  0.00  0.00    +0.000 A 
ATOM     13  C   UNL     1       3.308   5.548  19.946  0.00  0.00    +0.000 A 
BRANCH   8  15
ATOM     14  C   UNL     1       0.922   7.877  21.081  0.00  0.00    +0.000 C 
ATOM     15  O   UNL     1       1.167   6.616  20.462  0.00  0.00    +0.000 OA
ENDBRANCH   8  15
ENDBRANCH   1  11
BRANCH   5  16
ATOM     16  C   UNL     1       6.972   4.278  14.475  0.00  0.00    +0.000 C 
ATOM     17  C   UNL     1       5.672   3.784  13.839  0.00  0.00    +0.000 C 
ATOM     18  C   UNL     1       6.068   3.449  12.408  0.00  0.00    +0.000 C 
ATOM     19  C   UNL     1       7.217   4.395  12.061  0.00  0.00    +0.000 C 
ATOM     20  C   UNL     1       7.619   5.098  13.358  0.00  0.00    +0.000 C 
ENDBRANCH   5  16
BRANCH   1  21
ATOM     21  C   UNL     1       6.467   8.038  17.140  0.00  0.00    +0.000 C 
BRANCH  21  22
ATOM     22  C   UNL     1       7.730   8.418  17.908  0.00  0.00    +0.000 C 
ATOM     23  O   UNL     1       8.338   7.599  18.598  0.00  0.00    +0.000 OA
ATOM     24  N   UNL     1       8.111   9.739  17.898  0.00  0.00    +0.000 N 
ATOM     25  H   UNL     1       7.848  10.357  17.132  0.00  0.00    +0.000 HD
BRANCH  24  26
ATOM     26  C   UNL     1       9.286  10.102  18.670  0.00  0.00    +0.000 C 
BRANCH  26  27
ATOM     27  C   UNL     1       9.690  11.533  18.488  0.00  0.00    +0.000 A 
ATOM     28  N   UNL     1       9.022  12.604  18.849  0.00  0.00    +0.000 NA
ATOM     29  C   UNL     1       9.681  13.665  18.270  0.00  0.00    +0.000 A 
ATOM     30  C   UNL     1       9.356  15.028  18.280  0.00  0.00    +0.000 A 
ATOM     31  C   UNL     1      10.170  15.902  17.562  0.00  0.00    +0.000 A 
ATOM     32  F   UNL     1       9.870  17.209  17.552  0.00  0.00    +0.000 F 
ATOM     33  C   UNL     1      11.279  15.459  16.844  0.00  0.00    +0.000 A 
ATOM     34  C   UNL     1      11.632  14.103  16.839  0.00  0.00    +0.000 A 
ATOM     35  C   UNL     1      10.800  13.231  17.565  0.00  0.00    +0.000 A 
ATOM     36  N   UNL     1      10.821  11.878  17.772  0.00  0.00    +0.000 N 
ATOM     37  H   UNL     1      11.510  11.236  17.404  0.00  0.00    +0.000 HD
ENDBRANCH  26  27
ENDBRANCH  24  26
ENDBRANCH  21  22
ENDBRANCH   1  21
TORSDOF 7
ENDMDL
MODEL 5
REMARK VINA RESULT:      -7.2      0.801      1.070
REMARK  Name = 
REMARK  8 active torsions:
REMARK  status: ('A' for Active; 'I' for Inactive)
REMARK    1  A    between atoms: C_1  and  O_2
REMARK    2  A    between atoms: O_2  and  C_3
REMARK    3  A    between atoms: C_6  and  C_7
REMARK    4  A    between atoms: C_7  and  C_8
REMARK    5  A    between atoms: C_8  and  C_9
REMARK    6  A    between atoms: N_11  and  C_12
REMARK    7  A    between atoms: C_12  and  C_13
REMARK    8  A    between atoms: N_26  and  C_27
REMARK                            x       y       z     vdW  Elec       q    Type
REMARK                         _______ _______ _______ _____ _____    ______ ____
ROOT
ATOM      1  C   UNL     1       0.174  10.789  19.133  0.00  0.00    +0.000 C 
ATOM      2  C   UNL     1      -0.670  10.877  20.419  0.00  0.00    +0.000 C 
ATOM      3  C   UNL     1      -0.414  12.246  20.977  0.00  0.00    +0.000 C 
ATOM      4  O   UNL     1      -0.938  12.642  22.009  0.00  0.00    +0.000 OA
ATOM      5  N   UNL     1       0.511  12.889  20.206  0.00  0.00    +0.000 N 
ATOM      6  C   UNL     1       0.994  12.078  19.212  0.00  0.00    +0.000 C 
ATOM      7  O   UNL     1       1.930  12.358  18.473  0.00  0.00    +0.000 OA
ENDROOT
BRANCH   1  11
ATOM      8  C   UNL     1       2.519   7.075  19.187  0.00  0.00    +0.000 A 
ATOM      9  C   UNL     1       2.352   7.800  18.011  0.00  0.00    +0.000 A 
ATOM     10  C   UNL     1       1.612   8.991  18.007  0.00  0.00    +0.000 A 
ATOM     11  C   UNL     1       1.000   9.481  19.180  0.00  0.00    +0.000 A 
ATOM     12  C   UNL     1       1.154   8.713  20.344  0.00  0.00    +0.000 A 
ATOM     13  C   UNL     1       1.903   7.527  20.349  0.00  0.00    +0.000 A 
BRANCH   8  15
ATOM     14  C   UNL     1       4.149   5.877  17.969  0.00  0.00    +0.000 C 
ATOM     15  O   UNL     1       3.267   5.933  19.088  0.00  0.00    +0.000 OA
ENDBRANCH   8  15
ENDBRANCH   1  11
BRANCH   5  16
ATOM     16  C   UNL     1       1.093  14.200  20.471  0.00  0.00    +0.000 C 
ATOM     17  C   UNL     1       2.564  14.226  20.888  0.00  0.00    +0.000 C 
ATOM     18  C   UNL     1       2.973  15.680  20.698  0.00  0.00    +0.000 C 
ATOM     19  C   UNL     1       2.103  16.213  19.561  0.00  0.00    +0.000 C 
ATOM     20  C   UNL     1       1.053  15.141  19.266  0.00  0.00    +0.000 C 
ENDBRANCH   5  16
BRANCH   1  21
ATOM     21  C   UNL     1      -0.675  10.834  17.818  0.00  0.00    +0.000 C 
BRANCH  21  22
ATOM     22  C   UNL     1      -2.186  10.766  18.016  0.00  0.00    +0.000 C 
ATOM     23  O   UNL     1      -2.794   9.695  17.997  0.00  0.00    +0.000 OA
ATOM     24  N   UNL     1      -2.873  11.955  18.106  0.00  0.00    +0.000 N 
ATOM     25  H   UNL     1      -2.415  12.804  18.432  0.00  0.00    +0.000 HD
BRANCH  24  26
ATOM     26  C   UNL     1      -4.316  11.884  18.247  0.00  0.00    +0.000 C 
BRANCH  26  27
ATOM     27  C   UNL     1      -4.778  12.070  19.660  0.00  0.00    +0.000 A 
ATOM     28  N   UNL     1      -6.000  11.946  20.124  0.00  0.00    +0.000 NA
ATOM     29  C   UNL     1      -5.959  12.434  21.411  0.00  0.00    +0.000 A 
ATOM     30  C   UNL     1      -6.999  12.594  22.336  0.00  0.00    +0.000 A 
ATOM     31  C   UNL     1      -6.698  13.168  23.570  0.00  0.00    +0.000 A 
ATOM     32  F   UNL     1      -7.682  13.338  24.465  0.00  0.00    +0.000 F 
ATOM     33  C   UNL     1      -5.408  13.580  23.898  0.00  0.00    +0.000 A 
ATOM     34  C   UNL     1      -4.351  13.409  22.995  0.00  0.00    +0.000 A 
ATOM     35  C   UNL     1      -4.670  12.833  21.752  0.00  0.00    +0.000 A 
ATOM     36  N   UNL     1      -3.924  12.531  20.644  0.00  0.00    +0.000 N 
ATOM     37  H   UNL     1      -2.929  12.686  20.543  0.00  0.00    +0.000 HD
ENDBRANCH  26  27
ENDBRANCH  24  26
ENDBRANCH  21  22
ENDBRANCH   1  21
TORSDOF 7
ENDMDL
MODEL 6
REMARK VINA RESULT:      -7.2      1.383      1.922
REMARK  Name = 
REMARK  8 active torsions:
REMARK  status: ('A' for Active; 'I' for Inactive)
REMARK    1  A    between atoms: C_1  and  O_2
REMARK    2  A    between atoms: O_2  and  C_3
REMARK    3  A    between atoms: C_6  and  C_7
REMARK    4  A    between atoms: C_7  and  C_8
REMARK    5  A    between atoms: C_8  and  C_9
REMARK    6  A    between atoms: N_11  and  C_12
REMARK    7  A    between atoms: C_12  and  C_13
REMARK    8  A    between atoms: N_26  and  C_27
REMARK                            x       y       z     vdW  Elec       q    Type
REMARK                         _______ _______ _______ _____ _____    ______ ____
ROOT
ATOM      1  C   UNL     1       0.730  10.395  19.006  0.00  0.00    +0.000 C 
ATOM      2  C   UNL     1       0.057  10.683  20.363  0.00  0.00    +0.000 C 
ATOM      3  C   UNL     1       0.508  12.060  20.752  0.00  0.00    +0.000 C 
ATOM      4  O   UNL     1       0.151  12.597  21.791  0.00  0.00    +0.000 OA
ATOM      5  N   UNL     1       1.392  12.532  19.825  0.00  0.00    +0.000 N 
ATOM      6  C   UNL     1       1.673  11.592  18.868  0.00  0.00    +0.000 C 
ATOM      7  O   UNL     1       2.537  11.705  18.007  0.00  0.00    +0.000 OA
ENDROOT
BRANCH   1  11
ATOM      8  C   UNL     1       2.707   6.485  19.322  0.00  0.00    +0.000 A 
ATOM      9  C   UNL     1       2.128   7.087  20.435  0.00  0.00    +0.000 A 
ATOM     10  C   UNL     1       1.488   8.330  20.321  0.00  0.00    +0.000 A 
ATOM     11  C   UNL     1       1.427   9.016  19.090  0.00  0.00    +0.000 A 
ATOM     12  C   UNL     1       2.049   8.403  17.991  0.00  0.00    +0.000 A 
ATOM     13  C   UNL     1       2.680   7.156  18.104  0.00  0.00    +0.000 A 
BRANCH   8  15
ATOM     14  C   UNL     1       2.560   4.371  20.362  0.00  0.00    +0.000 C 
ATOM     15  O   UNL     1       3.297   5.268  19.535  0.00  0.00    +0.000 OA
ENDBRANCH   8  15
ENDBRANCH   1  11
BRANCH   5  16
ATOM     16  C   UNL     1       2.124  13.792  19.894  0.00  0.00    +0.000 C 
ATOM     17  C   UNL     1       1.287  15.071  19.922  0.00  0.00    +0.000 C 
ATOM     18  C   UNL     1       2.265  16.139  20.391  0.00  0.00    +0.000 C 
ATOM     19  C   UNL     1       3.271  15.419  21.286  0.00  0.00    +0.000 C 
ATOM     20  C   UNL     1       3.002  13.920  21.140  0.00  0.00    +0.000 C 
ENDBRANCH   5  16
BRANCH   1  21
ATOM     21  C   UNL     1      -0.261  10.416  17.794  0.00  0.00    +0.000 C 
BRANCH  21  22
ATOM     22  C   UNL     1      -1.729  10.623  18.157  0.00  0.00    +0.000 C 
ATOM     23  O   UNL     1      -2.504   9.674  18.285  0.00  0.00    +0.000 OA
ATOM     24  N   UNL     1      -2.193  11.916  18.229  0.00  0.00    +0.000 N 
ATOM     25  H   UNL     1      -1.565  12.690  18.438  0.00  0.00    +0.000 HD
BRANCH  24  26
ATOM     26  C   UNL     1      -3.601  12.105  18.528  0.00  0.00    +0.000 C 
BRANCH  26  27
ATOM     27  C   UNL     1      -3.855  12.452  19.963  0.00  0.00    +0.000 A 
ATOM     28  N   UNL     1      -2.999  12.417  20.958  0.00  0.00    +0.000 NA
ATOM     29  C   UNL     1      -3.748  12.595  22.099  0.00  0.00    +0.000 A 
ATOM     30  C   UNL     1      -3.344  12.580  23.441  0.00  0.00    +0.000 A 
ATOM     31  C   UNL     1      -4.322  12.736  24.422  0.00  0.00    +0.000 A 
ATOM     32  F   UNL     1      -3.957  12.714  25.713  0.00  0.00    +0.000 F 
ATOM     33  C   UNL     1      -5.668  12.901  24.105  0.00  0.00    +0.000 A 
ATOM     34  C   UNL     1      -6.089  12.940  22.769  0.00  0.00    +0.000 A 
ATOM     35  C   UNL     1      -5.092  12.778  21.789  0.00  0.00    +0.000 A 
ATOM     36  N   UNL     1      -5.126  12.747  20.420  0.00  0.00    +0.000 N 
ATOM     37  H   UNL     1      -5.954  12.854  19.849  0.00  0.00    +0.000 HD
ENDBRANCH  26  27
ENDBRANCH  24  26
ENDBRANCH  21  22
ENDBRANCH   1  21
TORSDOF 7
ENDMDL
MODEL 7
REMARK VINA RESULT:      -7.1      4.187      8.189
REMARK  Name = 
REMARK  8 active torsions:
REMARK  status: ('A' for Active; 'I' for Inactive)
REMARK    1  A    between atoms: C_1  and  O_2
REMARK    2  A    between atoms: O_2  and  C_3
REMARK    3  A    between atoms: C_6  and  C_7
REMARK    4  A    between atoms: C_7  and  C_8
REMARK    5  A    between atoms: C_8  and  C_9
REMARK    6  A    between atoms: N_11  and  C_12
REMARK    7  A    between atoms: C_12  and  C_13
REMARK    8  A    between atoms: N_26  and  C_27
REMARK                            x       y       z     vdW  Elec       q    Type
REMARK                         _______ _______ _______ _____ _____    ______ ____
ROOT
ATOM      1  C   UNL     1      -0.754  11.603  19.585  0.00  0.00    +0.000 C 
ATOM      2  C   UNL     1       0.317  11.113  18.591  0.00  0.00    +0.000 C 
ATOM      3  C   UNL     1       1.439  12.106  18.685  0.00  0.00    +0.000 C 
ATOM      4  O   UNL     1       2.458  12.008  18.015  0.00  0.00    +0.000 OA
ATOM      5  N   UNL     1       1.092  13.110  19.542  0.00  0.00    +0.000 N 
ATOM      6  C   UNL     1      -0.193  12.967  19.996  0.00  0.00    +0.000 C 
ATOM      7  O   UNL     1      -0.798  13.800  20.660  0.00  0.00    +0.000 OA
ENDROOT
BRANCH   1  11
ATOM      8  C   UNL     1      -4.657  11.736  17.575  0.00  0.00    +0.000 A 
ATOM      9  C   UNL     1      -4.525  12.112  18.909  0.00  0.00    +0.000 A 
ATOM     10  C   UNL     1      -3.272  12.078  19.538  0.00  0.00    +0.000 A 
ATOM     11  C   UNL     1      -2.116  11.647  18.853  0.00  0.00    +0.000 A 
ATOM     12  C   UNL     1      -2.284  11.240  17.520  0.00  0.00    +0.000 A 
ATOM     13  C   UNL     1      -3.535  11.284  16.889  0.00  0.00    +0.000 A 
BRANCH   8  15
ATOM     14  C   UNL     1      -6.968  11.952  18.006  0.00  0.00    +0.000 C 
ATOM     15  O   UNL     1      -5.919  11.816  17.051  0.00  0.00    +0.000 OA
ENDBRANCH   8  15
ENDBRANCH   1  11
BRANCH   5  16
ATOM     16  C   UNL     1       1.873  14.308  19.828  0.00  0.00    +0.000 C 
ATOM     17  C   UNL     1       3.195  14.105  20.569  0.00  0.00    +0.000 C 
ATOM     18  C   UNL     1       3.936  15.418  20.363  0.00  0.00    +0.000 C 
ATOM     19  C   UNL     1       3.459  15.959  19.017  0.00  0.00    +0.000 C 
ATOM     20  C   UNL     1       2.289  15.079  18.575  0.00  0.00    +0.000 C 
ENDBRANCH   5  16
BRANCH   1  21
ATOM     21  C   UNL     1      -0.871  10.719  20.872  0.00  0.00    +0.000 C 
BRANCH  21  22
ATOM     22  C   UNL     1       0.410  10.002  21.288  0.00  0.00    +0.000 C 
ATOM     23  O   UNL     1       1.244  10.539  22.018  0.00  0.00    +0.000 OA
ATOM     24  N   UNL     1       0.663   8.770  20.730  0.00  0.00    +0.000 N 
ATOM     25  H   UNL     1      -0.096   8.178  20.396  0.00  0.00    +0.000 HD
BRANCH  24  26
ATOM     26  C   UNL     1       1.906   8.114  21.093  0.00  0.00    +0.000 C 
BRANCH  26  27
ATOM     27  C   UNL     1       2.045   6.747  20.497  0.00  0.00    +0.000 A 
ATOM     28  N   UNL     1       2.482   6.439  19.298  0.00  0.00    +0.000 NA
ATOM     29  C   UNL     1       2.209   5.099  19.136  0.00  0.00    +0.000 A 
ATOM     30  C   UNL     1       2.409   4.278  18.019  0.00  0.00    +0.000 A 
ATOM     31  C   UNL     1       1.992   2.950  18.097  0.00  0.00    +0.000 A 
ATOM     32  F   UNL     1       2.167   2.150  17.035  0.00  0.00    +0.000 F 
ATOM     33  C   UNL     1       1.389   2.431  19.240  0.00  0.00    +0.000 A 
ATOM     34  C   UNL     1       1.199   3.230  20.375  0.00  0.00    +0.000 A 
ATOM     35  C   UNL     1       1.621   4.569  20.281  0.00  0.00    +0.000 A 
ATOM     36  N   UNL     1       1.586   5.622  21.156  0.00  0.00    +0.000 N 
ATOM     37  H   UNL     1       1.222   5.592  22.099  0.00  0.00    +0.000 HD
ENDBRANCH  26  27
ENDBRANCH  24  26
ENDBRANCH  21  22
ENDBRANCH   1  21
TORSDOF 7
ENDMDL
MODEL 8
REMARK VINA RESULT:      -7.1      1.434      1.908
REMARK  Name = 
REMARK  8 active torsions:
REMARK  status: ('A' for Active; 'I' for Inactive)
REMARK    1  A    between atoms: C_1  and  O_2
REMARK    2  A    between atoms: O_2  and  C_3
REMARK    3  A    between atoms: C_6  and  C_7
REMARK    4  A    between atoms: C_7  and  C_8
REMARK    5  A    between atoms: C_8  and  C_9
REMARK    6  A    between atoms: N_11  and  C_12
REMARK    7  A    between atoms: C_12  and  C_13
REMARK    8  A    between atoms: N_26  and  C_27
REMARK                            x       y       z     vdW  Elec       q    Type
REMARK                         _______ _______ _______ _____ _____    ______ ____
ROOT
ATOM      1  C   UNL     1       0.588  10.396  19.054  0.00  0.00    +0.000 C 
ATOM      2  C   UNL     1      -0.134  10.516  20.411  0.00  0.00    +0.000 C 
ATOM      3  C   UNL     1       0.223  11.875  20.938  0.00  0.00    +0.000 C 
ATOM      4  O   UNL     1      -0.191  12.291  22.012  0.00  0.00    +0.000 OA
ATOM      5  N   UNL     1       1.100  12.482  20.086  0.00  0.00    +0.000 N 
ATOM      6  C   UNL     1       1.460  11.654  19.055  0.00  0.00    +0.000 C 
ATOM      7  O   UNL     1       2.336  11.897  18.235  0.00  0.00    +0.000 OA
ENDROOT
BRANCH   1  11
ATOM      8  C   UNL     1       2.793   6.600  18.911  0.00  0.00    +0.000 A 
ATOM      9  C   UNL     1       2.672   7.402  17.779  0.00  0.00    +0.000 A 
ATOM     10  C   UNL     1       1.977   8.618  17.839  0.00  0.00    +0.000 A 
ATOM     11  C   UNL     1       1.364   9.058  19.031  0.00  0.00    +0.000 A 
ATOM     12  C   UNL     1       1.471   8.214  20.148  0.00  0.00    +0.000 A 
ATOM     13  C   UNL     1       2.175   7.003  20.090  0.00  0.00    +0.000 A 
BRANCH   8  15
ATOM     14  C   UNL     1       4.824   5.455  19.281  0.00  0.00    +0.000 C 
ATOM     15  O   UNL     1       3.500   5.439  18.752  0.00  0.00    +0.000 OA
ENDBRANCH   8  15
ENDBRANCH   1  11
BRANCH   5  16
ATOM     16  C   UNL     1       1.752  13.769  20.293  0.00  0.00    +0.000 C 
ATOM     17  C   UNL     1       3.269  13.747  20.481  0.00  0.00    +0.000 C 
ATOM     18  C   UNL     1       3.687  15.196  20.269  0.00  0.00    +0.000 C 
ATOM     19  C   UNL     1       2.670  15.784  19.293  0.00  0.00    +0.000 C 
ATOM     20  C   UNL     1       1.557  14.747  19.134  0.00  0.00    +0.000 C 
ENDBRANCH   5  16
BRANCH   1  21
ATOM     21  C   UNL     1      -0.373  10.473  17.820  0.00  0.00    +0.000 C 
BRANCH  21  22
ATOM     22  C   UNL     1      -1.850  10.662  18.156  0.00  0.00    +0.000 C 
ATOM     23  O   UNL     1      -2.623   9.707  18.234  0.00  0.00    +0.000 OA
ATOM     24  N   UNL     1      -2.322  11.950  18.259  0.00  0.00    +0.000 N 
ATOM     25  H   UNL     1      -1.702  12.719  18.508  0.00  0.00    +0.000 HD
BRANCH  24  26
ATOM     26  C   UNL     1      -3.737  12.123  18.532  0.00  0.00    +0.000 C 
BRANCH  26  27
ATOM     27  C   UNL     1      -4.024  12.451  19.965  0.00  0.00    +0.000 A 
ATOM     28  N   UNL     1      -3.173  12.476  20.964  0.00  0.00    +0.000 NA
ATOM     29  C   UNL     1      -3.940  12.600  22.101  0.00  0.00    +0.000 A 
ATOM     30  C   UNL     1      -3.544  12.612  23.446  0.00  0.00    +0.000 A 
ATOM     31  C   UNL     1      -4.536  12.698  24.421  0.00  0.00    +0.000 A 
ATOM     32  F   UNL     1      -4.178  12.701  25.714  0.00  0.00    +0.000 F 
ATOM     33  C   UNL     1      -5.889  12.768  24.096  0.00  0.00    +0.000 A 
ATOM     34  C   UNL     1      -6.303  12.778  22.757  0.00  0.00    +0.000 A 
ATOM     35  C   UNL     1      -5.292  12.687  21.783  0.00  0.00    +0.000 A 
ATOM     36  N   UNL     1      -5.315  12.655  20.414  0.00  0.00    +0.000 N 
ATOM     37  H   UNL     1      -6.145  12.704  19.838  0.00  0.00    +0.000 HD
ENDBRANCH  26  27
ENDBRANCH  24  26
ENDBRANCH  21  22
ENDBRANCH   1  21
TORSDOF 7
ENDMDL
MODEL 9
REMARK VINA RESULT:      -7.1      3.811      8.155
REMARK  Name = 
REMARK  8 active torsions:
REMARK  status: ('A' for Active; 'I' for Inactive)
REMARK    1  A    between atoms: C_1  and  O_2
REMARK    2  A    between atoms: O_2  and  C_3
REMARK    3  A    between atoms: C_6  and  C_7
REMARK    4  A    between atoms: C_7  and  C_8
REMARK    5  A    between atoms: C_8  and  C_9
REMARK    6  A    between atoms: N_11  and  C_12
REMARK    7  A    between atoms: C_12  and  C_13
REMARK    8  A    between atoms: N_26  and  C_27
REMARK                            x       y       z     vdW  Elec       q    Type
REMARK                         _______ _______ _______ _____ _____    ______ ____
ROOT
ATOM      1  C   UNL     1      -1.146  11.894  18.944  0.00  0.00    +0.000 C 
ATOM      2  C   UNL     1      -0.704  13.057  18.034  0.00  0.00    +0.000 C 
ATOM      3  C   UNL     1       0.422  13.732  18.760  0.00  0.00    +0.000 C 
ATOM      4  O   UNL     1       1.004  14.706  18.304  0.00  0.00    +0.000 OA
ATOM      5  N   UNL     1       0.605  13.138  19.975  0.00  0.00    +0.000 N 
ATOM      6  C   UNL     1      -0.334  12.168  20.212  0.00  0.00    +0.000 C 
ATOM      7  O   UNL     1      -0.484  11.584  21.278  0.00  0.00    +0.000 OA
ENDROOT
BRANCH   1  11
ATOM      8  C   UNL     1      -5.515  12.074  19.368  0.00  0.00    +0.000 A 
ATOM      9  C   UNL     1      -4.925  11.379  18.316  0.00  0.00    +0.000 A 
ATOM     10  C   UNL     1      -3.529  11.317  18.198  0.00  0.00    +0.000 A 
ATOM     11  C   UNL     1      -2.682  11.968  19.119  0.00  0.00    +0.000 A 
ATOM     12  C   UNL     1      -3.303  12.691  20.149  0.00  0.00    +0.000 A 
ATOM     13  C   UNL     1      -4.698  12.745  20.273  0.00  0.00    +0.000 A 
BRANCH   8  15
ATOM     14  C   UNL     1      -7.460  12.133  20.704  0.00  0.00    +0.000 C 
ATOM     15  O   UNL     1      -6.883  12.066  19.402  0.00  0.00    +0.000 OA
ENDBRANCH   8  15
ENDBRANCH   1  11
BRANCH   5  16
ATOM     16  C   UNL     1       1.538  13.565  21.012  0.00  0.00    +0.000 C 
ATOM     17  C   UNL     1       3.006  13.689  20.604  0.00  0.00    +0.000 C 
ATOM     18  C   UNL     1       3.631  14.508  21.725  0.00  0.00    +0.000 C 
ATOM     19  C   UNL     1       2.517  15.410  22.252  0.00  0.00    +0.000 C 
ATOM     20  C   UNL     1       1.218  14.943  21.593  0.00  0.00    +0.000 C 
ENDBRANCH   5  16
BRANCH   1  21
ATOM     21  C   UNL     1      -0.741  10.481  18.404  0.00  0.00    +0.000 C 
BRANCH  21  22
ATOM     22  C   UNL     1       0.596   9.949  18.913  0.00  0.00    +0.000 C 
ATOM     23  O   UNL     1       1.658  10.232  18.358  0.00  0.00    +0.000 OA
ATOM     24  N   UNL     1       0.571   9.047  19.951  0.00  0.00    +0.000 N 
ATOM     25  H   UNL     1      -0.201   9.029  20.614  0.00  0.00    +0.000 HD
BRANCH  24  26
ATOM     26  C   UNL     1       1.843   8.509  20.399  0.00  0.00    +0.000 C 
BRANCH  26  27
ATOM     27  C   UNL     1       2.035   7.071  20.027  0.00  0.00    +0.000 A 
ATOM     28  N   UNL     1       2.453   6.591  18.879  0.00  0.00    +0.000 NA
ATOM     29  C   UNL     1       2.245   5.232  18.947  0.00  0.00    +0.000 A 
ATOM     30  C   UNL     1       2.456   4.249  17.971  0.00  0.00    +0.000 A 
ATOM     31  C   UNL     1       2.111   2.934  18.278  0.00  0.00    +0.000 A 
ATOM     32  F   UNL     1       2.297   1.980  17.353  0.00  0.00    +0.000 F 
ATOM     33  C   UNL     1       1.569   2.581  19.512  0.00  0.00    +0.000 A 
ATOM     34  C   UNL     1       1.371   3.546  20.508  0.00  0.00    +0.000 A 
ATOM     35  C   UNL     1       1.719   4.870  20.183  0.00  0.00    +0.000 A 
ATOM     36  N   UNL     1       1.655   6.049  20.877  0.00  0.00    +0.000 N 
ATOM     37  H   UNL     1       1.320   6.157  21.825  0.00  0.00    +0.000 HD
ENDBRANCH  26  27
ENDBRANCH  24  26
ENDBRANCH  21  22
ENDBRANCH   1  21
TORSDOF 7
ENDMDL
