MODEL 1
REMARK VINA RESULT:      -7.6      0.000      0.000
REMARK  Name = 
REMARK  6 active torsions:
REMARK  status: ('A' for Active; 'I' for Inactive)
REMARK    1  A    between atoms: C_2  and  O_3
REMARK    2  A    between atoms: C_2  and  C_4
REMARK    3  A    between atoms: C_4  and  N_5
REMARK    4  A    between atoms: N_10  and  C_11
REMARK    5  A    between atoms: C_11  and  C_12
REMARK    6  A    between atoms: C_16  and  N_17
REMARK                            x       y       z     vdW  Elec       q    Type
REMARK                         _______ _______ _______ _____ _____    ______ ____
ROOT
ATOM      1  N   UNL     1       6.072   5.367  16.546  0.00  0.00    +0.000 N 
ATOM      2  C   UNL     1       7.046   6.157  17.128  0.00  0.00    +0.000 A 
ATOM      3  O   UNL     1       7.764   6.940  16.513  0.00  0.00    +0.000 OA
ATOM      4  C   UNL     1       7.233   5.995  18.574  0.00  0.00    +0.000 A 
ATOM      5  C   UNL     1       6.504   5.096  19.230  0.00  0.00    +0.000 A 
ATOM      6  N   UNL     1       5.564   4.314  18.596  0.00  0.00    +0.000 N 
ATOM      7  C   UNL     1       5.309   4.423  17.231  0.00  0.00    +0.000 A 
ATOM      8  O   UNL     1       4.488   3.712  16.653  0.00  0.00    +0.000 OA
ENDROOT
BRANCH   1   9
ATOM      9  C   UNL     1       5.791   5.569  15.123  0.00  0.00    +0.000 C 
BRANCH   9  11
ATOM     10  O   UNL     1       6.455   3.713  13.726  0.00  0.00    +0.000 OA
ATOM     11  C   UNL     1       6.725   4.816  14.184  0.00  0.00    +0.000 C 
BRANCH  11  12
ATOM     12  O   UNL     1       7.876   5.451  13.862  0.00  0.00    +0.000 OA
ATOM     13  H   UNL     1       8.285   5.912  14.615  0.00  0.00    +0.000 HD
ENDBRANCH  11  12
ENDBRANCH   9  11
ENDBRANCH   1   9
BRANCH   6  14
ATOM     14  C   UNL     1       4.813   3.317  19.376  0.00  0.00    +0.000 C 
BRANCH  14  15
ATOM     15  C   UNL     1       3.488   3.870  19.861  0.00  0.00    +0.000 A 
ATOM     16  C   UNL     1       2.426   3.003  20.170  0.00  0.00    +0.000 A 
ATOM     17  C   UNL     1       1.163   3.505  20.492  0.00  0.00    +0.000 A 
ATOM     18  C   UNL     1       0.942   4.881  20.517  0.00  0.00    +0.000 A 
ATOM     19  C   UNL     1       2.004   5.754  20.249  0.00  0.00    +0.000 A 
ATOM     20  C   UNL     1       3.276   5.256  19.931  0.00  0.00    +0.000 A 
BRANCH  19  21
ATOM     21  N   UNL     1       1.773   7.204  20.277  0.00  0.00    +0.000 N 
ATOM     22  O   UNL     1       2.192   7.872  19.321  0.00  0.00    +0.000 OA
ATOM     23  O   UNL     1       1.173   7.674  21.253  0.00  0.00    +0.000 OA
ENDBRANCH  19  21
ENDBRANCH  14  15
ENDBRANCH   6  14
TORSDOF 6
ENDMDL
MODEL 2
REMARK VINA RESULT:      -7.5      2.451      2.947
REMARK  Name = 
REMARK  6 active torsions:
REMARK  status: ('A' for Active; 'I' for Inactive)
REMARK    1  A    between atoms: C_2  and  O_3
REMARK    2  A    between atoms: C_2  and  C_4
REMARK    3  A    between atoms: C_4  and  N_5
REMARK    4  A    between atoms: N_10  and  C_11
REMARK    5  A    between atoms: C_11  and  C_12
REMARK    6  A    between atoms: C_16  and  N_17
REMARK                            x       y       z     vdW  Elec       q    Type
REMARK                         _______ _______ _______ _____ _____    ______ ____
ROOT
ATOM      1  N   UNL     1       6.676   5.315  16.378  0.00  0.00    +0.000 N 
ATOM      2  C   UNL     1       7.402   4.805  17.440  0.00  0.00    +0.000 A 
ATOM      3  O   UNL     1       8.421   4.132  17.323  0.00  0.00    +0.000 OA
ATOM      4  C   UNL     1       6.866   5.074  18.779  0.00  0.00    +0.000 A 
ATOM      5  C   UNL     1       5.725   5.744  18.903  0.00  0.00    +0.000 A 
ATOM      6  N   UNL     1       5.026   6.208  17.810  0.00  0.00    +0.000 N 
ATOM      7  C   UNL     1       5.477   6.016  16.507  0.00  0.00    +0.000 A 
ATOM      8  O   UNL     1       4.848   6.406  15.524  0.00  0.00    +0.000 OA
ENDROOT
BRANCH   1   9
ATOM      9  C   UNL     1       7.229   5.149  15.033  0.00  0.00    +0.000 C 
BRANCH   9  11
ATOM     10  O   UNL     1       6.529   4.078  12.983  0.00  0.00    +0.000 OA
ATOM     11  C   UNL     1       6.559   4.057  14.207  0.00  0.00    +0.000 C 
BRANCH  11  12
ATOM     12  O   UNL     1       6.011   3.039  14.910  0.00  0.00    +0.000 OA
ATOM     13  H   UNL     1       5.107   3.226  15.217  0.00  0.00    +0.000 HD
ENDBRANCH  11  12
ENDBRANCH   9  11
ENDBRANCH   1   9
BRANCH   6  14
ATOM     14  C   UNL     1       3.753   6.916  18.018  0.00  0.00    +0.000 C 
BRANCH  14  15
ATOM     15  C   UNL     1       2.743   6.048  18.741  0.00  0.00    +0.000 A 
ATOM     16  C   UNL     1       2.225   6.444  19.986  0.00  0.00    +0.000 A 
ATOM     17  C   UNL     1       1.396   5.593  20.720  0.00  0.00    +0.000 A 
ATOM     18  C   UNL     1       1.064   4.335  20.219  0.00  0.00    +0.000 A 
ATOM     19  C   UNL     1       1.541   3.947  18.961  0.00  0.00    +0.000 A 
ATOM     20  C   UNL     1       2.371   4.799  18.217  0.00  0.00    +0.000 A 
BRANCH  19  21
ATOM     21  N   UNL     1       1.190   2.623  18.431  0.00  0.00    +0.000 N 
ATOM     22  O   UNL     1       1.959   2.112  17.604  0.00  0.00    +0.000 OA
ATOM     23  O   UNL     1       0.149   2.095  18.843  0.00  0.00    +0.000 OA
ENDBRANCH  19  21
ENDBRANCH  14  15
ENDBRANCH   6  14
TORSDOF 6
ENDMDL
MODEL 3
REMARK VINA RESULT:      -7.5      1.637      2.971
REMARK  Name = 
REMARK  6 active torsions:
REMARK  status: ('A' for Active; 'I' for Inactive)
REMARK    1  A    between atoms: C_2  and  O_3
REMARK    2  A    between atoms: C_2  and  C_4
REMARK    3  A    between atoms: C_4  and  N_5
REMARK    4  A    between atoms: N_10  and  C_11
REMARK    5  A    between atoms: C_11  and  C_12
REMARK    6  A    between atoms: C_16  and  N_17
REMARK                            x       y       z     vdW  Elec       q    Type
REMARK                         _______ _______ _______ _____ _____    ______ ____
ROOT
ATOM      1  N   UNL     1       6.700   4.625  17.285  0.00  0.00    +0.000 N 
ATOM      2  C   UNL     1       6.733   5.152  16.007  0.00  0.00    +0.000 A 
ATOM      3  O   UNL     1       7.687   5.762  15.533  0.00  0.00    +0.000 OA
ATOM      4  C   UNL     1       5.516   4.984  15.206  0.00  0.00    +0.000 A 
ATOM      5  C   UNL     1       4.458   4.384  15.743  0.00  0.00    +0.000 A 
ATOM      6  N   UNL     1       4.468   3.900  17.033  0.00  0.00    +0.000 N 
ATOM      7  C   UNL     1       5.591   3.997  17.851  0.00  0.00    +0.000 A 
ATOM      8  O   UNL     1       5.602   3.588  19.011  0.00  0.00    +0.000 OA
ENDROOT
BRANCH   1   9
ATOM      9  C   UNL     1       7.928   4.688  18.080  0.00  0.00    +0.000 C 
BRANCH   9  11
ATOM     10  O   UNL     1       8.158   7.005  18.724  0.00  0.00    +0.000 OA
ATOM     11  C   UNL     1       7.977   5.844  19.071  0.00  0.00    +0.000 C 
BRANCH  11  12
ATOM     12  O   UNL     1       7.787   5.518  20.370  0.00  0.00    +0.000 OA
ATOM     13  H   UNL     1       8.598   5.214  20.814  0.00  0.00    +0.000 HD
ENDBRANCH  11  12
ENDBRANCH   9  11
ENDBRANCH   1   9
BRANCH   6  14
ATOM     14  C   UNL     1       3.252   3.274  17.576  0.00  0.00    +0.000 C 
BRANCH  14  15
ATOM     15  C   UNL     1       2.696   4.057  18.748  0.00  0.00    +0.000 A 
ATOM     16  C   UNL     1       2.106   3.388  19.834  0.00  0.00    +0.000 A 
ATOM     17  C   UNL     1       1.476   4.102  20.857  0.00  0.00    +0.000 A 
ATOM     18  C   UNL     1       1.432   5.495  20.814  0.00  0.00    +0.000 A 
ATOM     19  C   UNL     1       2.053   6.171  19.756  0.00  0.00    +0.000 A 
ATOM     20  C   UNL     1       2.691   5.461  18.730  0.00  0.00    +0.000 A 
BRANCH  19  21
ATOM     21  N   UNL     1       2.009   7.639  19.712  0.00  0.00    +0.000 N 
ATOM     22  O   UNL     1       1.701   8.236  20.753  0.00  0.00    +0.000 OA
ATOM     23  O   UNL     1       2.283   8.192  18.639  0.00  0.00    +0.000 OA
ENDBRANCH  19  21
ENDBRANCH  14  15
ENDBRANCH   6  14
TORSDOF 6
ENDMDL
MODEL 4
REMARK VINA RESULT:      -7.3      2.473      2.989
REMARK  Name = 
REMARK  6 active torsions:
REMARK  status: ('A' for Active; 'I' for Inactive)
REMARK    1  A    between atoms: C_2  and  O_3
REMARK    2  A    between atoms: C_2  and  C_4
REMARK    3  A    between atoms: C_4  and  N_5
REMARK    4  A    between atoms: N_10  and  C_11
REMARK    5  A    between atoms: C_11  and  C_12
REMARK    6  A    between atoms: C_16  and  N_17
REMARK                            x       y       z     vdW  Elec       q    Type
REMARK                         _______ _______ _______ _____ _____    ______ ____
ROOT
ATOM      1  N   UNL     1       6.678   5.469  16.091  0.00  0.00    +0.000 N 
ATOM      2  C   UNL     1       7.347   4.813  17.108  0.00  0.00    +0.000 A 
ATOM      3  O   UNL     1       8.354   4.130  16.947  0.00  0.00    +0.000 OA
ATOM      4  C   UNL     1       6.765   4.932  18.449  0.00  0.00    +0.000 A 
ATOM      5  C   UNL     1       5.635   5.614  18.612  0.00  0.00    +0.000 A 
ATOM      6  N   UNL     1       4.993   6.228  17.559  0.00  0.00    +0.000 N 
ATOM      7  C   UNL     1       5.492   6.183  16.260  0.00  0.00    +0.000 A 
ATOM      8  O   UNL     1       4.912   6.709  15.310  0.00  0.00    +0.000 OA
ENDROOT
BRANCH   1   9
ATOM      9  C   UNL     1       7.280   5.453  14.757  0.00  0.00    +0.000 C 
BRANCH   9  11
ATOM     10  O   UNL     1       5.974   3.492  14.224  0.00  0.00    +0.000 OA
ATOM     11  C   UNL     1       6.746   4.360  13.838  0.00  0.00    +0.000 C 
BRANCH  11  12
ATOM     12  O   UNL     1       7.162   4.415  12.552  0.00  0.00    +0.000 OA
ATOM     13  H   UNL     1       6.430   4.423  11.911  0.00  0.00    +0.000 HD
ENDBRANCH  11  12
ENDBRANCH   9  11
ENDBRANCH   1   9
BRANCH   6  14
ATOM     14  C   UNL     1       3.729   6.941  17.805  0.00  0.00    +0.000 C 
BRANCH  14  15
ATOM     15  C   UNL     1       2.757   6.096  18.603  0.00  0.00    +0.000 A 
ATOM     16  C   UNL     1       2.278   6.544  19.846  0.00  0.00    +0.000 A 
ATOM     17  C   UNL     1       1.486   5.718  20.647  0.00  0.00    +0.000 A 
ATOM     18  C   UNL     1       1.153   4.435  20.217  0.00  0.00    +0.000 A 
ATOM     19  C   UNL     1       1.591   3.994  18.961  0.00  0.00    +0.000 A 
ATOM     20  C   UNL     1       2.383   4.820  18.150  0.00  0.00    +0.000 A 
BRANCH  19  21
ATOM     21  N   UNL     1       1.239   2.643  18.506  0.00  0.00    +0.000 N 
ATOM     22  O   UNL     1       0.124   2.203  18.822  0.00  0.00    +0.000 OA
ATOM     23  O   UNL     1       2.075   2.025  17.833  0.00  0.00    +0.000 OA
ENDBRANCH  19  21
ENDBRANCH  14  15
ENDBRANCH   6  14
TORSDOF 6
ENDMDL
MODEL 5
REMARK VINA RESULT:      -7.2      1.864      2.530
REMARK  Name = 
REMARK  6 active torsions:
REMARK  status: ('A' for Active; 'I' for Inactive)
REMARK    1  A    between atoms: C_2  and  O_3
REMARK    2  A    between atoms: C_2  and  C_4
REMARK    3  A    between atoms: C_4  and  N_5
REMARK    4  A    between atoms: N_10  and  C_11
REMARK    5  A    between atoms: C_11  and  C_12
REMARK    6  A    between atoms: C_16  and  N_17
REMARK                            x       y       z     vdW  Elec       q    Type
REMARK                         _______ _______ _______ _____ _____    ______ ____
ROOT
ATOM      1  N   UNL     1       5.788   4.156  16.940  0.00  0.00    +0.000 N 
ATOM      2  C   UNL     1       6.918   4.613  17.592  0.00  0.00    +0.000 A 
ATOM      3  O   UNL     1       8.061   4.510  17.155  0.00  0.00    +0.000 OA
ATOM      4  C   UNL     1       6.704   5.222  18.909  0.00  0.00    +0.000 A 
ATOM      5  C   UNL     1       5.475   5.271  19.414  0.00  0.00    +0.000 A 
ATOM      6  N   UNL     1       4.385   4.776  18.733  0.00  0.00    +0.000 N 
ATOM      7  C   UNL     1       4.498   4.205  17.468  0.00  0.00    +0.000 A 
ATOM      8  O   UNL     1       3.533   3.740  16.863  0.00  0.00    +0.000 OA
ENDROOT
BRANCH   1   9
ATOM      9  C   UNL     1       5.949   3.630  15.583  0.00  0.00    +0.000 C 
BRANCH   9  11
ATOM     10  O   UNL     1       6.759   4.448  13.459  0.00  0.00    +0.000 OA
ATOM     11  C   UNL     1       6.199   4.693  14.521  0.00  0.00    +0.000 C 
BRANCH  11  12
ATOM     12  O   UNL     1       5.744   5.934  14.809  0.00  0.00    +0.000 OA
ATOM     13  H   UNL     1       5.006   5.936  15.443  0.00  0.00    +0.000 HD
ENDBRANCH  11  12
ENDBRANCH   9  11
ENDBRANCH   1   9
BRANCH   6  14
ATOM     14  C   UNL     1       3.056   4.835  19.363  0.00  0.00    +0.000 C 
BRANCH  14  15
ATOM     15  C   UNL     1       2.475   6.234  19.313  0.00  0.00    +0.000 A 
ATOM     16  C   UNL     1       2.590   7.010  18.147  0.00  0.00    +0.000 A 
ATOM     17  C   UNL     1       2.174   8.344  18.132  0.00  0.00    +0.000 A 
ATOM     18  C   UNL     1       1.631   8.921  19.279  0.00  0.00    +0.000 A 
ATOM     19  C   UNL     1       1.475   8.144  20.434  0.00  0.00    +0.000 A 
ATOM     20  C   UNL     1       1.886   6.803  20.453  0.00  0.00    +0.000 A 
BRANCH  19  21
ATOM     21  N   UNL     1       0.901   8.751  21.642  0.00  0.00    +0.000 N 
ATOM     22  O   UNL     1      -0.327   8.677  21.794  0.00  0.00    +0.000 OA
ATOM     23  O   UNL     1       1.677   9.298  22.437  0.00  0.00    +0.000 OA
ENDBRANCH  19  21
ENDBRANCH  14  15
ENDBRANCH   6  14
TORSDOF 6
ENDMDL
MODEL 6
REMARK VINA RESULT:      -7.2      3.977      6.686
REMARK  Name = 
REMARK  6 active torsions:
REMARK  status: ('A' for Active; 'I' for Inactive)
REMARK    1  A    between atoms: C_2  and  O_3
REMARK    2  A    between atoms: C_2  and  C_4
REMARK    3  A    between atoms: C_4  and  N_5
REMARK    4  A    between atoms: N_10  and  C_11
REMARK    5  A    between atoms: C_11  and  C_12
REMARK    6  A    between atoms: C_16  and  N_17
REMARK                            x       y       z     vdW  Elec       q    Type
REMARK                         _______ _______ _______ _____ _____    ______ ____
ROOT
ATOM      1  N   UNL     1       0.915   9.648  19.403  0.00  0.00    +0.000 N 
ATOM      2  C   UNL     1       0.609   9.338  20.715  0.00  0.00    +0.000 A 
ATOM      3  O   UNL     1      -0.041  10.061  21.465  0.00  0.00    +0.000 OA
ATOM      4  C   UNL     1       1.146   8.071  21.223  0.00  0.00    +0.000 A 
ATOM      5  C   UNL     1       1.908   7.321  20.433  0.00  0.00    +0.000 A 
ATOM      6  N   UNL     1       2.205   7.690  19.139  0.00  0.00    +0.000 N 
ATOM      7  C   UNL     1       1.716   8.864  18.573  0.00  0.00    +0.000 A 
ATOM      8  O   UNL     1       1.995   9.212  17.426  0.00  0.00    +0.000 OA
ENDROOT
BRANCH   1   9
ATOM      9  C   UNL     1       0.318  10.856  18.831  0.00  0.00    +0.000 C 
BRANCH   9  11
ATOM     10  O   UNL     1      -2.092  11.021  18.800  0.00  0.00    +0.000 OA
ATOM     11  C   UNL     1      -1.070  10.652  18.235  0.00  0.00    +0.000 C 
BRANCH  11  12
ATOM     12  O   UNL     1      -1.110  10.051  17.024  0.00  0.00    +0.000 OA
ATOM     13  H   UNL     1      -1.532  10.597  16.337  0.00  0.00    +0.000 HD
ENDBRANCH  11  12
ENDBRANCH   9  11
ENDBRANCH   1   9
BRANCH   6  14
ATOM     14  C   UNL     1       3.081   6.828  18.329  0.00  0.00    +0.000 C 
BRANCH  14  15
ATOM     15  C   UNL     1       2.752   5.361  18.520  0.00  0.00    +0.000 A 
ATOM     16  C   UNL     1       1.709   4.764  17.791  0.00  0.00    +0.000 A 
ATOM     17  C   UNL     1       1.314   3.450  18.053  0.00  0.00    +0.000 A 
ATOM     18  C   UNL     1       1.958   2.709  19.041  0.00  0.00    +0.000 A 
ATOM     19  C   UNL     1       3.026   3.281  19.745  0.00  0.00    +0.000 A 
ATOM     20  C   UNL     1       3.431   4.598  19.484  0.00  0.00    +0.000 A 
BRANCH  19  21
ATOM     21  N   UNL     1       3.707   2.499  20.786  0.00  0.00    +0.000 N 
ATOM     22  O   UNL     1       4.812   2.011  20.507  0.00  0.00    +0.000 OA
ATOM     23  O   UNL     1       3.139   2.375  21.879  0.00  0.00    +0.000 OA
ENDBRANCH  19  21
ENDBRANCH  14  15
ENDBRANCH   6  14
TORSDOF 6
ENDMDL
MODEL 7
REMARK VINA RESULT:      -7.1      2.545      3.691
REMARK  Name = 
REMARK  6 active torsions:
REMARK  status: ('A' for Active; 'I' for Inactive)
REMARK    1  A    between atoms: C_2  and  O_3
REMARK    2  A    between atoms: C_2  and  C_4
REMARK    3  A    between atoms: C_4  and  N_5
REMARK    4  A    between atoms: N_10  and  C_11
REMARK    5  A    between atoms: C_11  and  C_12
REMARK    6  A    between atoms: C_16  and  N_17
REMARK                            x       y       z     vdW  Elec       q    Type
REMARK                         _______ _______ _______ _____ _____    ______ ____
ROOT
ATOM      1  N   UNL     1       6.714   4.779  17.269  0.00  0.00    +0.000 N 
ATOM      2  C   UNL     1       6.821   5.549  16.125  0.00  0.00    +0.000 A 
ATOM      3  O   UNL     1       7.791   6.248  15.848  0.00  0.00    +0.000 OA
ATOM      4  C   UNL     1       5.663   5.535  15.225  0.00  0.00    +0.000 A 
ATOM      5  C   UNL     1       4.584   4.833  15.558  0.00  0.00    +0.000 A 
ATOM      6  N   UNL     1       4.519   4.103  16.725  0.00  0.00    +0.000 N 
ATOM      7  C   UNL     1       5.582   4.044  17.622  0.00  0.00    +0.000 A 
ATOM      8  O   UNL     1       5.524   3.414  18.677  0.00  0.00    +0.000 OA
ENDROOT
BRANCH   1   9
ATOM      9  C   UNL     1       7.884   4.691  18.144  0.00  0.00    +0.000 C 
BRANCH   9  11
ATOM     10  O   UNL     1       7.607   5.468  20.415  0.00  0.00    +0.000 OA
ATOM     11  C   UNL     1       7.915   5.730  19.259  0.00  0.00    +0.000 C 
BRANCH  11  12
ATOM     12  O   UNL     1       8.327   6.967  18.902  0.00  0.00    +0.000 OA
ATOM     13  H   UNL     1       8.408   7.579  19.655  0.00  0.00    +0.000 HD
ENDBRANCH  11  12
ENDBRANCH   9  11
ENDBRANCH   1   9
BRANCH   6  14
ATOM     14  C   UNL     1       3.282   3.373  17.048  0.00  0.00    +0.000 C 
BRANCH  14  15
ATOM     15  C   UNL     1       2.663   3.868  18.340  0.00  0.00    +0.000 A 
ATOM     16  C   UNL     1       2.259   5.208  18.468  0.00  0.00    +0.000 A 
ATOM     17  C   UNL     1       1.809   5.705  19.694  0.00  0.00    +0.000 A 
ATOM     18  C   UNL     1       1.748   4.870  20.808  0.00  0.00    +0.000 A 
ATOM     19  C   UNL     1       2.109   3.523  20.680  0.00  0.00    +0.000 A 
ATOM     20  C   UNL     1       2.557   3.017  19.452  0.00  0.00    +0.000 A 
BRANCH  19  21
ATOM     21  N   UNL     1       2.042   2.642  21.854  0.00  0.00    +0.000 N 
ATOM     22  O   UNL     1       0.955   2.547  22.440  0.00  0.00    +0.000 OA
ATOM     23  O   UNL     1       3.075   2.045  22.186  0.00  0.00    +0.000 OA
ENDBRANCH  19  21
ENDBRANCH  14  15
ENDBRANCH   6  14
TORSDOF 6
ENDMDL
MODEL 8
REMARK VINA RESULT:      -7.1      2.373      2.843
REMARK  Name = 
REMARK  6 active torsions:
REMARK  status: ('A' for Active; 'I' for Inactive)
REMARK    1  A    between atoms: C_2  and  O_3
REMARK    2  A    between atoms: C_2  and  C_4
REMARK    3  A    between atoms: C_4  and  N_5
REMARK    4  A    between atoms: N_10  and  C_11
REMARK    5  A    between atoms: C_11  and  C_12
REMARK    6  A    between atoms: C_16  and  N_17
REMARK                            x       y       z     vdW  Elec       q    Type
REMARK                         _______ _______ _______ _____ _____    ______ ____
ROOT
ATOM      1  N   UNL     1       6.499   4.544  16.618  0.00  0.00    +0.000 N 
ATOM      2  C   UNL     1       7.426   4.665  17.637  0.00  0.00    +0.000 A 
ATOM      3  O   UNL     1       8.496   4.065  17.676  0.00  0.00    +0.000 OA
ATOM      4  C   UNL     1       7.056   5.549  18.747  0.00  0.00    +0.000 A 
ATOM      5  C   UNL     1       5.868   6.146  18.739  0.00  0.00    +0.000 A 
ATOM      6  N   UNL     1       4.968   5.970  17.711  0.00  0.00    +0.000 N 
ATOM      7  C   UNL     1       5.251   5.167  16.609  0.00  0.00    +0.000 A 
ATOM      8  O   UNL     1       4.444   4.985  15.698  0.00  0.00    +0.000 OA
ENDROOT
BRANCH   1   9
ATOM      9  C   UNL     1       6.871   3.746  15.448  0.00  0.00    +0.000 C 
BRANCH   9  11
ATOM     10  O   UNL     1       6.726   4.300  13.101  0.00  0.00    +0.000 OA
ATOM     11  C   UNL     1       7.189   4.565  14.203  0.00  0.00    +0.000 C 
BRANCH  11  12
ATOM     12  O   UNL     1       8.005   5.628  14.389  0.00  0.00    +0.000 OA
ATOM     13  H   UNL     1       7.831   6.108  15.218  0.00  0.00    +0.000 HD
ENDBRANCH  11  12
ENDBRANCH   9  11
ENDBRANCH   1   9
BRANCH   6  14
ATOM     14  C   UNL     1       3.658   6.636  17.780  0.00  0.00    +0.000 C 
BRANCH  14  15
ATOM     15  C   UNL     1       2.712   5.912  18.717  0.00  0.00    +0.000 A 
ATOM     16  C   UNL     1       2.278   6.526  19.905  0.00  0.00    +0.000 A 
ATOM     17  C   UNL     1       1.512   5.820  20.836  0.00  0.00    +0.000 A 
ATOM     18  C   UNL     1       1.162   4.493  20.593  0.00  0.00    +0.000 A 
ATOM     19  C   UNL     1       1.556   3.885  19.394  0.00  0.00    +0.000 A 
ATOM     20  C   UNL     1       2.320   4.589  18.453  0.00  0.00    +0.000 A 
BRANCH  19  21
ATOM     21  N   UNL     1       1.185   2.487  19.136  0.00  0.00    +0.000 N 
ATOM     22  O   UNL     1       1.887   1.603  19.648  0.00  0.00    +0.000 OA
ATOM     23  O   UNL     1       0.194   2.275  18.425  0.00  0.00    +0.000 OA
ENDBRANCH  19  21
ENDBRANCH  14  15
ENDBRANCH   6  14
TORSDOF 6
ENDMDL
MODEL 9
REMARK VINA RESULT:      -7.0      1.730      2.951
REMARK  Name = 
REMARK  6 active torsions:
REMARK  status: ('A' for Active; 'I' for Inactive)
REMARK    1  A    between atoms: C_2  and  O_3
REMARK    2  A    between atoms: C_2  and  C_4
REMARK    3  A    between atoms: C_4  and  N_5
REMARK    4  A    between atoms: N_10  and  C_11
REMARK    5  A    between atoms: C_11  and  C_12
REMARK    6  A    between atoms: C_16  and  N_17
REMARK                            x       y       z     vdW  Elec       q    Type
REMARK                         _______ _______ _______ _____ _____    ______ ____
ROOT
ATOM      1  N   UNL     1       6.665   4.591  17.202  0.00  0.00    +0.000 N 
ATOM      2  C   UNL     1       6.747   4.978  15.877  0.00  0.00    +0.000 A 
ATOM      3  O   UNL     1       7.751   5.451  15.353  0.00  0.00    +0.000 OA
ATOM      4  C   UNL     1       5.521   4.836  15.084  0.00  0.00    +0.000 A 
ATOM      5  C   UNL     1       4.413   4.389  15.669  0.00  0.00    +0.000 A 
ATOM      6  N   UNL     1       4.379   4.042  17.001  0.00  0.00    +0.000 N 
ATOM      7  C   UNL     1       5.504   4.125  17.817  0.00  0.00    +0.000 A 
ATOM      8  O   UNL     1       5.477   3.839  19.014  0.00  0.00    +0.000 OA
ENDROOT
BRANCH   1   9
ATOM      9  C   UNL     1       7.892   4.629  18.000  0.00  0.00    +0.000 C 
BRANCH   9  11
ATOM     10  O   UNL     1       7.833   5.498  20.254  0.00  0.00    +0.000 OA
ATOM     11  C   UNL     1       7.924   5.729  19.054  0.00  0.00    +0.000 C 
BRANCH  11  12
ATOM     12  O   UNL     1       8.081   6.988  18.588  0.00  0.00    +0.000 OA
ATOM     13  H   UNL     1       7.843   7.084  17.649  0.00  0.00    +0.000 HD
ENDBRANCH  11  12
ENDBRANCH   9  11
ENDBRANCH   1   9
BRANCH   6  14
ATOM     14  C   UNL     1       3.111   3.584  17.592  0.00  0.00    +0.000 C 
BRANCH  14  15
ATOM     15  C   UNL     1       2.628   4.526  18.677  0.00  0.00    +0.000 A 
ATOM     16  C   UNL     1       2.125   4.019  19.887  0.00  0.00    +0.000 A 
ATOM     17  C   UNL     1       1.558   4.871  20.838  0.00  0.00    +0.000 A 
ATOM     18  C   UNL     1       1.491   6.242  20.599  0.00  0.00    +0.000 A 
ATOM     19  C   UNL     1       2.026   6.761  19.413  0.00  0.00    +0.000 A 
ATOM     20  C   UNL     1       2.601   5.912  18.457  0.00  0.00    +0.000 A 
BRANCH  19  21
ATOM     21  N   UNL     1       1.957   8.207  19.161  0.00  0.00    +0.000 N 
ATOM     22  O   UNL     1       2.537   8.643  18.156  0.00  0.00    +0.000 OA
ATOM     23  O   UNL     1       1.324   8.903  19.966  0.00  0.00    +0.000 OA
ENDBRANCH  19  21
ENDBRANCH  14  15
ENDBRANCH   6  14
TORSDOF 6
ENDMDL
