MODEL 1
REMARK VINA RESULT:      -7.9      0.000      0.000
REMARK  Name = 
REMARK  6 active torsions:
REMARK  status: ('A' for Active; 'I' for Inactive)
REMARK    1  A    between atoms: C_1  and  C_2
REMARK    2  A    between atoms: C_5  and  C_6
REMARK    3  A    between atoms: C_12  and  C_14
REMARK    4  A    between atoms: N_23  and  C_24
REMARK    5  A    between atoms: C_24  and  C_25
REMARK    6  A    between atoms: C_25  and  C_26
REMARK                            x       y       z     vdW  Elec       q    Type
REMARK                         _______ _______ _______ _____ _____    ______ ____
ROOT
ATOM      1  C   UNL     1      -0.930  11.732  19.476  0.00  0.00    +0.000 C 
ATOM      2  C   UNL     1      -0.386  10.425  18.896  0.00  0.00    +0.000 C 
ATOM      3  C   UNL     1       1.135  10.457  19.184  0.00  0.00    +0.000 C 
ATOM      4  C   UNL     1       1.951   9.919  17.995  0.00  0.00    +0.000 C 
ATOM      5  C   UNL     1       1.797   8.414  17.812  0.00  0.00    +0.000 C 
ATOM      6  N   UNL     1       2.077   7.673  19.044  0.00  0.00    +0.000 N 
ATOM      7  C   UNL     1       2.936   6.579  19.199  0.00  0.00    +0.000 C 
ATOM      8  O   UNL     1       3.168   6.071  20.296  0.00  0.00    +0.000 OA
ATOM      9  C   UNL     1       1.354   8.138  20.225  0.00  0.00    +0.000 C 
ATOM     10  C   UNL     1       1.534   9.634  20.429  0.00  0.00    +0.000 C 
ATOM     11  C   UNL     1       1.431  11.955  19.406  0.00  0.00    +0.000 C 
ATOM     12  N   UNL     1       0.174  12.661  19.127  0.00  0.00    +0.000 NA
ENDROOT
BRANCH   1  17
ATOM     13  C   UNL     1      -3.299  12.565  23.639  0.00  0.00    +0.000 C 
ATOM     14  C   UNL     1      -2.305  11.951  22.747  0.00  0.00    +0.000 A 
ATOM     15  N   UNL     1      -1.364  11.082  23.035  0.00  0.00    +0.000 NA
ATOM     16  N   UNL     1      -0.687  10.849  21.863  0.00  0.00    +0.000 NA
ATOM     17  C   UNL     1      -1.262  11.589  20.935  0.00  0.00    +0.000 A 
ATOM     18  O   UNL     1      -2.313  12.321  21.427  0.00  0.00    +0.000 OA
ENDBRANCH   1  17
BRANCH   7  19
ATOM     19  C   UNL     1       3.644   5.993  18.044  0.00  0.00    +0.000 A 
ATOM     20  C   UNL     1       4.531   6.695  17.228  0.00  0.00    +0.000 A 
ATOM     21  C   UNL     1       5.198   6.028  16.204  0.00  0.00    +0.000 A 
ATOM     22  C   UNL     1       4.892   4.694  15.980  0.00  0.00    +0.000 A 
ATOM     23  N   UNL     1       3.982   4.003  16.698  0.00  0.00    +0.000 NA
ATOM     24  C   UNL     1       3.374   4.670  17.712  0.00  0.00    +0.000 A 
ENDBRANCH   7  19
BRANCH  12  25
ATOM     25  C   UNL     1       0.078  13.963  19.806  0.00  0.00    +0.000 C 
BRANCH  25  26
ATOM     26  C   UNL     1       1.308  14.859  19.595  0.00  0.00    +0.000 C 
BRANCH  26  27
ATOM     27  C   UNL     1       0.964  16.019  18.692  0.00  0.00    +0.000 A 
ATOM     28  C   UNL     1       1.985  16.745  18.059  0.00  0.00    +0.000 A 
ATOM     29  C   UNL     1       1.678  17.849  17.265  0.00  0.00    +0.000 A 
ATOM     30  C   UNL     1       0.352  18.239  17.100  0.00  0.00    +0.000 A 
ATOM     31  C   UNL     1      -0.670  17.527  17.729  0.00  0.00    +0.000 A 
ATOM     32  C   UNL     1      -0.366  16.423  18.524  0.00  0.00    +0.000 A 
ENDBRANCH  26  27
ENDBRANCH  25  26
ENDBRANCH  12  25
TORSDOF 5
ENDMDL
MODEL 2
REMARK VINA RESULT:      -7.7      0.540      1.222
REMARK  Name = 
REMARK  6 active torsions:
REMARK  status: ('A' for Active; 'I' for Inactive)
REMARK    1  A    between atoms: C_1  and  C_2
REMARK    2  A    between atoms: C_5  and  C_6
REMARK    3  A    between atoms: C_12  and  C_14
REMARK    4  A    between atoms: N_23  and  C_24
REMARK    5  A    between atoms: C_24  and  C_25
REMARK    6  A    between atoms: C_25  and  C_26
REMARK                            x       y       z     vdW  Elec       q    Type
REMARK                         _______ _______ _______ _____ _____    ______ ____
ROOT
ATOM      1  C   UNL     1      -0.788  11.813  19.507  0.00  0.00    +0.000 C 
ATOM      2  C   UNL     1      -0.307  10.468  18.960  0.00  0.00    +0.000 C 
ATOM      3  C   UNL     1       1.225  10.462  19.188  0.00  0.00    +0.000 C 
ATOM      4  C   UNL     1       1.977   9.852  17.992  0.00  0.00    +0.000 C 
ATOM      5  C   UNL     1       1.770   8.347  17.875  0.00  0.00    +0.000 C 
ATOM      6  N   UNL     1       2.075   7.646  19.124  0.00  0.00    +0.000 N 
ATOM      7  C   UNL     1       2.906   6.532  19.291  0.00  0.00    +0.000 C 
ATOM      8  O   UNL     1       3.165   6.060  20.398  0.00  0.00    +0.000 OA
ATOM      9  C   UNL     1       1.414   8.180  20.312  0.00  0.00    +0.000 C 
ATOM     10  C   UNL     1       1.647   9.677  20.449  0.00  0.00    +0.000 C 
ATOM     11  C   UNL     1       1.574  11.958  19.338  0.00  0.00    +0.000 C 
ATOM     12  N   UNL     1       0.329  12.692  19.079  0.00  0.00    +0.000 NA
ENDROOT
BRANCH   1  17
ATOM     13  C   UNL     1      -3.332  12.301  23.621  0.00  0.00    +0.000 C 
ATOM     14  C   UNL     1      -2.184  11.946  22.773  0.00  0.00    +0.000 A 
ATOM     15  N   UNL     1      -1.014  11.469  23.127  0.00  0.00    +0.000 NA
ATOM     16  N   UNL     1      -0.289  11.337  21.968  0.00  0.00    +0.000 NA
ATOM     17  C   UNL     1      -1.066  11.738  20.982  0.00  0.00    +0.000 A 
ATOM     18  O   UNL     1      -2.303  12.139  21.421  0.00  0.00    +0.000 OA
ENDBRANCH   1  17
BRANCH   7  19
ATOM     19  C   UNL     1       3.550   5.879  18.134  0.00  0.00    +0.000 A 
ATOM     20  C   UNL     1       3.275   4.579  17.712  0.00  0.00    +0.000 A 
ATOM     21  C   UNL     1       3.891   4.083  16.566  0.00  0.00    +0.000 A 
ATOM     22  C   UNL     1       4.827   4.880  15.925  0.00  0.00    +0.000 A 
ATOM     23  N   UNL     1       5.177   6.113  16.350  0.00  0.00    +0.000 NA
ATOM     24  C   UNL     1       4.534   6.583  17.449  0.00  0.00    +0.000 A 
ENDBRANCH   7  19
BRANCH  12  25
ATOM     25  C   UNL     1       0.300  14.021  19.708  0.00  0.00    +0.000 C 
BRANCH  25  26
ATOM     26  C   UNL     1       1.496  14.908  19.329  0.00  0.00    +0.000 C 
BRANCH  26  27
ATOM     27  C   UNL     1       1.027  16.134  18.582  0.00  0.00    +0.000 A 
ATOM     28  C   UNL     1      -0.339  16.451  18.537  0.00  0.00    +0.000 A 
ATOM     29  C   UNL     1      -0.785  17.551  17.806  0.00  0.00    +0.000 A 
ATOM     30  C   UNL     1       0.129  18.340  17.111  0.00  0.00    +0.000 A 
ATOM     31  C   UNL     1       1.488  18.030  17.146  0.00  0.00    +0.000 A 
ATOM     32  C   UNL     1       1.937  16.929  17.876  0.00  0.00    +0.000 A 
ENDBRANCH  26  27
ENDBRANCH  25  26
ENDBRANCH  12  25
TORSDOF 5
ENDMDL
MODEL 3
REMARK VINA RESULT:      -7.6      3.029      9.895
REMARK  Name = 
REMARK  6 active torsions:
REMARK  status: ('A' for Active; 'I' for Inactive)
REMARK    1  A    between atoms: C_1  and  C_2
REMARK    2  A    between atoms: C_5  and  C_6
REMARK    3  A    between atoms: C_12  and  C_14
REMARK    4  A    between atoms: N_23  and  C_24
REMARK    5  A    between atoms: C_24  and  C_25
REMARK    6  A    between atoms: C_25  and  C_26
REMARK                            x       y       z     vdW  Elec       q    Type
REMARK                         _______ _______ _______ _____ _____    ______ ____
ROOT
ATOM      1  C   UNL     1       4.809   5.272  18.549  0.00  0.00    +0.000 C 
ATOM      2  C   UNL     1       4.169   6.514  19.175  0.00  0.00    +0.000 C 
ATOM      3  C   UNL     1       2.723   6.546  18.622  0.00  0.00    +0.000 C 
ATOM      4  C   UNL     1       2.281   7.976  18.266  0.00  0.00    +0.000 C 
ATOM      5  C   UNL     1       2.060   8.844  19.499  0.00  0.00    +0.000 C 
ATOM      6  N   UNL     1       1.154   8.219  20.464  0.00  0.00    +0.000 N 
ATOM      7  C   UNL     1       0.027   8.791  21.064  0.00  0.00    +0.000 C 
ATOM      8  O   UNL     1      -0.722   8.156  21.806  0.00  0.00    +0.000 OA
ATOM      9  C   UNL     1       1.496   6.849  20.838  0.00  0.00    +0.000 C 
ATOM     10  C   UNL     1       1.684   5.971  19.610  0.00  0.00    +0.000 C 
ATOM     11  C   UNL     1       2.802   5.674  17.350  0.00  0.00    +0.000 C 
ATOM     12  N   UNL     1       4.218   5.322  17.189  0.00  0.00    +0.000 NA
ENDROOT
BRANCH   1  17
ATOM     13  C   UNL     1       2.347   2.336  21.542  0.00  0.00    +0.000 C 
ATOM     14  C   UNL     1       3.449   2.762  20.667  0.00  0.00    +0.000 A 
ATOM     15  N   UNL     1       4.568   2.136  20.388  0.00  0.00    +0.000 NA
ATOM     16  N   UNL     1       5.271   2.965  19.548  0.00  0.00    +0.000 NA
ATOM     17  C   UNL     1       4.532   4.041  19.367  0.00  0.00    +0.000 A 
ATOM     18  O   UNL     1       3.343   3.981  20.050  0.00  0.00    +0.000 OA
ENDBRANCH   1  17
BRANCH   7  19
ATOM     19  C   UNL     1      -0.346  10.197  20.806  0.00  0.00    +0.000 A 
ATOM     20  C   UNL     1      -0.957  10.644  19.635  0.00  0.00    +0.000 A 
ATOM     21  C   UNL     1      -1.328  11.982  19.522  0.00  0.00    +0.000 A 
ATOM     22  C   UNL     1      -1.000  12.845  20.556  0.00  0.00    +0.000 A 
ATOM     23  N   UNL     1      -0.339  12.463  21.669  0.00  0.00    +0.000 NA
ATOM     24  C   UNL     1      -0.022  11.147  21.767  0.00  0.00    +0.000 A 
ENDBRANCH   7  19
BRANCH  12  25
ATOM     25  C   UNL     1       4.423   4.086  16.418  0.00  0.00    +0.000 C 
BRANCH  25  26
ATOM     26  C   UNL     1       5.901   3.754  16.166  0.00  0.00    +0.000 C 
BRANCH  26  27
ATOM     27  C   UNL     1       6.261   4.019  14.724  0.00  0.00    +0.000 A 
ATOM     28  C   UNL     1       5.612   3.318  13.696  0.00  0.00    +0.000 A 
ATOM     29  C   UNL     1       5.976   3.520  12.365  0.00  0.00    +0.000 A 
ATOM     30  C   UNL     1       6.991   4.420  12.051  0.00  0.00    +0.000 A 
ATOM     31  C   UNL     1       7.646   5.118  13.066  0.00  0.00    +0.000 A 
ATOM     32  C   UNL     1       7.285   4.917  14.398  0.00  0.00    +0.000 A 
ENDBRANCH  26  27
ENDBRANCH  25  26
ENDBRANCH  12  25
TORSDOF 5
ENDMDL
MODEL 4
REMARK VINA RESULT:      -7.6      0.828      1.462
REMARK  Name = 
REMARK  6 active torsions:
REMARK  status: ('A' for Active; 'I' for Inactive)
REMARK    1  A    between atoms: C_1  and  C_2
REMARK    2  A    between atoms: C_5  and  C_6
REMARK    3  A    between atoms: C_12  and  C_14
REMARK    4  A    between atoms: N_23  and  C_24
REMARK    5  A    between atoms: C_24  and  C_25
REMARK    6  A    between atoms: C_25  and  C_26
REMARK                            x       y       z     vdW  Elec       q    Type
REMARK                         _______ _______ _______ _____ _____    ______ ____
ROOT
ATOM      1  C   UNL     1      -0.926  11.524  19.382  0.00  0.00    +0.000 C 
ATOM      2  C   UNL     1      -0.370  10.206  18.838  0.00  0.00    +0.000 C 
ATOM      3  C   UNL     1       1.156  10.273  19.096  0.00  0.00    +0.000 C 
ATOM      4  C   UNL     1       1.960   9.708  17.912  0.00  0.00    +0.000 C 
ATOM      5  C   UNL     1       1.828   8.195  17.785  0.00  0.00    +0.000 C 
ATOM      6  N   UNL     1       2.143   7.502  19.036  0.00  0.00    +0.000 N 
ATOM      7  C   UNL     1       3.023   6.429  19.213  0.00  0.00    +0.000 C 
ATOM      8  O   UNL     1       3.283   5.964  20.323  0.00  0.00    +0.000 OA
ATOM      9  C   UNL     1       1.433   7.996  20.213  0.00  0.00    +0.000 C 
ATOM     10  C   UNL     1       1.590   9.502  20.362  0.00  0.00    +0.000 C 
ATOM     11  C   UNL     1       1.429  11.783  19.260  0.00  0.00    +0.000 C 
ATOM     12  N   UNL     1       0.156  12.458  18.981  0.00  0.00    +0.000 NA
ENDROOT
BRANCH   1  17
ATOM     13  C   UNL     1      -3.164  12.542  23.576  0.00  0.00    +0.000 C 
ATOM     14  C   UNL     1      -2.215  11.870  22.677  0.00  0.00    +0.000 A 
ATOM     15  N   UNL     1      -1.302  10.971  22.963  0.00  0.00    +0.000 NA
ATOM     16  N   UNL     1      -0.662  10.686  21.783  0.00  0.00    +0.000 NA
ATOM     17  C   UNL     1      -1.229  11.426  20.851  0.00  0.00    +0.000 A 
ATOM     18  O   UNL     1      -2.240  12.210  21.349  0.00  0.00    +0.000 OA
ENDBRANCH   1  17
BRANCH   7  19
ATOM     19  C   UNL     1       3.721   5.814  18.066  0.00  0.00    +0.000 A 
ATOM     20  C   UNL     1       3.509   4.508  17.626  0.00  0.00    +0.000 A 
ATOM     21  C   UNL     1       4.172   4.050  16.491  0.00  0.00    +0.000 A 
ATOM     22  C   UNL     1       5.088   4.891  15.880  0.00  0.00    +0.000 A 
ATOM     23  N   UNL     1       5.378   6.132  16.324  0.00  0.00    +0.000 NA
ATOM     24  C   UNL     1       4.691   6.565  17.411  0.00  0.00    +0.000 A 
ENDBRANCH   7  19
BRANCH  12  25
ATOM     25  C   UNL     1       0.050  13.781  19.615  0.00  0.00    +0.000 C 
BRANCH  25  26
ATOM     26  C   UNL     1       1.403  14.368  20.045  0.00  0.00    +0.000 C 
BRANCH  26  27
ATOM     27  C   UNL     1       1.915  15.330  19.000  0.00  0.00    +0.000 A 
ATOM     28  C   UNL     1       1.239  16.536  18.762  0.00  0.00    +0.000 A 
ATOM     29  C   UNL     1       1.676  17.405  17.763  0.00  0.00    +0.000 A 
ATOM     30  C   UNL     1       2.788  17.075  16.992  0.00  0.00    +0.000 A 
ATOM     31  C   UNL     1       3.464  15.876  17.218  0.00  0.00    +0.000 A 
ATOM     32  C   UNL     1       3.028  15.004  18.216  0.00  0.00    +0.000 A 
ENDBRANCH  26  27
ENDBRANCH  25  26
ENDBRANCH  12  25
TORSDOF 5
ENDMDL
MODEL 5
REMARK VINA RESULT:      -7.6      2.591      5.345
REMARK  Name = 
REMARK  6 active torsions:
REMARK  status: ('A' for Active; 'I' for Inactive)
REMARK    1  A    between atoms: C_1  and  C_2
REMARK    2  A    between atoms: C_5  and  C_6
REMARK    3  A    between atoms: C_12  and  C_14
REMARK    4  A    between atoms: N_23  and  C_24
REMARK    5  A    between atoms: C_24  and  C_25
REMARK    6  A    between atoms: C_25  and  C_26
REMARK                            x       y       z     vdW  Elec       q    Type
REMARK                         _______ _______ _______ _____ _____    ______ ____
ROOT
ATOM      1  C   UNL     1       0.439  12.137  21.170  0.00  0.00    +0.000 C 
ATOM      2  C   UNL     1       1.121  10.771  21.266  0.00  0.00    +0.000 C 
ATOM      3  C   UNL     1       0.248   9.821  20.411  0.00  0.00    +0.000 C 
ATOM      4  C   UNL     1       0.085   8.443  21.076  0.00  0.00    +0.000 C 
ATOM      5  C   UNL     1       1.373   7.628  21.056  0.00  0.00    +0.000 C 
ATOM      6  N   UNL     1       1.943   7.520  19.712  0.00  0.00    +0.000 N 
ATOM      7  C   UNL     1       2.348   6.353  19.054  0.00  0.00    +0.000 C 
ATOM      8  O   UNL     1       2.742   6.355  17.888  0.00  0.00    +0.000 OA
ATOM      9  C   UNL     1       2.109   8.787  19.005  0.00  0.00    +0.000 C 
ATOM     10  C   UNL     1       0.816   9.588  18.993  0.00  0.00    +0.000 C 
ATOM     11  C   UNL     1      -1.113  10.547  20.337  0.00  0.00    +0.000 C 
ATOM     12  N   UNL     1      -0.987  11.728  21.200  0.00  0.00    +0.000 NA
ENDROOT
BRANCH   1  17
ATOM     13  C   UNL     1       3.574  14.401  18.223  0.00  0.00    +0.000 C 
ATOM     14  C   UNL     1       2.276  13.878  18.673  0.00  0.00    +0.000 A 
ATOM     15  N   UNL     1       1.101  13.982  18.099  0.00  0.00    +0.000 NA
ATOM     16  N   UNL     1       0.210  13.351  18.931  0.00  0.00    +0.000 NA
ATOM     17  C   UNL     1       0.902  12.898  19.958  0.00  0.00    +0.000 A 
ATOM     18  O   UNL     1       2.238  13.193  19.860  0.00  0.00    +0.000 OA
ENDBRANCH   1  17
BRANCH   7  19
ATOM     19  C   UNL     1       2.291   5.038  19.723  0.00  0.00    +0.000 A 
ATOM     20  C   UNL     1       1.152   4.520  20.339  0.00  0.00    +0.000 A 
ATOM     21  C   UNL     1       1.188   3.239  20.883  0.00  0.00    +0.000 A 
ATOM     22  C   UNL     1       2.390   2.550  20.863  0.00  0.00    +0.000 A 
ATOM     23  N   UNL     1       3.533   3.050  20.347  0.00  0.00    +0.000 NA
ATOM     24  C   UNL     1       3.458   4.287  19.793  0.00  0.00    +0.000 A 
ENDBRANCH   7  19
BRANCH  12  25
ATOM     25  C   UNL     1      -1.914  12.811  20.837  0.00  0.00    +0.000 C 
BRANCH  25  26
ATOM     26  C   UNL     1      -2.208  13.783  21.990  0.00  0.00    +0.000 C 
BRANCH  26  27
ATOM     27  C   UNL     1      -3.474  13.381  22.707  0.00  0.00    +0.000 A 
ATOM     28  C   UNL     1      -4.725  13.720  22.171  0.00  0.00    +0.000 A 
ATOM     29  C   UNL     1      -5.897  13.397  22.855  0.00  0.00    +0.000 A 
ATOM     30  C   UNL     1      -5.828  12.737  24.079  0.00  0.00    +0.000 A 
ATOM     31  C   UNL     1      -4.589  12.400  24.622  0.00  0.00    +0.000 A 
ATOM     32  C   UNL     1      -3.415  12.722  23.942  0.00  0.00    +0.000 A 
ENDBRANCH  26  27
ENDBRANCH  25  26
ENDBRANCH  12  25
TORSDOF 5
ENDMDL
MODEL 6
REMARK VINA RESULT:      -7.5      2.764      5.260
REMARK  Name = 
REMARK  6 active torsions:
REMARK  status: ('A' for Active; 'I' for Inactive)
REMARK    1  A    between atoms: C_1  and  C_2
REMARK    2  A    between atoms: C_5  and  C_6
REMARK    3  A    between atoms: C_12  and  C_14
REMARK    4  A    between atoms: N_23  and  C_24
REMARK    5  A    between atoms: C_24  and  C_25
REMARK    6  A    between atoms: C_25  and  C_26
REMARK                            x       y       z     vdW  Elec       q    Type
REMARK                         _______ _______ _______ _____ _____    ______ ____
ROOT
ATOM      1  C   UNL     1       0.541  12.175  21.065  0.00  0.00    +0.000 C 
ATOM      2  C   UNL     1       1.115  10.767  21.230  0.00  0.00    +0.000 C 
ATOM      3  C   UNL     1       0.250   9.867  20.315  0.00  0.00    +0.000 C 
ATOM      4  C   UNL     1      -0.064   8.514  20.978  0.00  0.00    +0.000 C 
ATOM      5  C   UNL     1       1.160   7.611  21.073  0.00  0.00    +0.000 C 
ATOM      6  N   UNL     1       1.828   7.442  19.781  0.00  0.00    +0.000 N 
ATOM      7  C   UNL     1       2.203   6.240  19.170  0.00  0.00    +0.000 C 
ATOM      8  O   UNL     1       2.689   6.196  18.040  0.00  0.00    +0.000 OA
ATOM      9  C   UNL     1       2.141   8.684  19.078  0.00  0.00    +0.000 C 
ATOM     10  C   UNL     1       0.913   9.572  18.952  0.00  0.00    +0.000 C 
ATOM     11  C   UNL     1      -1.046  10.684  20.123  0.00  0.00    +0.000 C 
ATOM     12  N   UNL     1      -0.908  11.867  20.982  0.00  0.00    +0.000 NA
ENDROOT
BRANCH   1  17
ATOM     13  C   UNL     1       3.939  14.571  18.543  0.00  0.00    +0.000 C 
ATOM     14  C   UNL     1       2.643  13.921  18.790  0.00  0.00    +0.000 A 
ATOM     15  N   UNL     1       1.606  13.819  17.992  0.00  0.00    +0.000 NA
ATOM     16  N   UNL     1       0.641  13.150  18.703  0.00  0.00    +0.000 NA
ATOM     17  C   UNL     1       1.154  12.883  19.888  0.00  0.00    +0.000 A 
ATOM     18  O   UNL     1       2.440  13.342  20.017  0.00  0.00    +0.000 OA
ENDBRANCH   1  17
BRANCH   7  19
ATOM     19  C   UNL     1       1.998   4.943  19.846  0.00  0.00    +0.000 A 
ATOM     20  C   UNL     1       2.485   4.633  21.115  0.00  0.00    +0.000 A 
ATOM     21  C   UNL     1       2.177   3.402  21.687  0.00  0.00    +0.000 A 
ATOM     22  C   UNL     1       1.456   2.488  20.934  0.00  0.00    +0.000 A 
ATOM     23  N   UNL     1       1.036   2.723  19.673  0.00  0.00    +0.000 NA
ATOM     24  C   UNL     1       1.321   3.945  19.154  0.00  0.00    +0.000 A 
ENDBRANCH   7  19
BRANCH  12  25
ATOM     25  C   UNL     1      -1.723  13.006  20.533  0.00  0.00    +0.000 C 
BRANCH  25  26
ATOM     26  C   UNL     1      -2.983  12.595  19.756  0.00  0.00    +0.000 C 
BRANCH  26  27
ATOM     27  C   UNL     1      -4.203  12.699  20.640  0.00  0.00    +0.000 A 
ATOM     28  C   UNL     1      -4.075  13.136  21.967  0.00  0.00    +0.000 A 
ATOM     29  C   UNL     1      -5.190  13.185  22.804  0.00  0.00    +0.000 A 
ATOM     30  C   UNL     1      -6.437  12.795  22.324  0.00  0.00    +0.000 A 
ATOM     31  C   UNL     1      -6.573  12.355  21.007  0.00  0.00    +0.000 A 
ATOM     32  C   UNL     1      -5.460  12.304  20.168  0.00  0.00    +0.000 A 
ENDBRANCH  26  27
ENDBRANCH  25  26
ENDBRANCH  12  25
TORSDOF 5
ENDMDL
MODEL 7
REMARK VINA RESULT:      -7.5      3.072      9.169
REMARK  Name = 
REMARK  6 active torsions:
REMARK  status: ('A' for Active; 'I' for Inactive)
REMARK    1  A    between atoms: C_1  and  C_2
REMARK    2  A    between atoms: C_5  and  C_6
REMARK    3  A    between atoms: C_12  and  C_14
REMARK    4  A    between atoms: N_23  and  C_24
REMARK    5  A    between atoms: C_24  and  C_25
REMARK    6  A    between atoms: C_25  and  C_26
REMARK                            x       y       z     vdW  Elec       q    Type
REMARK                         _______ _______ _______ _____ _____    ______ ____
ROOT
ATOM      1  C   UNL     1      -0.070  10.141  19.397  0.00  0.00    +0.000 C 
ATOM      2  C   UNL     1       0.086  11.441  20.189  0.00  0.00    +0.000 C 
ATOM      3  C   UNL     1       1.057  12.310  19.353  0.00  0.00    +0.000 C 
ATOM      4  C   UNL     1       2.063  13.059  20.244  0.00  0.00    +0.000 C 
ATOM      5  C   UNL     1       1.413  14.176  21.051  0.00  0.00    +0.000 C 
ATOM      6  N   UNL     1       0.644  15.095  20.209  0.00  0.00    +0.000 N 
ATOM      7  C   UNL     1       0.726  16.491  20.182  0.00  0.00    +0.000 C 
ATOM      8  O   UNL     1       0.093  17.176  19.378  0.00  0.00    +0.000 OA
ATOM      9  C   UNL     1      -0.321  14.457  19.317  0.00  0.00    +0.000 C 
ATOM     10  C   UNL     1       0.333  13.364  18.485  0.00  0.00    +0.000 C 
ATOM     11  C   UNL     1       1.787  11.283  18.462  0.00  0.00    +0.000 C 
ATOM     12  N   UNL     1       1.316   9.963  18.898  0.00  0.00    +0.000 NA
ENDROOT
BRANCH   1  17
ATOM     13  C   UNL     1      -4.300  11.572  17.475  0.00  0.00    +0.000 C 
ATOM     14  C   UNL     1      -2.999  10.889  17.528  0.00  0.00    +0.000 A 
ATOM     15  N   UNL     1      -2.435  10.121  16.626  0.00  0.00    +0.000 NA
ATOM     16  N   UNL     1      -1.242   9.708  17.167  0.00  0.00    +0.000 NA
ATOM     17  C   UNL     1      -1.156  10.255  18.363  0.00  0.00    +0.000 A 
ATOM     18  O   UNL     1      -2.245  11.033  18.663  0.00  0.00    +0.000 OA
ENDBRANCH   1  17
BRANCH   7  19
ATOM     19  C   UNL     1       1.615  17.223  21.106  0.00  0.00    +0.000 A 
ATOM     20  C   UNL     1       2.936  17.567  20.817  0.00  0.00    +0.000 A 
ATOM     21  C   UNL     1       3.666  18.318  21.735  0.00  0.00    +0.000 A 
ATOM     22  C   UNL     1       3.075  18.630  22.948  0.00  0.00    +0.000 A 
ATOM     23  N   UNL     1       1.827  18.246  23.295  0.00  0.00    +0.000 NA
ATOM     24  C   UNL     1       1.127  17.546  22.367  0.00  0.00    +0.000 A 
ENDBRANCH   7  19
BRANCH  12  25
ATOM     25  C   UNL     1       1.433   8.933  17.854  0.00  0.00    +0.000 C 
BRANCH  25  26
ATOM     26  C   UNL     1       2.668   8.034  18.010  0.00  0.00    +0.000 C 
BRANCH  26  27
ATOM     27  C   UNL     1       2.285   6.719  18.647  0.00  0.00    +0.000 A 
ATOM     28  C   UNL     1       2.127   6.631  20.038  0.00  0.00    +0.000 A 
ATOM     29  C   UNL     1       1.824   5.409  20.638  0.00  0.00    +0.000 A 
ATOM     30  C   UNL     1       1.681   4.267  19.855  0.00  0.00    +0.000 A 
ATOM     31  C   UNL     1       1.841   4.344  18.471  0.00  0.00    +0.000 A 
ATOM     32  C   UNL     1       2.145   5.564  17.868  0.00  0.00    +0.000 A 
ENDBRANCH  26  27
ENDBRANCH  25  26
ENDBRANCH  12  25
TORSDOF 5
ENDMDL
MODEL 8
REMARK VINA RESULT:      -7.4      2.668      5.206
REMARK  Name = 
REMARK  6 active torsions:
REMARK  status: ('A' for Active; 'I' for Inactive)
REMARK    1  A    between atoms: C_1  and  C_2
REMARK    2  A    between atoms: C_5  and  C_6
REMARK    3  A    between atoms: C_12  and  C_14
REMARK    4  A    between atoms: N_23  and  C_24
REMARK    5  A    between atoms: C_24  and  C_25
REMARK    6  A    between atoms: C_25  and  C_26
REMARK                            x       y       z     vdW  Elec       q    Type
REMARK                         _______ _______ _______ _____ _____    ______ ____
ROOT
ATOM      1  C   UNL     1       0.595  12.153  20.853  0.00  0.00    +0.000 C 
ATOM      2  C   UNL     1       1.113  10.737  21.113  0.00  0.00    +0.000 C 
ATOM      3  C   UNL     1       0.306   9.829  20.153  0.00  0.00    +0.000 C 
ATOM      4  C   UNL     1      -0.102   8.507  20.826  0.00  0.00    +0.000 C 
ATOM      5  C   UNL     1       1.083   7.578  21.058  0.00  0.00    +0.000 C 
ATOM      6  N   UNL     1       1.858   7.349  19.836  0.00  0.00    +0.000 N 
ATOM      7  C   UNL     1       2.251   6.118  19.299  0.00  0.00    +0.000 C 
ATOM      8  O   UNL     1       2.834   6.024  18.219  0.00  0.00    +0.000 OA
ATOM      9  C   UNL     1       2.266   8.558  19.126  0.00  0.00    +0.000 C 
ATOM     10  C   UNL     1       1.079   9.472  18.863  0.00  0.00    +0.000 C 
ATOM     11  C   UNL     1      -0.943  10.672  19.820  0.00  0.00    +0.000 C 
ATOM     12  N   UNL     1      -0.849  11.879  20.651  0.00  0.00    +0.000 NA
ENDROOT
BRANCH   1  17
ATOM     13  C   UNL     1       2.617  15.765  18.302  0.00  0.00    +0.000 C 
ATOM     14  C   UNL     1       2.216  14.384  18.609  0.00  0.00    +0.000 A 
ATOM     15  N   UNL     1       2.382  13.298  17.891  0.00  0.00    +0.000 NA
ATOM     16  N   UNL     1       1.806  12.276  18.604  0.00  0.00    +0.000 NA
ATOM     17  C   UNL     1       1.329  12.805  19.714  0.00  0.00    +0.000 A 
ATOM     18  O   UNL     1       1.559  14.155  19.790  0.00  0.00    +0.000 OA
ENDBRANCH   1  17
BRANCH   7  19
ATOM     19  C   UNL     1       1.951   4.850  19.993  0.00  0.00    +0.000 A 
ATOM     20  C   UNL     1       1.132   3.846  19.477  0.00  0.00    +0.000 A 
ATOM     21  C   UNL     1       0.969   2.659  20.186  0.00  0.00    +0.000 A 
ATOM     22  C   UNL     1       1.571   2.549  21.430  0.00  0.00    +0.000 A 
ATOM     23  N   UNL     1       2.306   3.529  21.997  0.00  0.00    +0.000 NA
ATOM     24  C   UNL     1       2.476   4.661  21.267  0.00  0.00    +0.000 A 
ENDBRANCH   7  19
BRANCH  12  25
ATOM     25  C   UNL     1      -1.589  13.022  20.096  0.00  0.00    +0.000 C 
BRANCH  25  26
ATOM     26  C   UNL     1      -2.559  13.672  21.094  0.00  0.00    +0.000 C 
BRANCH  26  27
ATOM     27  C   UNL     1      -3.940  13.077  20.949  0.00  0.00    +0.000 A 
ATOM     28  C   UNL     1      -4.349  12.542  19.718  0.00  0.00    +0.000 A 
ATOM     29  C   UNL     1      -5.640  12.038  19.562  0.00  0.00    +0.000 A 
ATOM     30  C   UNL     1      -6.532  12.070  20.631  0.00  0.00    +0.000 A 
ATOM     31  C   UNL     1      -6.136  12.605  21.857  0.00  0.00    +0.000 A 
ATOM     32  C   UNL     1      -4.846  13.110  22.016  0.00  0.00    +0.000 A 
ENDBRANCH  26  27
ENDBRANCH  25  26
ENDBRANCH  12  25
TORSDOF 5
ENDMDL
MODEL 9
REMARK VINA RESULT:      -7.4      2.696      5.247
REMARK  Name = 
REMARK  6 active torsions:
REMARK  status: ('A' for Active; 'I' for Inactive)
REMARK    1  A    between atoms: C_1  and  C_2
REMARK    2  A    between atoms: C_5  and  C_6
REMARK    3  A    between atoms: C_12  and  C_14
REMARK    4  A    between atoms: N_23  and  C_24
REMARK    5  A    between atoms: C_24  and  C_25
REMARK    6  A    between atoms: C_25  and  C_26
REMARK                            x       y       z     vdW  Elec       q    Type
REMARK                         _______ _______ _______ _____ _____    ______ ____
ROOT
ATOM      1  C   UNL     1       0.038  12.340  21.398  0.00  0.00    +0.000 C 
ATOM      2  C   UNL     1       0.811  11.020  21.453  0.00  0.00    +0.000 C 
ATOM      3  C   UNL     1       0.013  10.047  20.551  0.00  0.00    +0.000 C 
ATOM      4  C   UNL     1      -0.062   8.636  21.161  0.00  0.00    +0.000 C 
ATOM      5  C   UNL     1       1.278   7.912  21.129  0.00  0.00    +0.000 C 
ATOM      6  N   UNL     1       1.868   7.894  19.788  0.00  0.00    +0.000 N 
ATOM      7  C   UNL     1       2.359   6.783  19.093  0.00  0.00    +0.000 C 
ATOM      8  O   UNL     1       2.764   6.856  17.933  0.00  0.00    +0.000 OA
ATOM      9  C   UNL     1       1.955   9.196  19.132  0.00  0.00    +0.000 C 
ATOM     10  C   UNL     1       0.611   9.907  19.133  0.00  0.00    +0.000 C 
ATOM     11  C   UNL     1      -1.392  10.682  20.487  0.00  0.00    +0.000 C 
ATOM     12  N   UNL     1      -1.357  11.834  21.395  0.00  0.00    +0.000 NA
ENDROOT
BRANCH   1  17
ATOM     13  C   UNL     1       3.065  14.225  18.093  0.00  0.00    +0.000 C 
ATOM     14  C   UNL     1       1.785  13.989  18.778  0.00  0.00    +0.000 A 
ATOM     15  N   UNL     1       0.609  14.518  18.534  0.00  0.00    +0.000 NA
ATOM     16  N   UNL     1      -0.248  13.994  19.470  0.00  0.00    +0.000 NA
ATOM     17  C   UNL     1       0.461  13.176  20.222  0.00  0.00    +0.000 A 
ATOM     18  O   UNL     1       1.776  13.116  19.835  0.00  0.00    +0.000 OA
ENDBRANCH   1  17
BRANCH   7  19
ATOM     19  C   UNL     1       2.384   5.443  19.712  0.00  0.00    +0.000 A 
ATOM     20  C   UNL     1       1.326   4.891  20.434  0.00  0.00    +0.000 A 
ATOM     21  C   UNL     1       1.429   3.591  20.919  0.00  0.00    +0.000 A 
ATOM     22  C   UNL     1       2.623   2.913  20.733  0.00  0.00    +0.000 A 
ATOM     23  N   UNL     1       3.697   3.442  20.109  0.00  0.00    +0.000 NA
ATOM     24  C   UNL     1       3.554   4.699  19.616  0.00  0.00    +0.000 A 
ENDBRANCH   7  19
BRANCH  12  25
ATOM     25  C   UNL     1      -2.351  12.866  21.060  0.00  0.00    +0.000 C 
BRANCH  25  26
ATOM     26  C   UNL     1      -3.624  12.796  21.918  0.00  0.00    +0.000 C 
BRANCH  26  27
ATOM     27  C   UNL     1      -4.842  12.634  21.040  0.00  0.00    +0.000 A 
ATOM     28  C   UNL     1      -6.123  12.618  21.610  0.00  0.00    +0.000 A 
ATOM     29  C   UNL     1      -7.249  12.417  20.812  0.00  0.00    +0.000 A 
ATOM     30  C   UNL     1      -7.102  12.227  19.440  0.00  0.00    +0.000 A 
ATOM     31  C   UNL     1      -5.832  12.237  18.864  0.00  0.00    +0.000 A 
ATOM     32  C   UNL     1      -4.705  12.436  19.661  0.00  0.00    +0.000 A 
ENDBRANCH  26  27
ENDBRANCH  25  26
ENDBRANCH  12  25
TORSDOF 5
ENDMDL
