MODEL 1
REMARK VINA RESULT:      -7.4      0.000      0.000
REMARK  Name = 
REMARK  5 active torsions:
REMARK  status: ('A' for Active; 'I' for Inactive)
REMARK    1  A    between atoms: C_1  and  C_2
REMARK    2  A    between atoms: C_9  and  C_10
REMARK    3  A    between atoms: C_10  and  O_12
REMARK    4  A    between atoms: O_12  and  C_13
REMARK    5  A    between atoms: C_22  and  O_23
REMARK                            x       y       z     vdW  Elec       q    Type
REMARK                         _______ _______ _______ _____ _____    ______ ____
ROOT
ATOM      1  C   UNL     1       8.142   4.474  12.947  0.00  0.00    +0.000 C 
ATOM      2  C   UNL     1       6.716   4.229  13.373  0.00  0.00    +0.000 C 
ATOM      3  C   UNL     1       6.331   4.415  14.649  0.00  0.00    +0.000 C 
ATOM      4  C   UNL     1       4.574   5.009  14.973  0.00  0.00    +0.000 C 
ATOM      5  N   UNL     1       4.370   5.442  16.240  0.00  0.00    +0.000 N 
ATOM      6  C   UNL     1       5.183   4.352  16.548  0.00  0.00    +0.000 C 
ATOM      7  C   UNL     1       6.280   5.782  15.782  0.00  0.00    +0.000 C 
ATOM      8  C   UNL     1       7.376   4.954  16.040  0.00  0.00    +0.000 C 
ATOM      9  C   UNL     1       7.092   5.930  17.395  0.00  0.00    +0.000 C 
ATOM     10  C   UNL     1       5.327   6.212  17.724  0.00  0.00    +0.000 C 
ATOM     11  C   UNL     1       5.080   5.589  19.174  0.00  0.00    +0.000 C 
ATOM     12  C   UNL     1       4.340   4.373  19.003  0.00  0.00    +0.000 A 
ATOM     13  C   UNL     1       4.278   3.939  17.712  0.00  0.00    +0.000 A 
ATOM     14  N   UNL     1       2.990   3.445  17.596  0.00  0.00    +0.000 N 
ATOM     15  C   UNL     1       2.347   3.584  18.809  0.00  0.00    +0.000 A 
ATOM     16  C   UNL     1       1.005   3.518  19.185  0.00  0.00    +0.000 A 
ATOM     17  C   UNL     1       0.763   2.881  20.395  0.00  0.00    +0.000 A 
ATOM     18  C   UNL     1       1.817   2.699  21.284  0.00  0.00    +0.000 A 
ATOM     19  C   UNL     1       3.075   3.274  21.051  0.00  0.00    +0.000 A 
ATOM     20  C   UNL     1       3.364   3.671  19.740  0.00  0.00    +0.000 A 
ATOM     21  H   UNL     1       2.508   3.152  16.749  0.00  0.00    +0.000 HD
ENDROOT
BRANCH   9  22
ATOM     22  C   UNL     1       7.938   5.997  18.620  0.00  0.00    +0.000 C 
ATOM     23  O   UNL     1       8.118   5.011  19.348  0.00  0.00    +0.000 OA
BRANCH  22  24
ATOM     24  O   UNL     1       8.316   7.269  18.932  0.00  0.00    +0.000 OA
ATOM     25  C   UNL     1       8.060   8.165  17.838  0.00  0.00    +0.000 C 
ENDBRANCH  22  24
ENDBRANCH   9  22
BRANCH  18  26
ATOM     26  O   UNL     1       1.586   2.021  22.450  0.00  0.00    +0.000 OA
ATOM     27  H   UNL     1       1.046   2.565  23.049  0.00  0.00    +0.000 HD
ENDBRANCH  18  26
TORSDOF 3
ENDMDL
MODEL 2
REMARK VINA RESULT:      -7.1      3.199      4.314
REMARK  Name = 
REMARK  5 active torsions:
REMARK  status: ('A' for Active; 'I' for Inactive)
REMARK    1  A    between atoms: C_1  and  C_2
REMARK    2  A    between atoms: C_9  and  C_10
REMARK    3  A    between atoms: C_10  and  O_12
REMARK    4  A    between atoms: O_12  and  C_13
REMARK    5  A    between atoms: C_22  and  O_23
REMARK                            x       y       z     vdW  Elec       q    Type
REMARK                         _______ _______ _______ _____ _____    ______ ____
ROOT
ATOM      1  C   UNL     1       6.044   3.633  13.676  0.00  0.00    +0.000 C 
ATOM      2  C   UNL     1       5.585   4.955  14.238  0.00  0.00    +0.000 C 
ATOM      3  C   UNL     1       5.083   5.044  15.484  0.00  0.00    +0.000 C 
ATOM      4  C   UNL     1       5.388   6.625  16.457  0.00  0.00    +0.000 C 
ATOM      5  N   UNL     1       5.106   6.515  17.778  0.00  0.00    +0.000 N 
ATOM      6  C   UNL     1       4.031   5.769  17.299  0.00  0.00    +0.000 C 
ATOM      7  C   UNL     1       5.675   4.719  17.126  0.00  0.00    +0.000 C 
ATOM      8  C   UNL     1       4.857   3.682  16.672  0.00  0.00    +0.000 C 
ATOM      9  C   UNL     1       4.995   3.577  18.357  0.00  0.00    +0.000 C 
ATOM     10  C   UNL     1       5.030   5.196  19.181  0.00  0.00    +0.000 C 
ATOM     11  C   UNL     1       3.747   5.195  20.132  0.00  0.00    +0.000 C 
ATOM     12  C   UNL     1       2.773   6.071  19.550  0.00  0.00    +0.000 A 
ATOM     13  C   UNL     1       3.061   6.446  18.270  0.00  0.00    +0.000 A 
ATOM     14  N   UNL     1       2.667   7.772  18.223  0.00  0.00    +0.000 N 
ATOM     15  C   UNL     1       2.152   8.130  19.452  0.00  0.00    +0.000 A 
ATOM     16  C   UNL     1       1.872   9.363  20.042  0.00  0.00    +0.000 A 
ATOM     17  C   UNL     1       0.700   9.408  20.786  0.00  0.00    +0.000 A 
ATOM     18  C   UNL     1       0.112   8.215  21.192  0.00  0.00    +0.000 A 
ATOM     19  C   UNL     1       0.754   6.982  20.996  0.00  0.00    +0.000 A 
ATOM     20  C   UNL     1       1.772   6.937  20.036  0.00  0.00    +0.000 A 
ATOM     21  H   UNL     1       2.838   8.448  17.482  0.00  0.00    +0.000 HD
ENDROOT
BRANCH   9  22
ATOM     22  C   UNL     1       4.444   2.490  19.215  0.00  0.00    +0.000 C 
ATOM     23  O   UNL     1       4.943   2.205  20.314  0.00  0.00    +0.000 OA
BRANCH  22  24
ATOM     24  O   UNL     1       3.486   1.752  18.585  0.00  0.00    +0.000 OA
ATOM     25  C   UNL     1       2.177   2.290  18.833  0.00  0.00    +0.000 C 
ENDBRANCH  22  24
ENDBRANCH   9  22
BRANCH  18  26
ATOM     26  O   UNL     1      -1.071   8.263  21.876  0.00  0.00    +0.000 OA
ATOM     27  H   UNL     1      -1.816   8.267  21.251  0.00  0.00    +0.000 HD
ENDBRANCH  18  26
TORSDOF 3
ENDMDL
MODEL 3
REMARK VINA RESULT:      -6.7      0.490      1.041
REMARK  Name = 
REMARK  5 active torsions:
REMARK  status: ('A' for Active; 'I' for Inactive)
REMARK    1  A    between atoms: C_1  and  C_2
REMARK    2  A    between atoms: C_9  and  C_10
REMARK    3  A    between atoms: C_10  and  O_12
REMARK    4  A    between atoms: O_12  and  C_13
REMARK    5  A    between atoms: C_22  and  O_23
REMARK                            x       y       z     vdW  Elec       q    Type
REMARK                         _______ _______ _______ _____ _____    ______ ____
ROOT
ATOM      1  C   UNL     1       8.121   4.332  12.742  0.00  0.00    +0.000 C 
ATOM      2  C   UNL     1       6.716   4.011  13.185  0.00  0.00    +0.000 C 
ATOM      3  C   UNL     1       6.310   4.261  14.444  0.00  0.00    +0.000 C 
ATOM      4  C   UNL     1       4.512   4.740  14.722  0.00  0.00    +0.000 C 
ATOM      5  N   UNL     1       4.267   5.250  15.953  0.00  0.00    +0.000 N 
ATOM      6  C   UNL     1       5.160   4.253  16.342  0.00  0.00    +0.000 C 
ATOM      7  C   UNL     1       6.148   5.701  15.471  0.00  0.00    +0.000 C 
ATOM      8  C   UNL     1       7.303   4.983  15.791  0.00  0.00    +0.000 C 
ATOM      9  C   UNL     1       6.937   6.032  17.068  0.00  0.00    +0.000 C 
ATOM     10  C   UNL     1       5.154   6.201  17.376  0.00  0.00    +0.000 C 
ATOM     11  C   UNL     1       4.947   5.671  18.868  0.00  0.00    +0.000 C 
ATOM     12  C   UNL     1       4.304   4.392  18.789  0.00  0.00    +0.000 A 
ATOM     13  C   UNL     1       4.283   3.859  17.534  0.00  0.00    +0.000 A 
ATOM     14  N   UNL     1       3.038   3.260  17.456  0.00  0.00    +0.000 N 
ATOM     15  C   UNL     1       2.379   3.439  18.655  0.00  0.00    +0.000 A 
ATOM     16  C   UNL     1       1.044   3.298  19.036  0.00  0.00    +0.000 A 
ATOM     17  C   UNL     1       0.845   2.736  20.290  0.00  0.00    +0.000 A 
ATOM     18  C   UNL     1       1.904   2.704  21.190  0.00  0.00    +0.000 A 
ATOM     19  C   UNL     1       3.116   3.355  20.914  0.00  0.00    +0.000 A 
ATOM     20  C   UNL     1       3.381   3.673  19.577  0.00  0.00    +0.000 A 
ATOM     21  H   UNL     1       2.584   2.868  16.633  0.00  0.00    +0.000 HD
ENDROOT
BRANCH   9  22
ATOM     22  C   UNL     1       7.769   6.256  18.285  0.00  0.00    +0.000 C 
ATOM     23  O   UNL     1       8.229   7.371  18.569  0.00  0.00    +0.000 OA
BRANCH  22  24
ATOM     24  O   UNL     1       8.107   5.095  18.915  0.00  0.00    +0.000 OA
ATOM     25  C   UNL     1       8.279   5.307  20.325  0.00  0.00    +0.000 C 
ENDBRANCH  22  24
ENDBRANCH   9  22
BRANCH  18  26
ATOM     26  O   UNL     1       1.720   2.099  22.403  0.00  0.00    +0.000 OA
ATOM     27  H   UNL     1       1.522   2.768  23.081  0.00  0.00    +0.000 HD
ENDBRANCH  18  26
TORSDOF 3
ENDMDL
MODEL 4
REMARK VINA RESULT:      -6.7      8.131      9.881
REMARK  Name = 
REMARK  5 active torsions:
REMARK  status: ('A' for Active; 'I' for Inactive)
REMARK    1  A    between atoms: C_1  and  C_2
REMARK    2  A    between atoms: C_9  and  C_10
REMARK    3  A    between atoms: C_10  and  O_12
REMARK    4  A    between atoms: O_12  and  C_13
REMARK    5  A    between atoms: C_22  and  O_23
REMARK                            x       y       z     vdW  Elec       q    Type
REMARK                         _______ _______ _______ _____ _____    ______ ____
ROOT
ATOM      1  C   UNL     1      -0.092  16.970  20.188  0.00  0.00    +0.000 C 
ATOM      2  C   UNL     1       0.383  15.887  19.252  0.00  0.00    +0.000 C 
ATOM      3  C   UNL     1       0.256  14.586  19.573  0.00  0.00    +0.000 C 
ATOM      4  C   UNL     1      -0.040  13.350  18.185  0.00  0.00    +0.000 C 
ATOM      5  N   UNL     1      -0.441  12.131  18.617  0.00  0.00    +0.000 N 
ATOM      6  C   UNL     1       0.497  12.380  19.617  0.00  0.00    +0.000 C 
ATOM      7  C   UNL     1      -1.090  13.484  19.929  0.00  0.00    +0.000 C 
ATOM      8  C   UNL     1      -0.457  13.901  21.103  0.00  0.00    +0.000 C 
ATOM      9  C   UNL     1      -1.380  12.521  21.436  0.00  0.00    +0.000 C 
ATOM     10  C   UNL     1      -1.368  11.301  20.089  0.00  0.00    +0.000 C 
ATOM     11  C   UNL     1      -0.721   9.991  20.733  0.00  0.00    +0.000 C 
ATOM     12  C   UNL     1       0.602   9.852  20.199  0.00  0.00    +0.000 A 
ATOM     13  C   UNL     1       1.047  10.954  19.530  0.00  0.00    +0.000 A 
ATOM     14  N   UNL     1       1.749  10.425  18.461  0.00  0.00    +0.000 N 
ATOM     15  C   UNL     1       1.711   9.048  18.539  0.00  0.00    +0.000 A 
ATOM     16  C   UNL     1       1.997   8.036  17.621  0.00  0.00    +0.000 A 
ATOM     17  C   UNL     1       2.658   6.934  18.146  0.00  0.00    +0.000 A 
ATOM     18  C   UNL     1       2.657   6.739  19.523  0.00  0.00    +0.000 A 
ATOM     19  C   UNL     1       1.883   7.544  20.373  0.00  0.00    +0.000 A 
ATOM     20  C   UNL     1       1.452   8.776  19.869  0.00  0.00    +0.000 A 
ATOM     21  H   UNL     1       2.123  10.919  17.654  0.00  0.00    +0.000 HD
ENDROOT
BRANCH   9  22
ATOM     22  C   UNL     1      -1.594  11.913  22.780  0.00  0.00    +0.000 C 
ATOM     23  O   UNL     1      -0.657  11.456  23.449  0.00  0.00    +0.000 OA
BRANCH  22  24
ATOM     24  O   UNL     1      -2.914  11.755  23.084  0.00  0.00    +0.000 OA
ATOM     25  C   UNL     1      -3.662  12.938  22.761  0.00  0.00    +0.000 C 
ENDBRANCH  22  24
ENDBRANCH   9  22
BRANCH  18  26
ATOM     26  O   UNL     1       3.357   5.684  20.040  0.00  0.00    +0.000 OA
ATOM     27  H   UNL     1       4.132   5.494  19.485  0.00  0.00    +0.000 HD
ENDBRANCH  18  26
TORSDOF 3
ENDMDL
MODEL 5
REMARK VINA RESULT:      -6.7      6.014      7.734
REMARK  Name = 
REMARK  5 active torsions:
REMARK  status: ('A' for Active; 'I' for Inactive)
REMARK    1  A    between atoms: C_1  and  C_2
REMARK    2  A    between atoms: C_9  and  C_10
REMARK    3  A    between atoms: C_10  and  O_12
REMARK    4  A    between atoms: O_12  and  C_13
REMARK    5  A    between atoms: C_22  and  O_23
REMARK                            x       y       z     vdW  Elec       q    Type
REMARK                         _______ _______ _______ _____ _____    ______ ____
ROOT
ATOM      1  C   UNL     1       1.830  14.541  19.410  0.00  0.00    +0.000 C 
ATOM      2  C   UNL     1       2.001  13.267  18.622  0.00  0.00    +0.000 C 
ATOM      3  C   UNL     1       1.703  12.070  19.161  0.00  0.00    +0.000 C 
ATOM      4  C   UNL     1       1.039  10.722  18.029  0.00  0.00    +0.000 C 
ATOM      5  N   UNL     1       0.501   9.670  18.691  0.00  0.00    +0.000 N 
ATOM      6  C   UNL     1       1.583   9.887  19.542  0.00  0.00    +0.000 C 
ATOM      7  C   UNL     1       0.250  11.293  19.821  0.00  0.00    +0.000 C 
ATOM      8  C   UNL     1       1.082  11.753  20.844  0.00  0.00    +0.000 C 
ATOM      9  C   UNL     1      -0.006  10.625  21.486  0.00  0.00    +0.000 C 
ATOM     10  C   UNL     1      -0.361   9.243  20.361  0.00  0.00    +0.000 C 
ATOM     11  C   UNL     1       0.137   7.943  21.144  0.00  0.00    +0.000 C 
ATOM     12  C   UNL     1       1.343   7.492  20.514  0.00  0.00    +0.000 A 
ATOM     13  C   UNL     1       1.877   8.387  19.635  0.00  0.00    +0.000 A 
ATOM     14  N   UNL     1       2.345   7.592  18.604  0.00  0.00    +0.000 N 
ATOM     15  C   UNL     1       2.092   6.270  18.909  0.00  0.00    +0.000 A 
ATOM     16  C   UNL     1       2.092   5.101  18.145  0.00  0.00    +0.000 A 
ATOM     17  C   UNL     1       2.624   3.985  18.776  0.00  0.00    +0.000 A 
ATOM     18  C   UNL     1       2.761   3.994  20.160  0.00  0.00    +0.000 A 
ATOM     19  C   UNL     1       2.240   5.039  20.938  0.00  0.00    +0.000 A 
ATOM     20  C   UNL     1       1.958   6.243  20.283  0.00  0.00    +0.000 A 
ATOM     21  H   UNL     1       2.692   7.888  17.694  0.00  0.00    +0.000 HD
ENDROOT
BRANCH   9  22
ATOM     22  C   UNL     1      -0.149  10.265  22.925  0.00  0.00    +0.000 C 
ATOM     23  O   UNL     1       0.758   9.702  23.554  0.00  0.00    +0.000 OA
BRANCH  22  24
ATOM     24  O   UNL     1      -1.416  10.450  23.393  0.00  0.00    +0.000 OA
ATOM     25  C   UNL     1      -1.951  11.706  22.946  0.00  0.00    +0.000 C 
ENDBRANCH  22  24
ENDBRANCH   9  22
BRANCH  18  26
ATOM     26  O   UNL     1       3.337   2.914  20.772  0.00  0.00    +0.000 OA
ATOM     27  H   UNL     1       3.917   3.212  21.494  0.00  0.00    +0.000 HD
ENDBRANCH  18  26
TORSDOF 3
ENDMDL
MODEL 6
REMARK VINA RESULT:      -6.6      4.286      5.859
REMARK  Name = 
REMARK  5 active torsions:
REMARK  status: ('A' for Active; 'I' for Inactive)
REMARK    1  A    between atoms: C_1  and  C_2
REMARK    2  A    between atoms: C_9  and  C_10
REMARK    3  A    between atoms: C_10  and  O_12
REMARK    4  A    between atoms: O_12  and  C_13
REMARK    5  A    between atoms: C_22  and  O_23
REMARK                            x       y       z     vdW  Elec       q    Type
REMARK                         _______ _______ _______ _____ _____    ______ ____
ROOT
ATOM      1  C   UNL     1       6.006   3.636  14.906  0.00  0.00    +0.000 C 
ATOM      2  C   UNL     1       5.824   5.116  15.129  0.00  0.00    +0.000 C 
ATOM      3  C   UNL     1       4.976   5.579  16.067  0.00  0.00    +0.000 C 
ATOM      4  C   UNL     1       5.409   7.186  16.945  0.00  0.00    +0.000 C 
ATOM      5  N   UNL     1       4.667   7.418  18.054  0.00  0.00    +0.000 N 
ATOM      6  C   UNL     1       3.648   6.898  17.259  0.00  0.00    +0.000 C 
ATOM      7  C   UNL     1       4.827   5.443  17.831  0.00  0.00    +0.000 C 
ATOM      8  C   UNL     1       3.933   4.586  17.184  0.00  0.00    +0.000 C 
ATOM      9  C   UNL     1       3.438   4.786  18.791  0.00  0.00    +0.000 C 
ATOM     10  C   UNL     1       3.695   6.470  19.422  0.00  0.00    +0.000 C 
ATOM     11  C   UNL     1       2.232   6.993  19.794  0.00  0.00    +0.000 C 
ATOM     12  C   UNL     1       1.852   7.959  18.805  0.00  0.00    +0.000 A 
ATOM     13  C   UNL     1       2.669   7.984  17.713  0.00  0.00    +0.000 A 
ATOM     14  N   UNL     1       2.757   9.330  17.403  0.00  0.00    +0.000 N 
ATOM     15  C   UNL     1       1.989  10.046  18.298  0.00  0.00    +0.000 A 
ATOM     16  C   UNL     1       1.928  11.402  18.625  0.00  0.00    +0.000 A 
ATOM     17  C   UNL     1       0.650  11.897  18.845  0.00  0.00    +0.000 A 
ATOM     18  C   UNL     1      -0.388  11.004  19.089  0.00  0.00    +0.000 A 
ATOM     19  C   UNL     1      -0.144   9.633  19.264  0.00  0.00    +0.000 A 
ATOM     20  C   UNL     1       1.073   9.134  18.786  0.00  0.00    +0.000 A 
ATOM     21  H   UNL     1       3.379   9.777  16.733  0.00  0.00    +0.000 HD
ENDROOT
BRANCH   9  22
ATOM     22  C   UNL     1       2.310   4.073  19.455  0.00  0.00    +0.000 C 
ATOM     23  O   UNL     1       2.403   3.627  20.607  0.00  0.00    +0.000 OA
BRANCH  22  24
ATOM     24  O   UNL     1       1.275   3.815  18.606  0.00  0.00    +0.000 OA
ATOM     25  C   UNL     1       0.803   2.467  18.765  0.00  0.00    +0.000 C 
ENDBRANCH  22  24
ENDBRANCH   9  22
BRANCH  18  26
ATOM     26  O   UNL     1      -1.655  11.493  19.249  0.00  0.00    +0.000 OA
ATOM     27  H   UNL     1      -1.755  12.326  18.757  0.00  0.00    +0.000 HD
ENDBRANCH  18  26
TORSDOF 3
ENDMDL
MODEL 7
REMARK VINA RESULT:      -6.5      2.200      3.925
REMARK  Name = 
REMARK  5 active torsions:
REMARK  status: ('A' for Active; 'I' for Inactive)
REMARK    1  A    between atoms: C_1  and  C_2
REMARK    2  A    between atoms: C_9  and  C_10
REMARK    3  A    between atoms: C_10  and  O_12
REMARK    4  A    between atoms: O_12  and  C_13
REMARK    5  A    between atoms: C_22  and  O_23
REMARK                            x       y       z     vdW  Elec       q    Type
REMARK                         _______ _______ _______ _____ _____    ______ ____
ROOT
ATOM      1  C   UNL     1       9.013   9.395  17.407  0.00  0.00    +0.000 C 
ATOM      2  C   UNL     1       8.314   8.621  18.496  0.00  0.00    +0.000 C 
ATOM      3  C   UNL     1       7.503   7.587  18.203  0.00  0.00    +0.000 C 
ATOM      4  C   UNL     1       7.412   6.153  19.418  0.00  0.00    +0.000 C 
ATOM      5  N   UNL     1       6.812   5.048  18.914  0.00  0.00    +0.000 N 
ATOM      6  C   UNL     1       5.963   5.995  18.342  0.00  0.00    +0.000 C 
ATOM      7  C   UNL     1       7.680   6.013  17.400  0.00  0.00    +0.000 C 
ATOM      8  C   UNL     1       7.096   6.951  16.545  0.00  0.00    +0.000 C 
ATOM      9  C   UNL     1       6.806   5.397  15.937  0.00  0.00    +0.000 C 
ATOM     10  C   UNL     1       6.490   4.162  17.233  0.00  0.00    +0.000 C 
ATOM     11  C   UNL     1       5.011   3.636  16.940  0.00  0.00    +0.000 C 
ATOM     12  C   UNL     1       4.149   4.180  17.947  0.00  0.00    +0.000 A 
ATOM     13  C   UNL     1       4.722   5.169  18.692  0.00  0.00    +0.000 A 
ATOM     14  N   UNL     1       4.242   4.936  19.968  0.00  0.00    +0.000 N 
ATOM     15  C   UNL     1       3.400   3.843  19.937  0.00  0.00    +0.000 A 
ATOM     16  C   UNL     1       2.874   3.019  20.933  0.00  0.00    +0.000 A 
ATOM     17  C   UNL     1       1.552   2.640  20.748  0.00  0.00    +0.000 A 
ATOM     18  C   UNL     1       0.983   2.772  19.486  0.00  0.00    +0.000 A 
ATOM     19  C   UNL     1       1.755   3.135  18.372  0.00  0.00    +0.000 A 
ATOM     20  C   UNL     1       2.986   3.754  18.622  0.00  0.00    +0.000 A 
ATOM     21  H   UNL     1       4.540   5.374  20.837  0.00  0.00    +0.000 HD
ENDROOT
BRANCH   9  22
ATOM     22  C   UNL     1       6.148   5.072  14.640  0.00  0.00    +0.000 C 
ATOM     23  O   UNL     1       5.051   5.554  14.322  0.00  0.00    +0.000 OA
BRANCH  22  24
ATOM     24  O   UNL     1       6.781   4.073  13.962  0.00  0.00    +0.000 OA
ATOM     25  C   UNL     1       5.988   3.621  12.852  0.00  0.00    +0.000 C 
ENDBRANCH  22  24
ENDBRANCH   9  22
BRANCH  18  26
ATOM     26  O   UNL     1      -0.336   2.450  19.320  0.00  0.00    +0.000 OA
ATOM     27  H   UNL     1      -0.469   1.500  19.479  0.00  0.00    +0.000 HD
ENDBRANCH  18  26
TORSDOF 3
ENDMDL
MODEL 8
REMARK VINA RESULT:      -6.3      4.193      5.747
REMARK  Name = 
REMARK  5 active torsions:
REMARK  status: ('A' for Active; 'I' for Inactive)
REMARK    1  A    between atoms: C_1  and  C_2
REMARK    2  A    between atoms: C_9  and  C_10
REMARK    3  A    between atoms: C_10  and  O_12
REMARK    4  A    between atoms: O_12  and  C_13
REMARK    5  A    between atoms: C_22  and  O_23
REMARK                            x       y       z     vdW  Elec       q    Type
REMARK                         _______ _______ _______ _____ _____    ______ ____
ROOT
ATOM      1  C   UNL     1       5.036   1.254  20.224  0.00  0.00    +0.000 C 
ATOM      2  C   UNL     1       3.867   2.032  20.775  0.00  0.00    +0.000 C 
ATOM      3  C   UNL     1       3.563   3.255  20.304  0.00  0.00    +0.000 C 
ATOM      4  C   UNL     1       1.754   3.773  20.268  0.00  0.00    +0.000 C 
ATOM      5  N   UNL     1       1.517   4.879  19.523  0.00  0.00    +0.000 N 
ATOM      6  C   UNL     1       2.717   5.297  20.096  0.00  0.00    +0.000 C 
ATOM      7  C   UNL     1       3.089   3.939  18.735  0.00  0.00    +0.000 C 
ATOM      8  C   UNL     1       4.441   4.175  18.999  0.00  0.00    +0.000 C 
ATOM      9  C   UNL     1       3.927   5.227  17.776  0.00  0.00    +0.000 C 
ATOM     10  C   UNL     1       2.233   5.840  18.013  0.00  0.00    +0.000 C 
ATOM     11  C   UNL     1       2.388   7.424  18.145  0.00  0.00    +0.000 C 
ATOM     12  C   UNL     1       2.172   7.769  19.519  0.00  0.00    +0.000 A 
ATOM     13  C   UNL     1       2.161   6.698  20.364  0.00  0.00    +0.000 A 
ATOM     14  N   UNL     1       1.166   7.010  21.273  0.00  0.00    +0.000 N 
ATOM     15  C   UNL     1       0.638   8.244  20.952  0.00  0.00    +0.000 A 
ATOM     16  C   UNL     1      -0.529   8.907  21.336  0.00  0.00    +0.000 A 
ATOM     17  C   UNL     1      -0.386  10.270  21.560  0.00  0.00    +0.000 A 
ATOM     18  C   UNL     1       0.734  10.922  21.056  0.00  0.00    +0.000 A 
ATOM     19  C   UNL     1       1.639  10.268  20.206  0.00  0.00    +0.000 A 
ATOM     20  C   UNL     1       1.623   8.868  20.212  0.00  0.00    +0.000 A 
ATOM     21  H   UNL     1       0.758   6.407  21.984  0.00  0.00    +0.000 HD
ENDROOT
BRANCH   9  22
ATOM     22  C   UNL     1       4.792   6.168  17.009  0.00  0.00    +0.000 C 
ATOM     23  O   UNL     1       4.786   6.204  15.770  0.00  0.00    +0.000 OA
BRANCH  22  24
ATOM     24  O   UNL     1       5.693   6.821  17.798  0.00  0.00    +0.000 OA
ATOM     25  C   UNL     1       7.037   6.420  17.484  0.00  0.00    +0.000 C 
ENDBRANCH  22  24
ENDBRANCH   9  22
BRANCH  18  26
ATOM     26  O   UNL     1       0.899  12.253  21.327  0.00  0.00    +0.000 OA
ATOM     27  H   UNL     1       1.802  12.530  21.095  0.00  0.00    +0.000 HD
ENDBRANCH  18  26
TORSDOF 3
ENDMDL
MODEL 9
REMARK VINA RESULT:      -6.3      5.575      7.253
REMARK  Name = 
REMARK  5 active torsions:
REMARK  status: ('A' for Active; 'I' for Inactive)
REMARK    1  A    between atoms: C_1  and  C_2
REMARK    2  A    between atoms: C_9  and  C_10
REMARK    3  A    between atoms: C_10  and  O_12
REMARK    4  A    between atoms: O_12  and  C_13
REMARK    5  A    between atoms: C_22  and  O_23
REMARK                            x       y       z     vdW  Elec       q    Type
REMARK                         _______ _______ _______ _____ _____    ______ ____
ROOT
ATOM      1  C   UNL     1       1.241  14.150  19.040  0.00  0.00    +0.000 C 
ATOM      2  C   UNL     1       1.335  12.897  18.206  0.00  0.00    +0.000 C 
ATOM      3  C   UNL     1       1.403  11.682  18.782  0.00  0.00    +0.000 C 
ATOM      4  C   UNL     1       0.615  10.226  17.887  0.00  0.00    +0.000 C 
ATOM      5  N   UNL     1       0.476   9.122  18.660  0.00  0.00    +0.000 N 
ATOM      6  C   UNL     1       1.730   9.514  19.125  0.00  0.00    +0.000 C 
ATOM      7  C   UNL     1       0.366  10.716  19.852  0.00  0.00    +0.000 C 
ATOM      8  C   UNL     1       1.406  11.316  20.567  0.00  0.00    +0.000 C 
ATOM      9  C   UNL     1       0.757  10.056  21.494  0.00  0.00    +0.000 C 
ATOM     10  C   UNL     1       0.267   8.611  20.507  0.00  0.00    +0.000 C 
ATOM     11  C   UNL     1       1.173   7.417  21.056  0.00  0.00    +0.000 C 
ATOM     12  C   UNL     1       2.166   7.132  20.062  0.00  0.00    +0.000 A 
ATOM     13  C   UNL     1       2.254   8.076  19.081  0.00  0.00    +0.000 A 
ATOM     14  N   UNL     1       2.478   7.334  17.935  0.00  0.00    +0.000 N 
ATOM     15  C   UNL     1       2.531   5.997  18.271  0.00  0.00    +0.000 A 
ATOM     16  C   UNL     1       2.457   4.824  17.517  0.00  0.00    +0.000 A 
ATOM     17  C   UNL     1       3.319   3.812  17.917  0.00  0.00    +0.000 A 
ATOM     18  C   UNL     1       3.890   3.872  19.184  0.00  0.00    +0.000 A 
ATOM     19  C   UNL     1       3.499   4.847  20.114  0.00  0.00    +0.000 A 
ATOM     20  C   UNL     1       2.850   5.982  19.615  0.00  0.00    +0.000 A 
ATOM     21  H   UNL     1       2.469   7.658  16.970  0.00  0.00    +0.000 HD
ENDROOT
BRANCH   9  22
ATOM     22  C   UNL     1       1.137   9.712  22.893  0.00  0.00    +0.000 C 
ATOM     23  O   UNL     1       2.272   9.308  23.185  0.00  0.00    +0.000 OA
BRANCH  22  24
ATOM     24  O   UNL     1       0.072   9.712  23.745  0.00  0.00    +0.000 OA
ATOM     25  C   UNL     1      -1.011  10.492  23.214  0.00  0.00    +0.000 C 
ENDBRANCH  22  24
ENDBRANCH   9  22
BRANCH  18  26
ATOM     26  O   UNL     1       4.782   2.902  19.552  0.00  0.00    +0.000 OA
ATOM     27  H   UNL     1       5.581   2.960  19.001  0.00  0.00    +0.000 HD
ENDBRANCH  18  26
TORSDOF 3
ENDMDL
