MODEL 1
REMARK VINA RESULT:      -7.5      0.000      0.000
REMARK  Name = 
REMARK  10 active torsions:
REMARK  status: ('A' for Active; 'I' for Inactive)
REMARK    1  A    between atoms: C_1  and  C_2
REMARK    2  A    between atoms: C_2  and  C_3
REMARK    3  A    between atoms: C_2  and  C_4
REMARK    4  A    between atoms: C_4  and  C_5
REMARK    5  A    between atoms: C_5  and  N_6
REMARK    6  A    between atoms: C_7  and  C_9
REMARK    7  A    between atoms: C_9  and  S_10
REMARK    8  A    between atoms: S_10  and  C_11
REMARK    9  A    between atoms: N_20  and  C_21
REMARK   10  A    between atoms: C_21  and  C_22
REMARK                            x       y       z     vdW  Elec       q    Type
REMARK                         _______ _______ _______ _____ _____    ______ ____
ROOT
ATOM      1  C   UNL     1       2.697   7.439  18.073  0.00  0.00    +0.000 A 
ATOM      2  N   UNL     1       2.288   8.562  17.559  0.00  0.00    +0.000 NA
ATOM      3  C   UNL     1       1.621   9.413  18.440  0.00  0.00    +0.000 A 
ATOM      4  C   UNL     1       1.223  10.732  18.128  0.00  0.00    +0.000 A 
ATOM      5  C   UNL     1       0.612  11.335  19.212  0.00  0.00    +0.000 A 
ATOM      6  S   UNL     1       0.514  10.281  20.567  0.00  0.00    +0.000 S 
ATOM      7  C   UNL     1       1.322   9.054  19.720  0.00  0.00    +0.000 A 
ATOM      8  C   UNL     1       1.706   7.797  20.278  0.00  0.00    +0.000 A 
ATOM      9  O   UNL     1       1.408   7.431  21.415  0.00  0.00    +0.000 OA
ATOM     10  N   UNL     1       2.487   7.027  19.400  0.00  0.00    +0.000 N 
ENDROOT
BRANCH   1  11
ATOM     11  S   UNL     1       3.592   6.350  16.991  0.00  0.00    +0.000 S 
BRANCH  11  12
ATOM     12  C   UNL     1       5.320   6.890  17.281  0.00  0.00    +0.000 C 
BRANCH  12  14
ATOM     13  N   UNL     1       6.019   5.693  15.223  0.00  0.00    +0.000 N 
ATOM     14  C   UNL     1       6.373   6.116  16.485  0.00  0.00    +0.000 C 
ATOM     15  O   UNL     1       7.457   5.822  16.994  0.00  0.00    +0.000 OA
ATOM     16  H   UNL     1       5.138   6.022  14.847  0.00  0.00    +0.000 HD
BRANCH  13  17
ATOM     17  C   UNL     1       6.917   4.958  14.346  0.00  0.00    +0.000 C 
BRANCH  17  18
ATOM     18  C   UNL     1       6.302   3.680  13.762  0.00  0.00    +0.000 C 
BRANCH  18  20
ATOM     19  C   UNL     1       7.084   2.635  11.565  0.00  0.00    +0.000 C 
ATOM     20  C   UNL     1       6.160   3.658  12.226  0.00  0.00    +0.000 C 
ATOM     21  C   UNL     1       4.709   3.363  11.835  0.00  0.00    +0.000 C 
ENDBRANCH  18  20
ENDBRANCH  17  18
ENDBRANCH  13  17
ENDBRANCH  12  14
ENDBRANCH  11  12
ENDBRANCH   1  11
BRANCH  10  22
ATOM     22  C   UNL     1       3.118   5.863  20.030  0.00  0.00    +0.000 C 
BRANCH  22  23
ATOM     23  C   UNL     1       2.514   4.506  19.723  0.00  0.00    +0.000 A 
ATOM     24  C   UNL     1       1.155   4.219  19.938  0.00  0.00    +0.000 A 
ATOM     25  C   UNL     1       0.600   3.011  19.505  0.00  0.00    +0.000 A 
ATOM     26  C   UNL     1       1.391   2.064  18.862  0.00  0.00    +0.000 A 
ATOM     27  C   UNL     1       2.755   2.298  18.703  0.00  0.00    +0.000 A 
ATOM     28  C   UNL     1       3.314   3.501  19.141  0.00  0.00    +0.000 A 
ATOM     29 CL   UNL     1       5.020   3.703  18.930  0.00  0.00    +0.000 Cl
ENDBRANCH  22  23
ENDBRANCH  10  22
TORSDOF 8
ENDMDL
MODEL 2
REMARK VINA RESULT:      -7.4      2.123      4.687
REMARK  Name = 
REMARK  10 active torsions:
REMARK  status: ('A' for Active; 'I' for Inactive)
REMARK    1  A    between atoms: C_1  and  C_2
REMARK    2  A    between atoms: C_2  and  C_3
REMARK    3  A    between atoms: C_2  and  C_4
REMARK    4  A    between atoms: C_4  and  C_5
REMARK    5  A    between atoms: C_5  and  N_6
REMARK    6  A    between atoms: C_7  and  C_9
REMARK    7  A    between atoms: C_9  and  S_10
REMARK    8  A    between atoms: S_10  and  C_11
REMARK    9  A    between atoms: N_20  and  C_21
REMARK   10  A    between atoms: C_21  and  C_22
REMARK                            x       y       z     vdW  Elec       q    Type
REMARK                         _______ _______ _______ _____ _____    ______ ____
ROOT
ATOM      1  C   UNL     1       3.402   6.059  17.951  0.00  0.00    +0.000 A 
ATOM      2  N   UNL     1       3.243   4.874  17.441  0.00  0.00    +0.000 NA
ATOM      3  C   UNL     1       2.406   4.022  18.161  0.00  0.00    +0.000 A 
ATOM      4  C   UNL     1       1.987   2.749  17.714  0.00  0.00    +0.000 A 
ATOM      5  C   UNL     1       1.138   2.156  18.630  0.00  0.00    +0.000 A 
ATOM      6  S   UNL     1       0.893   3.143  20.016  0.00  0.00    +0.000 S 
ATOM      7  C   UNL     1       1.876   4.364  19.369  0.00  0.00    +0.000 A 
ATOM      8  C   UNL     1       2.096   5.638  19.973  0.00  0.00    +0.000 A 
ATOM      9  O   UNL     1       1.667   5.955  21.083  0.00  0.00    +0.000 OA
ATOM     10  N   UNL     1       2.835   6.510  19.156  0.00  0.00    +0.000 N 
ENDROOT
BRANCH   1  11
ATOM     11  S   UNL     1       4.425   7.187  17.035  0.00  0.00    +0.000 S 
BRANCH  11  12
ATOM     12  C   UNL     1       6.099   6.538  17.403  0.00  0.00    +0.000 C 
BRANCH  12  14
ATOM     13  N   UNL     1       6.419   5.633  15.114  0.00  0.00    +0.000 N 
ATOM     14  C   UNL     1       6.572   5.423  16.466  0.00  0.00    +0.000 C 
ATOM     15  O   UNL     1       6.993   4.357  16.919  0.00  0.00    +0.000 OA
ATOM     16  H   UNL     1       6.123   6.553  14.812  0.00  0.00    +0.000 HD
BRANCH  13  17
ATOM     17  C   UNL     1       6.831   4.671  14.105  0.00  0.00    +0.000 C 
BRANCH  17  18
ATOM     18  C   UNL     1       5.677   3.831  13.543  0.00  0.00    +0.000 C 
BRANCH  18  20
ATOM     19  C   UNL     1       6.747   2.461  11.670  0.00  0.00    +0.000 C 
ATOM     20  C   UNL     1       5.740   3.554  12.026  0.00  0.00    +0.000 C 
ATOM     21  C   UNL     1       4.354   3.161  11.504  0.00  0.00    +0.000 C 
ENDBRANCH  18  20
ENDBRANCH  17  18
ENDBRANCH  13  17
ENDBRANCH  12  14
ENDBRANCH  11  12
ENDBRANCH   1  11
BRANCH  10  22
ATOM     22  C   UNL     1       2.847   7.899  19.625  0.00  0.00    +0.000 C 
BRANCH  22  23
ATOM     23  C   UNL     1       1.645   8.753  19.271  0.00  0.00    +0.000 A 
ATOM     24  C   UNL     1       1.254   8.991  17.942  0.00  0.00    +0.000 A 
ATOM     25  C   UNL     1       0.058   9.656  17.655  0.00  0.00    +0.000 A 
ATOM     26  C   UNL     1      -0.762  10.104  18.685  0.00  0.00    +0.000 A 
ATOM     27  C   UNL     1      -0.358   9.943  20.008  0.00  0.00    +0.000 A 
ATOM     28  C   UNL     1       0.839   9.285  20.298  0.00  0.00    +0.000 A 
ATOM     29 CL   UNL     1       1.281   9.148  21.967  0.00  0.00    +0.000 Cl
ENDBRANCH  22  23
ENDBRANCH  10  22
TORSDOF 8
ENDMDL
MODEL 3
REMARK VINA RESULT:      -7.4      2.633      4.338
REMARK  Name = 
REMARK  10 active torsions:
REMARK  status: ('A' for Active; 'I' for Inactive)
REMARK    1  A    between atoms: C_1  and  C_2
REMARK    2  A    between atoms: C_2  and  C_3
REMARK    3  A    between atoms: C_2  and  C_4
REMARK    4  A    between atoms: C_4  and  C_5
REMARK    5  A    between atoms: C_5  and  N_6
REMARK    6  A    between atoms: C_7  and  C_9
REMARK    7  A    between atoms: C_9  and  S_10
REMARK    8  A    between atoms: S_10  and  C_11
REMARK    9  A    between atoms: N_20  and  C_21
REMARK   10  A    between atoms: C_21  and  C_22
REMARK                            x       y       z     vdW  Elec       q    Type
REMARK                         _______ _______ _______ _____ _____    ______ ____
ROOT
ATOM      1  C   UNL     1       3.140   6.947  18.142  0.00  0.00    +0.000 A 
ATOM      2  N   UNL     1       2.915   8.074  17.534  0.00  0.00    +0.000 NA
ATOM      3  C   UNL     1       2.157   8.999  18.253  0.00  0.00    +0.000 A 
ATOM      4  C   UNL     1       1.919  10.329  17.840  0.00  0.00    +0.000 A 
ATOM      5  C   UNL     1       1.161  11.010  18.775  0.00  0.00    +0.000 A 
ATOM      6  S   UNL     1       0.738  10.014  20.112  0.00  0.00    +0.000 S 
ATOM      7  C   UNL     1       1.600   8.707  19.462  0.00  0.00    +0.000 A 
ATOM      8  C   UNL     1       1.783   7.449  20.111  0.00  0.00    +0.000 A 
ATOM      9  O   UNL     1       1.253   7.144  21.180  0.00  0.00    +0.000 OA
ATOM     10  N   UNL     1       2.658   6.598  19.415  0.00  0.00    +0.000 N 
ENDROOT
BRANCH   1  11
ATOM     11  S   UNL     1       4.142   5.763  17.275  0.00  0.00    +0.000 S 
BRANCH  11  12
ATOM     12  C   UNL     1       5.405   6.849  16.510  0.00  0.00    +0.000 C 
BRANCH  12  14
ATOM     13  N   UNL     1       7.201   8.330  17.373  0.00  0.00    +0.000 N 
ATOM     14  C   UNL     1       6.662   7.063  17.357  0.00  0.00    +0.000 C 
ATOM     15  O   UNL     1       7.204   6.114  17.930  0.00  0.00    +0.000 OA
ATOM     16  H   UNL     1       6.671   9.070  16.930  0.00  0.00    +0.000 HD
BRANCH  13  17
ATOM     17  C   UNL     1       8.384   8.685  18.140  0.00  0.00    +0.000 C 
BRANCH  17  18
ATOM     18  C   UNL     1       8.713  10.183  18.111  0.00  0.00    +0.000 C 
BRANCH  18  20
ATOM     19  C   UNL     1      10.640  11.825  18.465  0.00  0.00    +0.000 C 
ATOM     20  C   UNL     1       9.879  10.621  19.021  0.00  0.00    +0.000 C 
ATOM     21  C   UNL     1       9.357  10.950  20.423  0.00  0.00    +0.000 C 
ENDBRANCH  18  20
ENDBRANCH  17  18
ENDBRANCH  13  17
ENDBRANCH  12  14
ENDBRANCH  11  12
ENDBRANCH   1  11
BRANCH  10  22
ATOM     22  C   UNL     1       3.075   5.419  20.180  0.00  0.00    +0.000 C 
BRANCH  22  23
ATOM     23  C   UNL     1       2.440   4.095  19.801  0.00  0.00    +0.000 A 
ATOM     24  C   UNL     1       1.047   3.918  19.741  0.00  0.00    +0.000 A 
ATOM     25  C   UNL     1       0.496   2.733  19.244  0.00  0.00    +0.000 A 
ATOM     26  C   UNL     1       1.323   1.700  18.810  0.00  0.00    +0.000 A 
ATOM     27  C   UNL     1       2.704   1.827  18.929  0.00  0.00    +0.000 A 
ATOM     28  C   UNL     1       3.257   3.008  19.431  0.00  0.00    +0.000 A 
ATOM     29 CL   UNL     1       4.982   3.075  19.570  0.00  0.00    +0.000 Cl
ENDBRANCH  22  23
ENDBRANCH  10  22
TORSDOF 8
ENDMDL
MODEL 4
REMARK VINA RESULT:      -6.9      2.585      7.423
REMARK  Name = 
REMARK  10 active torsions:
REMARK  status: ('A' for Active; 'I' for Inactive)
REMARK    1  A    between atoms: C_1  and  C_2
REMARK    2  A    between atoms: C_2  and  C_3
REMARK    3  A    between atoms: C_2  and  C_4
REMARK    4  A    between atoms: C_4  and  C_5
REMARK    5  A    between atoms: C_5  and  N_6
REMARK    6  A    between atoms: C_7  and  C_9
REMARK    7  A    between atoms: C_9  and  S_10
REMARK    8  A    between atoms: S_10  and  C_11
REMARK    9  A    between atoms: N_20  and  C_21
REMARK   10  A    between atoms: C_21  and  C_22
REMARK                            x       y       z     vdW  Elec       q    Type
REMARK                         _______ _______ _______ _____ _____    ______ ____
ROOT
ATOM      1  C   UNL     1       3.412   5.756  18.736  0.00  0.00    +0.000 A 
ATOM      2  N   UNL     1       2.224   5.559  19.227  0.00  0.00    +0.000 NA
ATOM      3  C   UNL     1       2.083   4.411  20.005  0.00  0.00    +0.000 A 
ATOM      4  C   UNL     1       0.924   4.085  20.745  0.00  0.00    +0.000 A 
ATOM      5  C   UNL     1       1.095   2.902  21.440  0.00  0.00    +0.000 A 
ATOM      6  S   UNL     1       2.642   2.206  21.158  0.00  0.00    +0.000 S 
ATOM      7  C   UNL     1       3.085   3.500  20.155  0.00  0.00    +0.000 A 
ATOM      8  C   UNL     1       4.375   3.669  19.567  0.00  0.00    +0.000 A 
ATOM      9  O   UNL     1       5.281   2.840  19.649  0.00  0.00    +0.000 OA
ATOM     10  N   UNL     1       4.514   4.899  18.902  0.00  0.00    +0.000 N 
ENDROOT
BRANCH   1  11
ATOM     11  S   UNL     1       3.641   7.235  17.778  0.00  0.00    +0.000 S 
BRANCH  11  12
ATOM     12  C   UNL     1       1.929   7.886  17.702  0.00  0.00    +0.000 C 
BRANCH  12  14
ATOM     13  N   UNL     1       0.963   9.537  19.285  0.00  0.00    +0.000 N 
ATOM     14  C   UNL     1       1.772   9.329  18.190  0.00  0.00    +0.000 C 
ATOM     15  O   UNL     1       2.287  10.262  17.570  0.00  0.00    +0.000 OA
ATOM     16  H   UNL     1       0.623   8.721  19.778  0.00  0.00    +0.000 HD
BRANCH  13  17
ATOM     17  C   UNL     1       0.730  10.849  19.866  0.00  0.00    +0.000 C 
BRANCH  17  18
ATOM     18  C   UNL     1      -0.756  11.200  20.023  0.00  0.00    +0.000 C 
BRANCH  18  20
ATOM     19  C   UNL     1      -0.358  13.103  18.364  0.00  0.00    +0.000 C 
ATOM     20  C   UNL     1      -1.351  12.069  18.895  0.00  0.00    +0.000 C 
ATOM     21  C   UNL     1      -1.828  11.180  17.742  0.00  0.00    +0.000 C 
ENDBRANCH  18  20
ENDBRANCH  17  18
ENDBRANCH  13  17
ENDBRANCH  12  14
ENDBRANCH  11  12
ENDBRANCH   1  11
BRANCH  10  22
ATOM     22  C   UNL     1       5.894   5.218  18.524  0.00  0.00    +0.000 C 
BRANCH  22  23
ATOM     23  C   UNL     1       6.278   4.987  17.075  0.00  0.00    +0.000 A 
ATOM     24  C   UNL     1       5.850   3.860  16.352  0.00  0.00    +0.000 A 
ATOM     25  C   UNL     1       6.096   3.753  14.980  0.00  0.00    +0.000 A 
ATOM     26  C   UNL     1       6.783   4.759  14.308  0.00  0.00    +0.000 A 
ATOM     27  C   UNL     1       7.279   5.849  15.019  0.00  0.00    +0.000 A 
ATOM     28  C   UNL     1       7.041   5.956  16.391  0.00  0.00    +0.000 A 
ATOM     29 CL   UNL     1       7.713   7.328  17.205  0.00  0.00    +0.000 Cl
ENDBRANCH  22  23
ENDBRANCH  10  22
TORSDOF 8
ENDMDL
MODEL 5
REMARK VINA RESULT:      -6.9      3.289      6.340
REMARK  Name = 
REMARK  10 active torsions:
REMARK  status: ('A' for Active; 'I' for Inactive)
REMARK    1  A    between atoms: C_1  and  C_2
REMARK    2  A    between atoms: C_2  and  C_3
REMARK    3  A    between atoms: C_2  and  C_4
REMARK    4  A    between atoms: C_4  and  C_5
REMARK    5  A    between atoms: C_5  and  N_6
REMARK    6  A    between atoms: C_7  and  C_9
REMARK    7  A    between atoms: C_9  and  S_10
REMARK    8  A    between atoms: S_10  and  C_11
REMARK    9  A    between atoms: N_20  and  C_21
REMARK   10  A    between atoms: C_21  and  C_22
REMARK                            x       y       z     vdW  Elec       q    Type
REMARK                         _______ _______ _______ _____ _____    ______ ____
ROOT
ATOM      1  C   UNL     1       3.421   6.026  17.942  0.00  0.00    +0.000 A 
ATOM      2  N   UNL     1       3.270   4.832  17.450  0.00  0.00    +0.000 NA
ATOM      3  C   UNL     1       2.425   3.991  18.175  0.00  0.00    +0.000 A 
ATOM      4  C   UNL     1       2.013   2.710  17.744  0.00  0.00    +0.000 A 
ATOM      5  C   UNL     1       1.154   2.132  18.660  0.00  0.00    +0.000 A 
ATOM      6  S   UNL     1       0.892   3.142  20.027  0.00  0.00    +0.000 S 
ATOM      7  C   UNL     1       1.881   4.353  19.370  0.00  0.00    +0.000 A 
ATOM      8  C   UNL     1       2.093   5.638  19.956  0.00  0.00    +0.000 A 
ATOM      9  O   UNL     1       1.651   5.973  21.055  0.00  0.00    +0.000 OA
ATOM     10  N   UNL     1       2.840   6.497  19.132  0.00  0.00    +0.000 N 
ENDROOT
BRANCH   1  11
ATOM     11  S   UNL     1       4.453   7.140  17.019  0.00  0.00    +0.000 S 
BRANCH  11  12
ATOM     12  C   UNL     1       6.043   6.228  16.999  0.00  0.00    +0.000 C 
BRANCH  12  14
ATOM     13  N   UNL     1       7.428   8.233  17.469  0.00  0.00    +0.000 N 
ATOM     14  C   UNL     1       7.181   6.910  17.762  0.00  0.00    +0.000 C 
ATOM     15  O   UNL     1       7.890   6.269  18.542  0.00  0.00    +0.000 OA
ATOM     16  H   UNL     1       6.770   8.711  16.866  0.00  0.00    +0.000 HD
BRANCH  13  17
ATOM     17  C   UNL     1       8.467   9.014  18.121  0.00  0.00    +0.000 C 
BRANCH  17  18
ATOM     18  C   UNL     1       8.397  10.515  17.812  0.00  0.00    +0.000 C 
BRANCH  18  20
ATOM     19  C   UNL     1       9.649  10.860  20.013  0.00  0.00    +0.000 C 
ATOM     20  C   UNL     1       9.379  11.400  18.608  0.00  0.00    +0.000 C 
ATOM     21  C   UNL     1      10.703  11.532  17.849  0.00  0.00    +0.000 C 
ENDBRANCH  18  20
ENDBRANCH  17  18
ENDBRANCH  13  17
ENDBRANCH  12  14
ENDBRANCH  11  12
ENDBRANCH   1  11
BRANCH  10  22
ATOM     22  C   UNL     1       2.845   7.893  19.578  0.00  0.00    +0.000 C 
BRANCH  22  23
ATOM     23  C   UNL     1       1.630   8.730  19.228  0.00  0.00    +0.000 A 
ATOM     24  C   UNL     1       1.214   8.937  17.902  0.00  0.00    +0.000 A 
ATOM     25  C   UNL     1       0.007   9.585  17.622  0.00  0.00    +0.000 A 
ATOM     26  C   UNL     1      -0.799  10.048  18.657  0.00  0.00    +0.000 A 
ATOM     27  C   UNL     1      -0.371   9.917  19.975  0.00  0.00    +0.000 A 
ATOM     28  C   UNL     1       0.837   9.276  20.258  0.00  0.00    +0.000 A 
ATOM     29 CL   UNL     1       1.309   9.177  21.921  0.00  0.00    +0.000 Cl
ENDBRANCH  22  23
ENDBRANCH  10  22
TORSDOF 8
ENDMDL
MODEL 6
REMARK VINA RESULT:      -6.9      2.760      7.361
REMARK  Name = 
REMARK  10 active torsions:
REMARK  status: ('A' for Active; 'I' for Inactive)
REMARK    1  A    between atoms: C_1  and  C_2
REMARK    2  A    between atoms: C_2  and  C_3
REMARK    3  A    between atoms: C_2  and  C_4
REMARK    4  A    between atoms: C_4  and  C_5
REMARK    5  A    between atoms: C_5  and  N_6
REMARK    6  A    between atoms: C_7  and  C_9
REMARK    7  A    between atoms: C_9  and  S_10
REMARK    8  A    between atoms: S_10  and  C_11
REMARK    9  A    between atoms: N_20  and  C_21
REMARK   10  A    between atoms: C_21  and  C_22
REMARK                            x       y       z     vdW  Elec       q    Type
REMARK                         _______ _______ _______ _____ _____    ______ ____
ROOT
ATOM      1  C   UNL     1       2.453   5.811  18.646  0.00  0.00    +0.000 A 
ATOM      2  N   UNL     1       1.460   5.257  19.277  0.00  0.00    +0.000 NA
ATOM      3  C   UNL     1       1.796   4.169  20.082  0.00  0.00    +0.000 A 
ATOM      4  C   UNL     1       0.899   3.517  20.958  0.00  0.00    +0.000 A 
ATOM      5  C   UNL     1       1.531   2.496  21.645  0.00  0.00    +0.000 A 
ATOM      6  S   UNL     1       3.182   2.338  21.191  0.00  0.00    +0.000 S 
ATOM      7  C   UNL     1       3.056   3.652  20.125  0.00  0.00    +0.000 A 
ATOM      8  C   UNL     1       4.143   4.208  19.386  0.00  0.00    +0.000 A 
ATOM      9  O   UNL     1       5.278   3.731  19.371  0.00  0.00    +0.000 OA
ATOM     10  N   UNL     1       3.790   5.378  18.693  0.00  0.00    +0.000 N 
ENDROOT
BRANCH   1  11
ATOM     11  S   UNL     1       2.068   7.229  17.648  0.00  0.00    +0.000 S 
BRANCH  11  12
ATOM     12  C   UNL     1       2.111   8.572  18.894  0.00  0.00    +0.000 C 
BRANCH  12  14
ATOM     13  N   UNL     1       0.345  10.038  17.947  0.00  0.00    +0.000 N 
ATOM     14  C   UNL     1       0.797   9.343  19.047  0.00  0.00    +0.000 C 
ATOM     15  O   UNL     1       0.222   9.399  20.136  0.00  0.00    +0.000 OA
ATOM     16  H   UNL     1       0.834   9.898  17.071  0.00  0.00    +0.000 HD
BRANCH  13  17
ATOM     17  C   UNL     1      -0.890  10.805  17.938  0.00  0.00    +0.000 C 
BRANCH  17  18
ATOM     18  C   UNL     1      -2.067  10.073  17.280  0.00  0.00    +0.000 C 
BRANCH  18  20
ATOM     19  C   UNL     1      -3.001  10.143  14.902  0.00  0.00    +0.000 C 
ATOM     20  C   UNL     1      -2.846  10.889  16.228  0.00  0.00    +0.000 C 
ATOM     21  C   UNL     1      -4.230  11.262  16.768  0.00  0.00    +0.000 C 
ENDBRANCH  18  20
ENDBRANCH  17  18
ENDBRANCH  13  17
ENDBRANCH  12  14
ENDBRANCH  11  12
ENDBRANCH   1  11
BRANCH  10  22
ATOM     22  C   UNL     1       4.933   6.116  18.149  0.00  0.00    +0.000 C 
BRANCH  22  23
ATOM     23  C   UNL     1       5.591   5.544  16.908  0.00  0.00    +0.000 A 
ATOM     24  C   UNL     1       4.889   4.758  15.977  0.00  0.00    +0.000 A 
ATOM     25  C   UNL     1       5.483   4.374  14.771  0.00  0.00    +0.000 A 
ATOM     26  C   UNL     1       6.788   4.756  14.476  0.00  0.00    +0.000 A 
ATOM     27  C   UNL     1       7.525   5.474  15.415  0.00  0.00    +0.000 A 
ATOM     28  C   UNL     1       6.937   5.854  16.624  0.00  0.00    +0.000 A 
ATOM     29 CL   UNL     1       7.928   6.722  17.747  0.00  0.00    +0.000 Cl
ENDBRANCH  22  23
ENDBRANCH  10  22
TORSDOF 8
ENDMDL
MODEL 7
REMARK VINA RESULT:      -6.9      2.626      7.514
REMARK  Name = 
REMARK  10 active torsions:
REMARK  status: ('A' for Active; 'I' for Inactive)
REMARK    1  A    between atoms: C_1  and  C_2
REMARK    2  A    between atoms: C_2  and  C_3
REMARK    3  A    between atoms: C_2  and  C_4
REMARK    4  A    between atoms: C_4  and  C_5
REMARK    5  A    between atoms: C_5  and  N_6
REMARK    6  A    between atoms: C_7  and  C_9
REMARK    7  A    between atoms: C_9  and  S_10
REMARK    8  A    between atoms: S_10  and  C_11
REMARK    9  A    between atoms: N_20  and  C_21
REMARK   10  A    between atoms: C_21  and  C_22
REMARK                            x       y       z     vdW  Elec       q    Type
REMARK                         _______ _______ _______ _____ _____    ______ ____
ROOT
ATOM      1  C   UNL     1       2.915   5.987  18.974  0.00  0.00    +0.000 A 
ATOM      2  N   UNL     1       1.868   5.542  19.602  0.00  0.00    +0.000 NA
ATOM      3  C   UNL     1       2.040   4.325  20.262  0.00  0.00    +0.000 A 
ATOM      4  C   UNL     1       1.082   3.738  21.117  0.00  0.00    +0.000 A 
ATOM      5  C   UNL     1       1.551   2.550  21.647  0.00  0.00    +0.000 A 
ATOM      6  S   UNL     1       3.127   2.166  21.075  0.00  0.00    +0.000 S 
ATOM      7  C   UNL     1       3.189   3.598  20.168  0.00  0.00    +0.000 A 
ATOM      8  C   UNL     1       4.324   4.043  19.426  0.00  0.00    +0.000 A 
ATOM      9  O   UNL     1       5.356   3.384  19.288  0.00  0.00    +0.000 OA
ATOM     10  N   UNL     1       4.154   5.330  18.888  0.00  0.00    +0.000 N 
ENDROOT
BRANCH   1  11
ATOM     11  S   UNL     1       2.745   7.558  18.161  0.00  0.00    +0.000 S 
BRANCH  11  12
ATOM     12  C   UNL     1       1.702   8.475  19.358  0.00  0.00    +0.000 C 
BRANCH  12  14
ATOM     13  N   UNL     1       0.074  10.335  19.582  0.00  0.00    +0.000 N 
ATOM     14  C   UNL     1       1.009   9.714  18.785  0.00  0.00    +0.000 C 
ATOM     15  O   UNL     1       1.229  10.079  17.628  0.00  0.00    +0.000 OA
ATOM     16  H   UNL     1      -0.010  10.018  20.540  0.00  0.00    +0.000 HD
BRANCH  13  17
ATOM     17  C   UNL     1      -0.655  11.526  19.178  0.00  0.00    +0.000 C 
BRANCH  17  18
ATOM     18  C   UNL     1      -2.137  11.270  18.874  0.00  0.00    +0.000 C 
BRANCH  18  20
ATOM     19  C   UNL     1      -2.147   9.938  16.693  0.00  0.00    +0.000 C 
ATOM     20  C   UNL     1      -2.511  11.256  17.377  0.00  0.00    +0.000 C 
ATOM     21  C   UNL     1      -4.010  11.523  17.206  0.00  0.00    +0.000 C 
ENDBRANCH  18  20
ENDBRANCH  17  18
ENDBRANCH  13  17
ENDBRANCH  12  14
ENDBRANCH  11  12
ENDBRANCH   1  11
BRANCH  10  22
ATOM     22  C   UNL     1       5.386   5.920  18.356  0.00  0.00    +0.000 C 
BRANCH  22  23
ATOM     23  C   UNL     1       5.815   5.479  16.969  0.00  0.00    +0.000 A 
ATOM     24  C   UNL     1       5.002   5.658  15.837  0.00  0.00    +0.000 A 
ATOM     25  C   UNL     1       5.487   5.380  14.555  0.00  0.00    +0.000 A 
ATOM     26  C   UNL     1       6.784   4.907  14.381  0.00  0.00    +0.000 A 
ATOM     27  C   UNL     1       7.581   4.654  15.495  0.00  0.00    +0.000 A 
ATOM     28  C   UNL     1       7.097   4.925  16.777  0.00  0.00    +0.000 A 
ATOM     29 CL   UNL     1       8.141   4.559  18.109  0.00  0.00    +0.000 Cl
ENDBRANCH  22  23
ENDBRANCH  10  22
TORSDOF 8
ENDMDL
MODEL 8
REMARK VINA RESULT:      -6.9      2.548      7.767
REMARK  Name = 
REMARK  10 active torsions:
REMARK  status: ('A' for Active; 'I' for Inactive)
REMARK    1  A    between atoms: C_1  and  C_2
REMARK    2  A    between atoms: C_2  and  C_3
REMARK    3  A    between atoms: C_2  and  C_4
REMARK    4  A    between atoms: C_4  and  C_5
REMARK    5  A    between atoms: C_5  and  N_6
REMARK    6  A    between atoms: C_7  and  C_9
REMARK    7  A    between atoms: C_9  and  S_10
REMARK    8  A    between atoms: S_10  and  C_11
REMARK    9  A    between atoms: N_20  and  C_21
REMARK   10  A    between atoms: C_21  and  C_22
REMARK                            x       y       z     vdW  Elec       q    Type
REMARK                         _______ _______ _______ _____ _____    ______ ____
ROOT
ATOM      1  C   UNL     1       3.301   5.827  18.719  0.00  0.00    +0.000 A 
ATOM      2  N   UNL     1       2.122   5.578  19.208  0.00  0.00    +0.000 NA
ATOM      3  C   UNL     1       2.036   4.440  20.009  0.00  0.00    +0.000 A 
ATOM      4  C   UNL     1       0.891   4.069  20.749  0.00  0.00    +0.000 A 
ATOM      5  C   UNL     1       1.120   2.910  21.469  0.00  0.00    +0.000 A 
ATOM      6  S   UNL     1       2.702   2.290  21.208  0.00  0.00    +0.000 S 
ATOM      7  C   UNL     1       3.084   3.586  20.182  0.00  0.00    +0.000 A 
ATOM      8  C   UNL     1       4.366   3.811  19.597  0.00  0.00    +0.000 A 
ATOM      9  O   UNL     1       5.314   3.032  19.699  0.00  0.00    +0.000 OA
ATOM     10  N   UNL     1       4.445   5.033  18.908  0.00  0.00    +0.000 N 
ENDROOT
BRANCH   1  11
ATOM     11  S   UNL     1       3.457   7.297  17.733  0.00  0.00    +0.000 S 
BRANCH  11  12
ATOM     12  C   UNL     1       1.789   8.034  17.913  0.00  0.00    +0.000 C 
BRANCH  12  14
ATOM     13  N   UNL     1       1.410   8.417  20.336  0.00  0.00    +0.000 N 
ATOM     14  C   UNL     1       1.636   8.986  19.103  0.00  0.00    +0.000 C 
ATOM     15  O   UNL     1       1.636  10.207  18.936  0.00  0.00    +0.000 OA
ATOM     16  H   UNL     1       1.483   7.409  20.409  0.00  0.00    +0.000 HD
BRANCH  13  17
ATOM     17  C   UNL     1       1.257   9.192  21.557  0.00  0.00    +0.000 C 
BRANCH  17  18
ATOM     18  C   UNL     1      -0.187   9.630  21.833  0.00  0.00    +0.000 C 
BRANCH  18  20
ATOM     19  C   UNL     1      -0.283  12.111  21.226  0.00  0.00    +0.000 C 
ATOM     20  C   UNL     1      -0.351  11.075  22.349  0.00  0.00    +0.000 C 
ATOM     21  C   UNL     1      -1.679  11.220  23.098  0.00  0.00    +0.000 C 
ENDBRANCH  18  20
ENDBRANCH  17  18
ENDBRANCH  13  17
ENDBRANCH  12  14
ENDBRANCH  11  12
ENDBRANCH   1  11
BRANCH  10  22
ATOM     22  C   UNL     1       5.808   5.416  18.530  0.00  0.00    +0.000 C 
BRANCH  22  23
ATOM     23  C   UNL     1       6.231   5.126  17.102  0.00  0.00    +0.000 A 
ATOM     24  C   UNL     1       5.781   3.997  16.398  0.00  0.00    +0.000 A 
ATOM     25  C   UNL     1       6.067   3.839  15.038  0.00  0.00    +0.000 A 
ATOM     26  C   UNL     1       6.817   4.796  14.362  0.00  0.00    +0.000 A 
ATOM     27  C   UNL     1       7.334   5.885  15.058  0.00  0.00    +0.000 A 
ATOM     28  C   UNL     1       7.055   6.043  16.418  0.00  0.00    +0.000 A 
ATOM     29 CL   UNL     1       7.756   7.410  17.215  0.00  0.00    +0.000 Cl
ENDBRANCH  22  23
ENDBRANCH  10  22
TORSDOF 8
ENDMDL
MODEL 9
REMARK VINA RESULT:      -6.9      1.100      1.329
REMARK  Name = 
REMARK  10 active torsions:
REMARK  status: ('A' for Active; 'I' for Inactive)
REMARK    1  A    between atoms: C_1  and  C_2
REMARK    2  A    between atoms: C_2  and  C_3
REMARK    3  A    between atoms: C_2  and  C_4
REMARK    4  A    between atoms: C_4  and  C_5
REMARK    5  A    between atoms: C_5  and  N_6
REMARK    6  A    between atoms: C_7  and  C_9
REMARK    7  A    between atoms: C_9  and  S_10
REMARK    8  A    between atoms: S_10  and  C_11
REMARK    9  A    between atoms: N_20  and  C_21
REMARK   10  A    between atoms: C_21  and  C_22
REMARK                            x       y       z     vdW  Elec       q    Type
REMARK                         _______ _______ _______ _____ _____    ______ ____
ROOT
ATOM      1  C   UNL     1       2.688   8.041  18.035  0.00  0.00    +0.000 A 
ATOM      2  N   UNL     1       2.326   9.260  17.762  0.00  0.00    +0.000 NA
ATOM      3  C   UNL     1       1.639   9.920  18.780  0.00  0.00    +0.000 A 
ATOM      4  C   UNL     1       1.283  11.287  18.746  0.00  0.00    +0.000 A 
ATOM      5  C   UNL     1       0.638  11.661  19.911  0.00  0.00    +0.000 A 
ATOM      6  S   UNL     1       0.458  10.342  21.000  0.00  0.00    +0.000 S 
ATOM      7  C   UNL     1       1.276   9.303  19.939  0.00  0.00    +0.000 A 
ATOM      8  C   UNL     1       1.608   7.945  20.225  0.00  0.00    +0.000 A 
ATOM      9  O   UNL     1       1.253   7.350  21.243  0.00  0.00    +0.000 OA
ATOM     10  N   UNL     1       2.411   7.358  19.232  0.00  0.00    +0.000 N 
ENDROOT
BRANCH   1  11
ATOM     11  S   UNL     1       3.607   7.185  16.778  0.00  0.00    +0.000 S 
BRANCH  11  12
ATOM     12  C   UNL     1       5.311   7.281  17.446  0.00  0.00    +0.000 C 
BRANCH  12  14
ATOM     13  N   UNL     1       6.061   5.894  15.528  0.00  0.00    +0.000 N 
ATOM     14  C   UNL     1       6.297   6.285  16.828  0.00  0.00    +0.000 C 
ATOM     15  O   UNL     1       7.208   5.801  17.501  0.00  0.00    +0.000 OA
ATOM     16  H   UNL     1       5.332   6.378  15.018  0.00  0.00    +0.000 HD
BRANCH  13  17
ATOM     17  C   UNL     1       6.915   4.966  14.807  0.00  0.00    +0.000 C 
BRANCH  17  18
ATOM     18  C   UNL     1       6.155   3.803  14.156  0.00  0.00    +0.000 C 
BRANCH  18  20
ATOM     19  C   UNL     1       5.336   3.139  11.828  0.00  0.00    +0.000 C 
ATOM     20  C   UNL     1       6.544   3.495  12.695  0.00  0.00    +0.000 C 
ATOM     21  C   UNL     1       7.278   4.691  12.082  0.00  0.00    +0.000 C 
ENDBRANCH  18  20
ENDBRANCH  17  18
ENDBRANCH  13  17
ENDBRANCH  12  14
ENDBRANCH  11  12
ENDBRANCH   1  11
BRANCH  10  22
ATOM     22  C   UNL     1       2.989   6.067  19.619  0.00  0.00    +0.000 C 
BRANCH  22  23
ATOM     23  C   UNL     1       2.172   4.829  19.304  0.00  0.00    +0.000 A 
ATOM     24  C   UNL     1       1.687   4.554  18.013  0.00  0.00    +0.000 A 
ATOM     25  C   UNL     1       1.069   3.333  17.725  0.00  0.00    +0.000 A 
ATOM     26  C   UNL     1       0.913   2.372  18.719  0.00  0.00    +0.000 A 
ATOM     27  C   UNL     1       1.320   2.653  20.020  0.00  0.00    +0.000 A 
ATOM     28  C   UNL     1       1.933   3.874  20.313  0.00  0.00    +0.000 A 
ATOM     29 CL   UNL     1       2.388   4.155  21.960  0.00  0.00    +0.000 Cl
ENDBRANCH  22  23
ENDBRANCH  10  22
TORSDOF 8
ENDMDL
