MODEL 1
REMARK VINA RESULT:      -7.6      0.000      0.000
REMARK  Name = 
REMARK  11 active torsions:
REMARK  status: ('A' for Active; 'I' for Inactive)
REMARK    1  A    between atoms: C_1  and  C_2
REMARK    2  A    between atoms: C_2  and  C_3
REMARK    3  A    between atoms: C_3  and  C_4
REMARK    4  A    between atoms: C_4  and  C_5
REMARK    5  A    between atoms: C_5  and  C_6
REMARK    6  A    between atoms: C_6  and  C_7
REMARK    7  A    between atoms: C_7  and  C_8
REMARK    8  A    between atoms: C_8  and  N_9
REMARK    9  A    between atoms: C_12  and  C_13
REMARK   10  A    between atoms: C_12  and  C_14
REMARK   11  A    between atoms: N_17  and  C_18
REMARK                            x       y       z     vdW  Elec       q    Type
REMARK                         _______ _______ _______ _____ _____    ______ ____
ROOT
ATOM      1  N   UNL     1       1.577   7.036  20.850  0.00  0.00    +0.000 N 
ATOM      2  C   UNL     1       2.060   5.840  20.409  0.00  0.00    +0.000 C 
ATOM      3  N   UNL     1       1.446   4.787  20.829  0.00  0.00    +0.000 NA
ATOM      4  C   UNL     1       1.899   3.504  20.342  0.00  0.00    +0.000 C 
ATOM      5  C   UNL     1       0.762   2.915  19.499  0.00  0.00    +0.000 C 
ATOM      6  C   UNL     1       2.173   2.620  21.565  0.00  0.00    +0.000 C 
ATOM      7  N   UNL     1       3.066   3.523  19.515  0.00  0.00    +0.000 N 
ATOM      8  C   UNL     1       3.612   4.710  19.177  0.00  0.00    +0.000 C 
ATOM      9  N   UNL     1       4.695   4.567  18.353  0.00  0.00    +0.000 N 
ATOM     10  N   UNL     1       3.132   5.837  19.570  0.00  0.00    +0.000 NA
ATOM     11  H   UNL     1       0.698   6.909  21.334  0.00  0.00    +0.000 HD
ATOM     12  H   UNL     1       3.539   2.653  19.333  0.00  0.00    +0.000 HD
ATOM     13  H   UNL     1       4.807   3.695  17.862  0.00  0.00    +0.000 HD
ENDROOT
BRANCH   9  14
ATOM     14  C   UNL     1       5.791   5.441  18.260  0.00  0.00    +0.000 A 
ATOM     15  C   UNL     1       6.880   5.366  19.137  0.00  0.00    +0.000 A 
ATOM     16  C   UNL     1       7.950   6.258  19.040  0.00  0.00    +0.000 A 
ATOM     17  C   UNL     1       7.937   7.257  18.070  0.00  0.00    +0.000 A 
ATOM     18  C   UNL     1       6.853   7.363  17.204  0.00  0.00    +0.000 A 
ATOM     19  C   UNL     1       5.785   6.464  17.300  0.00  0.00    +0.000 A 
ENDBRANCH   9  14
BRANCH   1  20
ATOM     20  C   UNL     1       1.685   8.243  20.059  0.00  0.00    +0.000 C 
BRANCH  20  21
ATOM     21  C   UNL     1       0.734   9.313  20.593  0.00  0.00    +0.000 C 
BRANCH  21  22
ATOM     22  C   UNL     1       0.567  10.467  19.603  0.00  0.00    +0.000 C 
BRANCH  22  23
ATOM     23  C   UNL     1       0.047   9.982  18.252  0.00  0.00    +0.000 C 
BRANCH  23  24
ATOM     24  C   UNL     1      -1.479  10.050  18.209  0.00  0.00    +0.000 C 
BRANCH  24  25
ATOM     25  C   UNL     1      -1.952  11.366  17.598  0.00  0.00    +0.000 C 
BRANCH  25  27
ATOM     26  C   UNL     1      -2.780  10.249  15.507  0.00  0.00    +0.000 C 
ATOM     27  C   UNL     1      -3.147  11.150  16.674  0.00  0.00    +0.000 C 
ENDBRANCH  25  27
ENDBRANCH  24  25
ENDBRANCH  23  24
ENDBRANCH  22  23
ENDBRANCH  21  22
ENDBRANCH  20  21
ENDBRANCH   1  20
TORSDOF 8
ENDMDL
MODEL 2
REMARK VINA RESULT:      -7.6      4.198      7.899
REMARK  Name = 
REMARK  11 active torsions:
REMARK  status: ('A' for Active; 'I' for Inactive)
REMARK    1  A    between atoms: C_1  and  C_2
REMARK    2  A    between atoms: C_2  and  C_3
REMARK    3  A    between atoms: C_3  and  C_4
REMARK    4  A    between atoms: C_4  and  C_5
REMARK    5  A    between atoms: C_5  and  C_6
REMARK    6  A    between atoms: C_6  and  C_7
REMARK    7  A    between atoms: C_7  and  C_8
REMARK    8  A    between atoms: C_8  and  N_9
REMARK    9  A    between atoms: C_12  and  C_13
REMARK   10  A    between atoms: C_12  and  C_14
REMARK   11  A    between atoms: N_17  and  C_18
REMARK                            x       y       z     vdW  Elec       q    Type
REMARK                         _______ _______ _______ _____ _____    ______ ____
ROOT
ATOM      1  N   UNL     1       6.892   3.640  16.193  0.00  0.00    +0.000 N 
ATOM      2  C   UNL     1       6.714   4.421  17.296  0.00  0.00    +0.000 C 
ATOM      3  N   UNL     1       7.775   4.962  17.790  0.00  0.00    +0.000 NA
ATOM      4  C   UNL     1       7.617   5.836  18.930  0.00  0.00    +0.000 C 
ATOM      5  C   UNL     1       8.020   7.244  18.477  0.00  0.00    +0.000 C 
ATOM      6  C   UNL     1       8.564   5.334  20.027  0.00  0.00    +0.000 C 
ATOM      7  N   UNL     1       6.296   5.932  19.470  0.00  0.00    +0.000 N 
ATOM      8  C   UNL     1       5.285   5.286  18.850  0.00  0.00    +0.000 C 
ATOM      9  N   UNL     1       4.079   5.506  19.459  0.00  0.00    +0.000 N 
ATOM     10  N   UNL     1       5.455   4.577  17.791  0.00  0.00    +0.000 NA
ATOM     11  H   UNL     1       7.835   3.730  15.841  0.00  0.00    +0.000 HD
ATOM     12  H   UNL     1       6.178   6.349  20.378  0.00  0.00    +0.000 HD
ATOM     13  H   UNL     1       3.995   6.297  20.077  0.00  0.00    +0.000 HD
ENDROOT
BRANCH   9  14
ATOM     14  C   UNL     1       2.982   4.628  19.472  0.00  0.00    +0.000 A 
ATOM     15  C   UNL     1       2.257   4.324  18.314  0.00  0.00    +0.000 A 
ATOM     16  C   UNL     1       1.157   3.465  18.353  0.00  0.00    +0.000 A 
ATOM     17  C   UNL     1       0.752   2.909  19.563  0.00  0.00    +0.000 A 
ATOM     18  C   UNL     1       1.445   3.217  20.731  0.00  0.00    +0.000 A 
ATOM     19  C   UNL     1       2.550   4.075  20.687  0.00  0.00    +0.000 A 
ENDBRANCH   9  14
BRANCH   1  20
ATOM     20  C   UNL     1       5.862   3.492  15.187  0.00  0.00    +0.000 C 
BRANCH  20  21
ATOM     21  C   UNL     1       5.957   4.623  14.163  0.00  0.00    +0.000 C 
BRANCH  21  22
ATOM     22  C   UNL     1       5.217   4.279  12.869  0.00  0.00    +0.000 C 
BRANCH  22  23
ATOM     23  C   UNL     1       5.858   3.095  12.149  0.00  0.00    +0.000 C 
BRANCH  23  24
ATOM     24  C   UNL     1       4.849   2.422  11.220  0.00  0.00    +0.000 C 
BRANCH  24  25
ATOM     25  C   UNL     1       3.596   3.278  11.060  0.00  0.00    +0.000 C 
BRANCH  25  27
ATOM     26  C   UNL     1       2.511   4.729   9.322  0.00  0.00    +0.000 C 
ATOM     27  C   UNL     1       3.189   3.397   9.594  0.00  0.00    +0.000 C 
ENDBRANCH  25  27
ENDBRANCH  24  25
ENDBRANCH  23  24
ENDBRANCH  22  23
ENDBRANCH  21  22
ENDBRANCH  20  21
ENDBRANCH   1  20
TORSDOF 8
ENDMDL
MODEL 3
REMARK VINA RESULT:      -7.5      2.533      6.794
REMARK  Name = 
REMARK  11 active torsions:
REMARK  status: ('A' for Active; 'I' for Inactive)
REMARK    1  A    between atoms: C_1  and  C_2
REMARK    2  A    between atoms: C_2  and  C_3
REMARK    3  A    between atoms: C_3  and  C_4
REMARK    4  A    between atoms: C_4  and  C_5
REMARK    5  A    between atoms: C_5  and  C_6
REMARK    6  A    between atoms: C_6  and  C_7
REMARK    7  A    between atoms: C_7  and  C_8
REMARK    8  A    between atoms: C_8  and  N_9
REMARK    9  A    between atoms: C_12  and  C_13
REMARK   10  A    between atoms: C_12  and  C_14
REMARK   11  A    between atoms: N_17  and  C_18
REMARK                            x       y       z     vdW  Elec       q    Type
REMARK                         _______ _______ _______ _____ _____    ______ ____
ROOT
ATOM      1  N   UNL     1       5.560   3.667  19.283  0.00  0.00    +0.000 N 
ATOM      2  C   UNL     1       5.474   4.729  18.432  0.00  0.00    +0.000 C 
ATOM      3  N   UNL     1       6.472   4.904  17.635  0.00  0.00    +0.000 NA
ATOM      4  C   UNL     1       6.392   5.990  16.685  0.00  0.00    +0.000 C 
ATOM      5  C   UNL     1       6.352   5.364  15.287  0.00  0.00    +0.000 C 
ATOM      6  C   UNL     1       7.658   6.840  16.855  0.00  0.00    +0.000 C 
ATOM      7  N   UNL     1       5.247   6.840  16.797  0.00  0.00    +0.000 N 
ATOM      8  C   UNL     1       4.291   6.537  17.700  0.00  0.00    +0.000 C 
ATOM      9  N   UNL     1       3.243   7.416  17.660  0.00  0.00    +0.000 N 
ATOM     10  N   UNL     1       4.363   5.515  18.478  0.00  0.00    +0.000 NA
ATOM     11  H   UNL     1       6.350   3.083  19.045  0.00  0.00    +0.000 HD
ATOM     12  H   UNL     1       5.254   7.720  16.310  0.00  0.00    +0.000 HD
ATOM     13  H   UNL     1       3.130   7.985  16.837  0.00  0.00    +0.000 HD
ENDROOT
BRANCH   9  14
ATOM     14  C   UNL     1       2.405   7.761  18.734  0.00  0.00    +0.000 A 
ATOM     15  C   UNL     1       1.712   8.977  18.779  0.00  0.00    +0.000 A 
ATOM     16  C   UNL     1       0.900   9.307  19.866  0.00  0.00    +0.000 A 
ATOM     17  C   UNL     1       0.785   8.430  20.940  0.00  0.00    +0.000 A 
ATOM     18  C   UNL     1       1.484   7.226  20.926  0.00  0.00    +0.000 A 
ATOM     19  C   UNL     1       2.293   6.895  19.833  0.00  0.00    +0.000 A 
ENDBRANCH   9  14
BRANCH   1  20
ATOM     20  C   UNL     1       4.383   2.965  19.751  0.00  0.00    +0.000 C 
BRANCH  20  21
ATOM     21  C   UNL     1       4.176   1.684  18.943  0.00  0.00    +0.000 C 
BRANCH  21  22
ATOM     22  C   UNL     1       2.762   1.603  18.365  0.00  0.00    +0.000 C 
BRANCH  22  23
ATOM     23  C   UNL     1       2.447   2.800  17.471  0.00  0.00    +0.000 C 
BRANCH  23  24
ATOM     24  C   UNL     1       1.358   3.668  18.102  0.00  0.00    +0.000 C 
BRANCH  24  25
ATOM     25  C   UNL     1       0.658   2.928  19.238  0.00  0.00    +0.000 C 
BRANCH  25  27
ATOM     26  C   UNL     1       1.401   2.705  21.626  0.00  0.00    +0.000 C 
ATOM     27  C   UNL     1       0.851   3.648  20.570  0.00  0.00    +0.000 C 
ENDBRANCH  25  27
ENDBRANCH  24  25
ENDBRANCH  23  24
ENDBRANCH  22  23
ENDBRANCH  21  22
ENDBRANCH  20  21
ENDBRANCH   1  20
TORSDOF 8
ENDMDL
MODEL 4
REMARK VINA RESULT:      -7.5      0.497      1.133
REMARK  Name = 
REMARK  11 active torsions:
REMARK  status: ('A' for Active; 'I' for Inactive)
REMARK    1  A    between atoms: C_1  and  C_2
REMARK    2  A    between atoms: C_2  and  C_3
REMARK    3  A    between atoms: C_3  and  C_4
REMARK    4  A    between atoms: C_4  and  C_5
REMARK    5  A    between atoms: C_5  and  C_6
REMARK    6  A    between atoms: C_6  and  C_7
REMARK    7  A    between atoms: C_7  and  C_8
REMARK    8  A    between atoms: C_8  and  N_9
REMARK    9  A    between atoms: C_12  and  C_13
REMARK   10  A    between atoms: C_12  and  C_14
REMARK   11  A    between atoms: N_17  and  C_18
REMARK                            x       y       z     vdW  Elec       q    Type
REMARK                         _______ _______ _______ _____ _____    ______ ____
ROOT
ATOM      1  N   UNL     1       1.571   7.017  21.060  0.00  0.00    +0.000 N 
ATOM      2  C   UNL     1       2.040   5.846  20.544  0.00  0.00    +0.000 C 
ATOM      3  N   UNL     1       1.444   4.771  20.935  0.00  0.00    +0.000 NA
ATOM      4  C   UNL     1       1.882   3.515  20.371  0.00  0.00    +0.000 C 
ATOM      5  C   UNL     1       0.716   2.963  19.543  0.00  0.00    +0.000 C 
ATOM      6  C   UNL     1       2.202   2.575  21.540  0.00  0.00    +0.000 C 
ATOM      7  N   UNL     1       3.018   3.578  19.505  0.00  0.00    +0.000 N 
ATOM      8  C   UNL     1       3.549   4.782  19.204  0.00  0.00    +0.000 C 
ATOM      9  N   UNL     1       4.602   4.683  18.335  0.00  0.00    +0.000 N 
ATOM     10  N   UNL     1       3.081   5.887  19.668  0.00  0.00    +0.000 NA
ATOM     11  H   UNL     1       0.711   6.864  21.568  0.00  0.00    +0.000 HD
ATOM     12  H   UNL     1       3.486   2.720  19.264  0.00  0.00    +0.000 HD
ATOM     13  H   UNL     1       4.698   3.835  17.799  0.00  0.00    +0.000 HD
ENDROOT
BRANCH   9  14
ATOM     14  C   UNL     1       5.692   5.564  18.245  0.00  0.00    +0.000 A 
ATOM     15  C   UNL     1       5.747   6.586  17.290  0.00  0.00    +0.000 A 
ATOM     16  C   UNL     1       6.850   7.439  17.205  0.00  0.00    +0.000 A 
ATOM     17  C   UNL     1       7.930   7.267  18.067  0.00  0.00    +0.000 A 
ATOM     18  C   UNL     1       7.904   6.242  19.009  0.00  0.00    +0.000 A 
ATOM     19  C   UNL     1       6.795   5.393  19.095  0.00  0.00    +0.000 A 
ENDBRANCH   9  14
BRANCH   1  20
ATOM     20  C   UNL     1       1.648   8.261  20.323  0.00  0.00    +0.000 C 
BRANCH  20  21
ATOM     21  C   UNL     1       0.510   9.193  20.739  0.00  0.00    +0.000 C 
BRANCH  21  22
ATOM     22  C   UNL     1       0.809  10.648  20.374  0.00  0.00    +0.000 C 
BRANCH  22  23
ATOM     23  C   UNL     1      -0.312  11.263  19.540  0.00  0.00    +0.000 C 
BRANCH  23  24
ATOM     24  C   UNL     1      -1.100  10.174  18.814  0.00  0.00    +0.000 C 
BRANCH  24  25
ATOM     25  C   UNL     1      -1.754  10.722  17.548  0.00  0.00    +0.000 C 
BRANCH  25  27
ATOM     26  C   UNL     1      -3.018   9.869  15.554  0.00  0.00    +0.000 C 
ATOM     27  C   UNL     1      -2.877   9.809  17.065  0.00  0.00    +0.000 C 
ENDBRANCH  25  27
ENDBRANCH  24  25
ENDBRANCH  23  24
ENDBRANCH  22  23
ENDBRANCH  21  22
ENDBRANCH  20  21
ENDBRANCH   1  20
TORSDOF 8
ENDMDL
MODEL 5
REMARK VINA RESULT:      -7.5      1.898      2.633
REMARK  Name = 
REMARK  11 active torsions:
REMARK  status: ('A' for Active; 'I' for Inactive)
REMARK    1  A    between atoms: C_1  and  C_2
REMARK    2  A    between atoms: C_2  and  C_3
REMARK    3  A    between atoms: C_3  and  C_4
REMARK    4  A    between atoms: C_4  and  C_5
REMARK    5  A    between atoms: C_5  and  C_6
REMARK    6  A    between atoms: C_6  and  C_7
REMARK    7  A    between atoms: C_7  and  C_8
REMARK    8  A    between atoms: C_8  and  N_9
REMARK    9  A    between atoms: C_12  and  C_13
REMARK   10  A    between atoms: C_12  and  C_14
REMARK   11  A    between atoms: N_17  and  C_18
REMARK                            x       y       z     vdW  Elec       q    Type
REMARK                         _______ _______ _______ _____ _____    ______ ____
ROOT
ATOM      1  N   UNL     1       1.558   7.020  20.984  0.00  0.00    +0.000 N 
ATOM      2  C   UNL     1       2.052   5.844  20.502  0.00  0.00    +0.000 C 
ATOM      3  N   UNL     1       1.467   4.769  20.909  0.00  0.00    +0.000 NA
ATOM      4  C   UNL     1       1.932   3.508  20.380  0.00  0.00    +0.000 C 
ATOM      5  C   UNL     1       0.786   2.918  19.549  0.00  0.00    +0.000 C 
ATOM      6  C   UNL     1       2.250   2.599  21.573  0.00  0.00    +0.000 C 
ATOM      7  N   UNL     1       3.078   3.569  19.527  0.00  0.00    +0.000 N 
ATOM      8  C   UNL     1       3.594   4.774  19.206  0.00  0.00    +0.000 C 
ATOM      9  N   UNL     1       4.660   4.672  18.353  0.00  0.00    +0.000 N 
ATOM     10  N   UNL     1       3.104   5.881  19.639  0.00  0.00    +0.000 NA
ATOM     11  H   UNL     1       0.693   6.864  21.485  0.00  0.00    +0.000 HD
ATOM     12  H   UNL     1       3.562   2.713  19.312  0.00  0.00    +0.000 HD
ATOM     13  H   UNL     1       4.776   3.814  17.838  0.00  0.00    +0.000 HD
ENDROOT
BRANCH   9  14
ATOM     14  C   UNL     1       5.738   5.568  18.257  0.00  0.00    +0.000 A 
ATOM     15  C   UNL     1       5.775   6.589  17.300  0.00  0.00    +0.000 A 
ATOM     16  C   UNL     1       6.866   7.456  17.209  0.00  0.00    +0.000 A 
ATOM     17  C   UNL     1       7.951   7.301  18.067  0.00  0.00    +0.000 A 
ATOM     18  C   UNL     1       7.943   6.278  19.011  0.00  0.00    +0.000 A 
ATOM     19  C   UNL     1       6.846   5.413  19.102  0.00  0.00    +0.000 A 
ENDBRANCH   9  14
BRANCH   1  20
ATOM     20  C   UNL     1       1.625   8.247  20.221  0.00  0.00    +0.000 C 
BRANCH  20  21
ATOM     21  C   UNL     1       0.753   9.322  20.869  0.00  0.00    +0.000 C 
BRANCH  21  22
ATOM     22  C   UNL     1      -0.297   8.713  21.800  0.00  0.00    +0.000 C 
BRANCH  22  23
ATOM     23  C   UNL     1      -0.639   9.651  22.956  0.00  0.00    +0.000 C 
BRANCH  23  24
ATOM     24  C   UNL     1      -0.401  11.106  22.554  0.00  0.00    +0.000 C 
BRANCH  24  25
ATOM     25  C   UNL     1      -1.566  11.991  22.988  0.00  0.00    +0.000 C 
BRANCH  25  27
ATOM     26  C   UNL     1      -1.687  12.670  20.574  0.00  0.00    +0.000 C 
ATOM     27  C   UNL     1      -2.487  12.310  21.814  0.00  0.00    +0.000 C 
ENDBRANCH  25  27
ENDBRANCH  24  25
ENDBRANCH  23  24
ENDBRANCH  22  23
ENDBRANCH  21  22
ENDBRANCH  20  21
ENDBRANCH   1  20
TORSDOF 8
ENDMDL
MODEL 6
REMARK VINA RESULT:      -7.4      2.216      6.613
REMARK  Name = 
REMARK  11 active torsions:
REMARK  status: ('A' for Active; 'I' for Inactive)
REMARK    1  A    between atoms: C_1  and  C_2
REMARK    2  A    between atoms: C_2  and  C_3
REMARK    3  A    between atoms: C_3  and  C_4
REMARK    4  A    between atoms: C_4  and  C_5
REMARK    5  A    between atoms: C_5  and  C_6
REMARK    6  A    between atoms: C_6  and  C_7
REMARK    7  A    between atoms: C_7  and  C_8
REMARK    8  A    between atoms: C_8  and  N_9
REMARK    9  A    between atoms: C_12  and  C_13
REMARK   10  A    between atoms: C_12  and  C_14
REMARK   11  A    between atoms: N_17  and  C_18
REMARK                            x       y       z     vdW  Elec       q    Type
REMARK                         _______ _______ _______ _____ _____    ______ ____
ROOT
ATOM      1  N   UNL     1       5.643   4.353  18.947  0.00  0.00    +0.000 N 
ATOM      2  C   UNL     1       4.381   4.276  19.459  0.00  0.00    +0.000 C 
ATOM      3  N   UNL     1       3.927   3.090  19.680  0.00  0.00    +0.000 NA
ATOM      4  C   UNL     1       2.612   2.972  20.269  0.00  0.00    +0.000 C 
ATOM      5  C   UNL     1       2.795   2.348  21.657  0.00  0.00    +0.000 C 
ATOM      6  C   UNL     1       1.789   2.044  19.368  0.00  0.00    +0.000 C 
ATOM      7  N   UNL     1       1.894   4.195  20.451  0.00  0.00    +0.000 N 
ATOM      8  C   UNL     1       2.499   5.364  20.151  0.00  0.00    +0.000 C 
ATOM      9  N   UNL     1       1.702   6.444  20.416  0.00  0.00    +0.000 N 
ATOM     10  N   UNL     1       3.702   5.431  19.699  0.00  0.00    +0.000 NA
ATOM     11  H   UNL     1       6.089   3.446  18.960  0.00  0.00    +0.000 HD
ATOM     12  H   UNL     1       0.909   4.148  20.652  0.00  0.00    +0.000 HD
ATOM     13  H   UNL     1       0.920   6.318  21.038  0.00  0.00    +0.000 HD
ENDROOT
BRANCH   9  14
ATOM     14  C   UNL     1       1.736   7.684  19.756  0.00  0.00    +0.000 A 
ATOM     15  C   UNL     1       1.182   8.842  20.316  0.00  0.00    +0.000 A 
ATOM     16  C   UNL     1       1.209  10.060  19.634  0.00  0.00    +0.000 A 
ATOM     17  C   UNL     1       1.776  10.134  18.365  0.00  0.00    +0.000 A 
ATOM     18  C   UNL     1       2.312   8.989  17.781  0.00  0.00    +0.000 A 
ATOM     19  C   UNL     1       2.288   7.771  18.469  0.00  0.00    +0.000 A 
ENDBRANCH   9  14
BRANCH   1  20
ATOM     20  C   UNL     1       6.510   5.479  19.219  0.00  0.00    +0.000 C 
BRANCH  20  21
ATOM     21  C   UNL     1       7.430   5.738  18.026  0.00  0.00    +0.000 C 
BRANCH  21  22
ATOM     22  C   UNL     1       7.392   4.585  17.021  0.00  0.00    +0.000 C 
BRANCH  22  23
ATOM     23  C   UNL     1       7.318   5.092  15.583  0.00  0.00    +0.000 C 
BRANCH  23  24
ATOM     24  C   UNL     1       5.865   5.315  15.166  0.00  0.00    +0.000 C 
BRANCH  24  25
ATOM     25  C   UNL     1       5.314   4.099  14.428  0.00  0.00    +0.000 C 
BRANCH  25  27
ATOM     26  C   UNL     1       5.374   3.276  12.057  0.00  0.00    +0.000 C 
ATOM     27  C   UNL     1       6.205   3.714  13.251  0.00  0.00    +0.000 C 
ENDBRANCH  25  27
ENDBRANCH  24  25
ENDBRANCH  23  24
ENDBRANCH  22  23
ENDBRANCH  21  22
ENDBRANCH  20  21
ENDBRANCH   1  20
TORSDOF 8
ENDMDL
MODEL 7
REMARK VINA RESULT:      -7.4      2.219      7.173
REMARK  Name = 
REMARK  11 active torsions:
REMARK  status: ('A' for Active; 'I' for Inactive)
REMARK    1  A    between atoms: C_1  and  C_2
REMARK    2  A    between atoms: C_2  and  C_3
REMARK    3  A    between atoms: C_3  and  C_4
REMARK    4  A    between atoms: C_4  and  C_5
REMARK    5  A    between atoms: C_5  and  C_6
REMARK    6  A    between atoms: C_6  and  C_7
REMARK    7  A    between atoms: C_7  and  C_8
REMARK    8  A    between atoms: C_8  and  N_9
REMARK    9  A    between atoms: C_12  and  C_13
REMARK   10  A    between atoms: C_12  and  C_14
REMARK   11  A    between atoms: N_17  and  C_18
REMARK                            x       y       z     vdW  Elec       q    Type
REMARK                         _______ _______ _______ _____ _____    ______ ____
ROOT
ATOM      1  N   UNL     1       5.388   5.602  16.880  0.00  0.00    +0.000 N 
ATOM      2  C   UNL     1       4.518   5.124  17.813  0.00  0.00    +0.000 C 
ATOM      3  N   UNL     1       4.400   3.841  17.878  0.00  0.00    +0.000 NA
ATOM      4  C   UNL     1       3.523   3.296  18.890  0.00  0.00    +0.000 C 
ATOM      5  C   UNL     1       4.402   2.513  19.872  0.00  0.00    +0.000 C 
ATOM      6  C   UNL     1       2.538   2.356  18.185  0.00  0.00    +0.000 C 
ATOM      7  N   UNL     1       2.783   4.248  19.658  0.00  0.00    +0.000 N 
ATOM      8  C   UNL     1       3.001   5.566  19.459  0.00  0.00    +0.000 C 
ATOM      9  N   UNL     1       2.251   6.348  20.294  0.00  0.00    +0.000 N 
ATOM     10  N   UNL     1       3.848   6.011  18.599  0.00  0.00    +0.000 NA
ATOM     11  H   UNL     1       5.927   4.849  16.475  0.00  0.00    +0.000 HD
ATOM     12  H   UNL     1       2.012   3.920  20.216  0.00  0.00    +0.000 HD
ATOM     13  H   UNL     1       1.860   5.924  21.120  0.00  0.00    +0.000 HD
ENDROOT
BRANCH   9  14
ATOM     14  C   UNL     1       1.794   7.650  20.027  0.00  0.00    +0.000 A 
ATOM     15  C   UNL     1       1.916   8.237  18.762  0.00  0.00    +0.000 A 
ATOM     16  C   UNL     1       1.473   9.540  18.524  0.00  0.00    +0.000 A 
ATOM     17  C   UNL     1       0.916  10.285  19.559  0.00  0.00    +0.000 A 
ATOM     18  C   UNL     1       0.806   9.728  20.830  0.00  0.00    +0.000 A 
ATOM     19  C   UNL     1       1.246   8.420  21.064  0.00  0.00    +0.000 A 
ENDBRANCH   9  14
BRANCH   1  20
ATOM     20  C   UNL     1       6.100   6.849  17.067  0.00  0.00    +0.000 C 
BRANCH  20  21
ATOM     21  C   UNL     1       7.577   6.577  17.351  0.00  0.00    +0.000 C 
BRANCH  21  22
ATOM     22  C   UNL     1       8.148   7.562  18.372  0.00  0.00    +0.000 C 
BRANCH  22  23
ATOM     23  C   UNL     1       8.078   9.002  17.869  0.00  0.00    +0.000 C 
BRANCH  23  24
ATOM     24  C   UNL     1       8.944   9.916  18.736  0.00  0.00    +0.000 C 
BRANCH  24  25
ATOM     25  C   UNL     1       9.042  11.313  18.130  0.00  0.00    +0.000 C 
BRANCH  25  27
ATOM     26  C   UNL     1      11.313  11.469  19.189  0.00  0.00    +0.000 C 
ATOM     27  C   UNL     1      10.497  11.731  17.935  0.00  0.00    +0.000 C 
ENDBRANCH  25  27
ENDBRANCH  24  25
ENDBRANCH  23  24
ENDBRANCH  22  23
ENDBRANCH  21  22
ENDBRANCH  20  21
ENDBRANCH   1  20
TORSDOF 8
ENDMDL
MODEL 8
REMARK VINA RESULT:      -7.4      3.038      7.320
REMARK  Name = 
REMARK  11 active torsions:
REMARK  status: ('A' for Active; 'I' for Inactive)
REMARK    1  A    between atoms: C_1  and  C_2
REMARK    2  A    between atoms: C_2  and  C_3
REMARK    3  A    between atoms: C_3  and  C_4
REMARK    4  A    between atoms: C_4  and  C_5
REMARK    5  A    between atoms: C_5  and  C_6
REMARK    6  A    between atoms: C_6  and  C_7
REMARK    7  A    between atoms: C_7  and  C_8
REMARK    8  A    between atoms: C_8  and  N_9
REMARK    9  A    between atoms: C_12  and  C_13
REMARK   10  A    between atoms: C_12  and  C_14
REMARK   11  A    between atoms: N_17  and  C_18
REMARK                            x       y       z     vdW  Elec       q    Type
REMARK                         _______ _______ _______ _____ _____    ______ ____
ROOT
ATOM      1  N   UNL     1       4.491   5.101  16.667  0.00  0.00    +0.000 N 
ATOM      2  C   UNL     1       3.819   4.803  17.815  0.00  0.00    +0.000 C 
ATOM      3  N   UNL     1       3.672   3.550  18.082  0.00  0.00    +0.000 NA
ATOM      4  C   UNL     1       3.009   3.198  19.317  0.00  0.00    +0.000 C 
ATOM      5  C   UNL     1       4.045   2.496  20.201  0.00  0.00    +0.000 C 
ATOM      6  C   UNL     1       1.866   2.238  18.965  0.00  0.00    +0.000 C 
ATOM      7  N   UNL     1       2.479   4.287  20.078  0.00  0.00    +0.000 N 
ATOM      8  C   UNL     1       2.696   5.551  19.655  0.00  0.00    +0.000 C 
ATOM      9  N   UNL     1       2.164   6.481  20.506  0.00  0.00    +0.000 N 
ATOM     10  N   UNL     1       3.359   5.825  18.588  0.00  0.00    +0.000 NA
ATOM     11  H   UNL     1       4.907   4.269  16.271  0.00  0.00    +0.000 HD
ATOM     12  H   UNL     1       1.831   4.083  20.820  0.00  0.00    +0.000 HD
ATOM     13  H   UNL     1       1.940   6.194  21.445  0.00  0.00    +0.000 HD
ENDROOT
BRANCH   9  14
ATOM     14  C   UNL     1       1.707   7.763  20.157  0.00  0.00    +0.000 A 
ATOM     15  C   UNL     1       1.927   8.312  18.888  0.00  0.00    +0.000 A 
ATOM     16  C   UNL     1       1.481   9.596  18.569  0.00  0.00    +0.000 A 
ATOM     17  C   UNL     1       0.822  10.362  19.527  0.00  0.00    +0.000 A 
ATOM     18  C   UNL     1       0.614   9.843  20.802  0.00  0.00    +0.000 A 
ATOM     19  C   UNL     1       1.057   8.554  21.117  0.00  0.00    +0.000 A 
ENDBRANCH   9  14
BRANCH   1  20
ATOM     20  C   UNL     1       5.269   6.313  16.529  0.00  0.00    +0.000 C 
BRANCH  20  21
ATOM     21  C   UNL     1       6.756   5.979  16.426  0.00  0.00    +0.000 C 
BRANCH  21  22
ATOM     22  C   UNL     1       6.986   4.616  15.770  0.00  0.00    +0.000 C 
BRANCH  22  23
ATOM     23  C   UNL     1       7.037   4.724  14.247  0.00  0.00    +0.000 C 
BRANCH  23  24
ATOM     24  C   UNL     1       5.973   3.832  13.610  0.00  0.00    +0.000 C 
BRANCH  24  25
ATOM     25  C   UNL     1       6.303   3.544  12.148  0.00  0.00    +0.000 C 
BRANCH  25  27
ATOM     26  C   UNL     1       6.568   1.273  11.112  0.00  0.00    +0.000 C 
ATOM     27  C   UNL     1       5.582   2.293  11.653  0.00  0.00    +0.000 C 
ENDBRANCH  25  27
ENDBRANCH  24  25
ENDBRANCH  23  24
ENDBRANCH  22  23
ENDBRANCH  21  22
ENDBRANCH  20  21
ENDBRANCH   1  20
TORSDOF 8
ENDMDL
MODEL 9
REMARK VINA RESULT:      -7.3      2.682      6.846
REMARK  Name = 
REMARK  11 active torsions:
REMARK  status: ('A' for Active; 'I' for Inactive)
REMARK    1  A    between atoms: C_1  and  C_2
REMARK    2  A    between atoms: C_2  and  C_3
REMARK    3  A    between atoms: C_3  and  C_4
REMARK    4  A    between atoms: C_4  and  C_5
REMARK    5  A    between atoms: C_5  and  C_6
REMARK    6  A    between atoms: C_6  and  C_7
REMARK    7  A    between atoms: C_7  and  C_8
REMARK    8  A    between atoms: C_8  and  N_9
REMARK    9  A    between atoms: C_12  and  C_13
REMARK   10  A    between atoms: C_12  and  C_14
REMARK   11  A    between atoms: N_17  and  C_18
REMARK                            x       y       z     vdW  Elec       q    Type
REMARK                         _______ _______ _______ _____ _____    ______ ____
ROOT
ATOM      1  N   UNL     1       4.885   4.353  18.370  0.00  0.00    +0.000 N 
ATOM      2  C   UNL     1       3.771   4.414  19.153  0.00  0.00    +0.000 C 
ATOM      3  N   UNL     1       3.280   3.285  19.536  0.00  0.00    +0.000 NA
ATOM      4  C   UNL     1       2.129   3.313  20.409  0.00  0.00    +0.000 C 
ATOM      5  C   UNL     1       2.569   2.723  21.754  0.00  0.00    +0.000 C 
ATOM      6  C   UNL     1       1.047   2.435  19.768  0.00  0.00    +0.000 C 
ATOM      7  N   UNL     1       1.576   4.603  20.679  0.00  0.00    +0.000 N 
ATOM      8  C   UNL     1       2.194   5.698  20.186  0.00  0.00    +0.000 C 
ATOM      9  N   UNL     1       1.572   6.858  20.561  0.00  0.00    +0.000 N 
ATOM     10  N   UNL     1       3.263   5.635  19.475  0.00  0.00    +0.000 NA
ATOM     11  H   UNL     1       5.244   3.409  18.334  0.00  0.00    +0.000 HD
ATOM     12  H   UNL     1       0.662   4.657  21.096  0.00  0.00    +0.000 HD
ATOM     13  H   UNL     1       0.944   6.828  21.348  0.00  0.00    +0.000 HD
ENDROOT
BRANCH   9  14
ATOM     14  C   UNL     1       1.559   8.065  19.843  0.00  0.00    +0.000 A 
ATOM     15  C   UNL     1       2.127   8.180  18.569  0.00  0.00    +0.000 A 
ATOM     16  C   UNL     1       2.121   9.395  17.880  0.00  0.00    +0.000 A 
ATOM     17  C   UNL     1       1.561  10.525  18.469  0.00  0.00    +0.000 A 
ATOM     18  C   UNL     1       1.011  10.438  19.745  0.00  0.00    +0.000 A 
ATOM     19  C   UNL     1       1.014   9.217  20.430  0.00  0.00    +0.000 A 
ENDBRANCH   9  14
BRANCH   1  20
ATOM     20  C   UNL     1       5.883   5.401  18.378  0.00  0.00    +0.000 C 
BRANCH  20  21
ATOM     21  C   UNL     1       6.897   5.175  17.256  0.00  0.00    +0.000 C 
BRANCH  21  22
ATOM     22  C   UNL     1       6.265   5.363  15.876  0.00  0.00    +0.000 C 
BRANCH  22  23
ATOM     23  C   UNL     1       6.660   4.244  14.916  0.00  0.00    +0.000 C 
BRANCH  23  24
ATOM     24  C   UNL     1       5.640   4.123  13.784  0.00  0.00    +0.000 C 
BRANCH  24  25
ATOM     25  C   UNL     1       6.298   3.604  12.508  0.00  0.00    +0.000 C 
BRANCH  25  27
ATOM     26  C   UNL     1       4.145   3.240  11.268  0.00  0.00    +0.000 C 
ATOM     27  C   UNL     1       5.408   2.585  11.801  0.00  0.00    +0.000 C 
ENDBRANCH  25  27
ENDBRANCH  24  25
ENDBRANCH  23  24
ENDBRANCH  22  23
ENDBRANCH  21  22
ENDBRANCH  20  21
ENDBRANCH   1  20
TORSDOF 8
ENDMDL
