MODEL 1
REMARK VINA RESULT:      -6.1      0.000      0.000
REMARK  Name = 
REMARK  3 active torsions:
REMARK  status: ('A' for Active; 'I' for Inactive)
REMARK    1  A    between atoms: C_1  and  C_2
REMARK    2  A    between atoms: C_2  and  C_3
REMARK    3  A    between atoms: N_5  and  C_6
REMARK                            x       y       z     vdW  Elec       q    Type
REMARK                         _______ _______ _______ _____ _____    ______ ____
ROOT
ATOM      1  C   UNL     1       4.233   4.517  17.257  0.00  0.00    +0.000 A 
ATOM      2  C   UNL     1       4.926   3.439  16.672  0.00  0.00    +0.000 A 
ATOM      3  C   UNL     1       5.844   3.624  15.639  0.00  0.00    +0.000 A 
ATOM      4  C   UNL     1       6.088   4.903  15.165  0.00  0.00    +0.000 A 
ATOM      5 BR   UNL     1       7.320   5.169  13.761  0.00  0.00    +0.000 Br
ATOM      6  C   UNL     1       5.440   5.995  15.734  0.00  0.00    +0.000 A 
ATOM      7  C   UNL     1       4.524   5.811  16.781  0.00  0.00    +0.000 A 
ATOM      8 BR   UNL     1       3.801   7.427  17.483  0.00  0.00    +0.000 Br
ENDROOT
BRANCH   1  13
ATOM      9  C   UNL     1       1.133   4.809  20.558  0.00  0.00    +0.000 C 
ATOM     10  C   UNL     1       1.923   3.782  19.758  0.00  0.00    +0.000 C 
ATOM     11  C   UNL     1       1.524   2.349  20.089  0.00  0.00    +0.000 C 
ATOM     12  C   UNL     1       3.459   3.997  19.705  0.00  0.00    +0.000 C 
ATOM     13  N   UNL     1       3.314   4.232  18.275  0.00  0.00    +0.000 N 
ATOM     14  C   UNL     1       1.964   4.086  18.249  0.00  0.00    +0.000 C 
ATOM     15  O   UNL     1       1.124   4.164  17.377  0.00  0.00    +0.000 OA
ENDBRANCH   1  13
TORSDOF 1
ENDMDL
MODEL 2
REMARK VINA RESULT:      -5.8      2.930      5.638
REMARK  Name = 
REMARK  3 active torsions:
REMARK  status: ('A' for Active; 'I' for Inactive)
REMARK    1  A    between atoms: C_1  and  C_2
REMARK    2  A    between atoms: C_2  and  C_3
REMARK    3  A    between atoms: N_5  and  C_6
REMARK                            x       y       z     vdW  Elec       q    Type
REMARK                         _______ _______ _______ _____ _____    ______ ____
ROOT
ATOM      1  C   UNL     1       4.341   4.597  18.888  0.00  0.00    +0.000 A 
ATOM      2  C   UNL     1       4.532   3.270  19.323  0.00  0.00    +0.000 A 
ATOM      3  C   UNL     1       3.647   2.647  20.203  0.00  0.00    +0.000 A 
ATOM      4  C   UNL     1       2.546   3.346  20.670  0.00  0.00    +0.000 A 
ATOM      5 BR   UNL     1       1.346   2.520  21.870  0.00  0.00    +0.000 Br
ATOM      6  C   UNL     1       2.313   4.649  20.245  0.00  0.00    +0.000 A 
ATOM      7  C   UNL     1       3.196   5.274  19.351  0.00  0.00    +0.000 A 
ATOM      8 BR   UNL     1       2.668   7.025  18.822  0.00  0.00    +0.000 Br
ENDROOT
BRANCH   1  13
ATOM      9  C   UNL     1       7.478   7.237  16.944  0.00  0.00    +0.000 C 
ATOM     10  C   UNL     1       6.736   5.924  16.734  0.00  0.00    +0.000 C 
ATOM     11  C   UNL     1       7.225   5.163  15.508  0.00  0.00    +0.000 C 
ATOM     12  C   UNL     1       5.189   5.993  16.841  0.00  0.00    +0.000 C 
ATOM     13  N   UNL     1       5.294   5.146  18.020  0.00  0.00    +0.000 N 
ATOM     14  C   UNL     1       6.650   5.064  18.009  0.00  0.00    +0.000 C 
ATOM     15  O   UNL     1       7.467   4.524  18.724  0.00  0.00    +0.000 OA
ENDBRANCH   1  13
TORSDOF 1
ENDMDL
MODEL 3
REMARK VINA RESULT:      -5.8      1.097      1.593
REMARK  Name = 
REMARK  3 active torsions:
REMARK  status: ('A' for Active; 'I' for Inactive)
REMARK    1  A    between atoms: C_1  and  C_2
REMARK    2  A    between atoms: C_2  and  C_3
REMARK    3  A    between atoms: N_5  and  C_6
REMARK                            x       y       z     vdW  Elec       q    Type
REMARK                         _______ _______ _______ _____ _____    ______ ____
ROOT
ATOM      1  C   UNL     1       4.123   4.507  17.119  0.00  0.00    +0.000 A 
ATOM      2  C   UNL     1       4.798   3.437  16.498  0.00  0.00    +0.000 A 
ATOM      3  C   UNL     1       5.792   3.647  15.541  0.00  0.00    +0.000 A 
ATOM      4  C   UNL     1       6.131   4.942  15.184  0.00  0.00    +0.000 A 
ATOM      5 BR   UNL     1       7.465   5.241  13.884  0.00  0.00    +0.000 Br
ATOM      6  C   UNL     1       5.503   6.023  15.793  0.00  0.00    +0.000 A 
ATOM      7  C   UNL     1       4.511   5.814  16.764  0.00  0.00    +0.000 A 
ATOM      8 BR   UNL     1       3.826   7.411  17.541  0.00  0.00    +0.000 Br
ENDROOT
BRANCH   1  13
ATOM      9  C   UNL     1       0.925   2.427  19.576  0.00  0.00    +0.000 C 
ATOM     10  C   UNL     1       1.671   3.751  19.474  0.00  0.00    +0.000 C 
ATOM     11  C   UNL     1       1.310   4.715  20.599  0.00  0.00    +0.000 C 
ATOM     12  C   UNL     1       1.685   4.416  18.072  0.00  0.00    +0.000 C 
ATOM     13  N   UNL     1       3.125   4.199  18.053  0.00  0.00    +0.000 N 
ATOM     14  C   UNL     1       3.187   3.581  19.261  0.00  0.00    +0.000 C 
ATOM     15  O   UNL     1       4.085   3.090  19.911  0.00  0.00    +0.000 OA
ENDBRANCH   1  13
TORSDOF 1
ENDMDL
MODEL 4
REMARK VINA RESULT:      -5.7      1.839      2.162
REMARK  Name = 
REMARK  3 active torsions:
REMARK  status: ('A' for Active; 'I' for Inactive)
REMARK    1  A    between atoms: C_1  and  C_2
REMARK    2  A    between atoms: C_2  and  C_3
REMARK    3  A    between atoms: N_5  and  C_6
REMARK                            x       y       z     vdW  Elec       q    Type
REMARK                         _______ _______ _______ _____ _____    ______ ____
ROOT
ATOM      1  C   UNL     1       4.921   4.411  17.089  0.00  0.00    +0.000 A 
ATOM      2  C   UNL     1       4.621   3.990  15.778  0.00  0.00    +0.000 A 
ATOM      3  C   UNL     1       5.490   4.219  14.711  0.00  0.00    +0.000 A 
ATOM      4  C   UNL     1       6.686   4.882  14.937  0.00  0.00    +0.000 A 
ATOM      5 BR   UNL     1       7.867   5.209  13.502  0.00  0.00    +0.000 Br
ATOM      6  C   UNL     1       7.027   5.291  16.222  0.00  0.00    +0.000 A 
ATOM      7  C   UNL     1       6.158   5.052  17.298  0.00  0.00    +0.000 A 
ATOM      8 BR   UNL     1       6.832   5.611  18.989  0.00  0.00    +0.000 Br
ENDROOT
BRANCH   1  13
ATOM      9  C   UNL     1       1.676   2.573  19.674  0.00  0.00    +0.000 C 
ATOM     10  C   UNL     1       2.609   3.776  19.615  0.00  0.00    +0.000 C 
ATOM     11  C   UNL     1       2.510   4.656  20.856  0.00  0.00    +0.000 C 
ATOM     12  C   UNL     1       2.598   4.579  18.287  0.00  0.00    +0.000 C 
ATOM     13  N   UNL     1       3.977   4.155  18.092  0.00  0.00    +0.000 N 
ATOM     14  C   UNL     1       4.053   3.408  19.224  0.00  0.00    +0.000 C 
ATOM     15  O   UNL     1       4.918   2.723  19.726  0.00  0.00    +0.000 OA
ENDBRANCH   1  13
TORSDOF 1
ENDMDL
MODEL 5
REMARK VINA RESULT:      -5.7      1.524      1.584
REMARK  Name = 
REMARK  3 active torsions:
REMARK  status: ('A' for Active; 'I' for Inactive)
REMARK    1  A    between atoms: C_1  and  C_2
REMARK    2  A    between atoms: C_2  and  C_3
REMARK    3  A    between atoms: N_5  and  C_6
REMARK                            x       y       z     vdW  Elec       q    Type
REMARK                         _______ _______ _______ _____ _____    ______ ____
ROOT
ATOM      1  C   UNL     1       5.156   4.345  17.064  0.00  0.00    +0.000 A 
ATOM      2  C   UNL     1       4.809   3.896  15.774  0.00  0.00    +0.000 A 
ATOM      3  C   UNL     1       5.608   4.158  14.661  0.00  0.00    +0.000 A 
ATOM      4  C   UNL     1       6.779   4.882  14.819  0.00  0.00    +0.000 A 
ATOM      5 BR   UNL     1       7.866   5.254  13.321  0.00  0.00    +0.000 Br
ATOM      6  C   UNL     1       7.166   5.321  16.080  0.00  0.00    +0.000 A 
ATOM      7  C   UNL     1       6.368   5.049  17.203  0.00  0.00    +0.000 A 
ATOM      8 BR   UNL     1       7.101   5.659  18.851  0.00  0.00    +0.000 Br
ENDROOT
BRANCH   1  13
ATOM      9  C   UNL     1       2.669   4.506  20.856  0.00  0.00    +0.000 C 
ATOM     10  C   UNL     1       2.945   3.613  19.654  0.00  0.00    +0.000 C 
ATOM     11  C   UNL     1       2.059   2.372  19.629  0.00  0.00    +0.000 C 
ATOM     12  C   UNL     1       4.438   3.310  19.361  0.00  0.00    +0.000 C 
ATOM     13  N   UNL     1       4.281   4.052  18.118  0.00  0.00    +0.000 N 
ATOM     14  C   UNL     1       2.978   4.381  18.319  0.00  0.00    +0.000 C 
ATOM     15  O   UNL     1       2.166   5.026  17.692  0.00  0.00    +0.000 OA
ENDBRANCH   1  13
TORSDOF 1
ENDMDL
MODEL 6
REMARK VINA RESULT:      -5.5      2.504      5.586
REMARK  Name = 
REMARK  3 active torsions:
REMARK  status: ('A' for Active; 'I' for Inactive)
REMARK    1  A    between atoms: C_1  and  C_2
REMARK    2  A    between atoms: C_2  and  C_3
REMARK    3  A    between atoms: N_5  and  C_6
REMARK                            x       y       z     vdW  Elec       q    Type
REMARK                         _______ _______ _______ _____ _____    ______ ____
ROOT
ATOM      1  C   UNL     1       4.480   4.314  17.324  0.00  0.00    +0.000 A 
ATOM      2  C   UNL     1       3.156   3.836  17.272  0.00  0.00    +0.000 A 
ATOM      3  C   UNL     1       2.362   3.734  18.416  0.00  0.00    +0.000 A 
ATOM      4  C   UNL     1       2.885   4.110  19.643  0.00  0.00    +0.000 A 
ATOM      5 BR   UNL     1       1.828   3.967  21.200  0.00  0.00    +0.000 Br
ATOM      6  C   UNL     1       4.181   4.607  19.729  0.00  0.00    +0.000 A 
ATOM      7  C   UNL     1       4.976   4.721  18.578  0.00  0.00    +0.000 A 
ATOM      8 BR   UNL     1       6.688   5.497  18.881  0.00  0.00    +0.000 Br
ENDROOT
BRANCH   1  13
ATOM      9  C   UNL     1       5.730   4.273  12.962  0.00  0.00    +0.000 C 
ATOM     10  C   UNL     1       6.302   4.473  14.359  0.00  0.00    +0.000 C 
ATOM     11  C   UNL     1       7.774   4.866  14.339  0.00  0.00    +0.000 C 
ATOM     12  C   UNL     1       5.973   3.363  15.393  0.00  0.00    +0.000 C 
ATOM     13  N   UNL     1       5.207   4.361  16.127  0.00  0.00    +0.000 N 
ATOM     14  C   UNL     1       5.427   5.375  15.251  0.00  0.00    +0.000 C 
ATOM     15  O   UNL     1       5.073   6.533  15.196  0.00  0.00    +0.000 OA
ENDBRANCH   1  13
TORSDOF 1
ENDMDL
MODEL 7
REMARK VINA RESULT:      -5.4      2.440      2.575
REMARK  Name = 
REMARK  3 active torsions:
REMARK  status: ('A' for Active; 'I' for Inactive)
REMARK    1  A    between atoms: C_1  and  C_2
REMARK    2  A    between atoms: C_2  and  C_3
REMARK    3  A    between atoms: N_5  and  C_6
REMARK                            x       y       z     vdW  Elec       q    Type
REMARK                         _______ _______ _______ _____ _____    ______ ____
ROOT
ATOM      1  C   UNL     1       4.173   5.138  18.946  0.00  0.00    +0.000 A 
ATOM      2  C   UNL     1       5.503   4.773  19.235  0.00  0.00    +0.000 A 
ATOM      3  C   UNL     1       6.590   5.517  18.776  0.00  0.00    +0.000 A 
ATOM      4  C   UNL     1       6.364   6.649  18.009  0.00  0.00    +0.000 A 
ATOM      5 BR   UNL     1       7.825   7.660  17.371  0.00  0.00    +0.000 Br
ATOM      6  C   UNL     1       5.065   7.053  17.723  0.00  0.00    +0.000 A 
ATOM      7  C   UNL     1       3.970   6.311  18.193  0.00  0.00    +0.000 A 
ATOM      8 BR   UNL     1       2.273   7.063  17.770  0.00  0.00    +0.000 Br
ENDROOT
BRANCH   1  13
ATOM      9  C   UNL     1       0.502   2.502  19.351  0.00  0.00    +0.000 C 
ATOM     10  C   UNL     1       1.654   3.067  20.171  0.00  0.00    +0.000 C 
ATOM     11  C   UNL     1       1.667   2.545  21.602  0.00  0.00    +0.000 C 
ATOM     12  C   UNL     1       1.870   4.601  20.071  0.00  0.00    +0.000 C 
ATOM     13  N   UNL     1       3.147   4.317  19.433  0.00  0.00    +0.000 N 
ATOM     14  C   UNL     1       3.016   2.965  19.458  0.00  0.00    +0.000 C 
ATOM     15  O   UNL     1       3.703   2.045  19.070  0.00  0.00    +0.000 OA
ENDBRANCH   1  13
TORSDOF 1
ENDMDL
MODEL 8
REMARK VINA RESULT:      -5.4      2.470      2.578
REMARK  Name = 
REMARK  3 active torsions:
REMARK  status: ('A' for Active; 'I' for Inactive)
REMARK    1  A    between atoms: C_1  and  C_2
REMARK    2  A    between atoms: C_2  and  C_3
REMARK    3  A    between atoms: N_5  and  C_6
REMARK                            x       y       z     vdW  Elec       q    Type
REMARK                         _______ _______ _______ _____ _____    ______ ____
ROOT
ATOM      1  C   UNL     1       4.268   5.138  19.009  0.00  0.00    +0.000 A 
ATOM      2  C   UNL     1       5.607   4.839  19.327  0.00  0.00    +0.000 A 
ATOM      3  C   UNL     1       6.671   5.592  18.829  0.00  0.00    +0.000 A 
ATOM      4  C   UNL     1       6.411   6.668  17.994  0.00  0.00    +0.000 A 
ATOM      5 BR   UNL     1       7.840   7.690  17.304  0.00  0.00    +0.000 Br
ATOM      6  C   UNL     1       5.101   7.007  17.677  0.00  0.00    +0.000 A 
ATOM      7  C   UNL     1       4.029   6.257  18.186  0.00  0.00    +0.000 A 
ATOM      8 BR   UNL     1       2.310   6.921  17.709  0.00  0.00    +0.000 Br
ENDROOT
BRANCH   1  13
ATOM      9  C   UNL     1       1.763   2.481  21.702  0.00  0.00    +0.000 C 
ATOM     10  C   UNL     1       1.751   3.119  20.320  0.00  0.00    +0.000 C 
ATOM     11  C   UNL     1       0.445   2.872  19.572  0.00  0.00    +0.000 C 
ATOM     12  C   UNL     1       3.014   2.881  19.451  0.00  0.00    +0.000 C 
ATOM     13  N   UNL     1       3.268   4.312  19.539  0.00  0.00    +0.000 N 
ATOM     14  C   UNL     1       2.197   4.593  20.326  0.00  0.00    +0.000 C 
ATOM     15  O   UNL     1       1.765   5.607  20.831  0.00  0.00    +0.000 OA
ENDBRANCH   1  13
TORSDOF 1
ENDMDL
MODEL 9
REMARK VINA RESULT:      -5.3      3.106      5.653
REMARK  Name = 
REMARK  3 active torsions:
REMARK  status: ('A' for Active; 'I' for Inactive)
REMARK    1  A    between atoms: C_1  and  C_2
REMARK    2  A    between atoms: C_2  and  C_3
REMARK    3  A    between atoms: N_5  and  C_6
REMARK                            x       y       z     vdW  Elec       q    Type
REMARK                         _______ _______ _______ _____ _____    ______ ____
ROOT
ATOM      1  C   UNL     1       3.578   6.270  17.979  0.00  0.00    +0.000 A 
ATOM      2  C   UNL     1       3.184   7.587  17.668  0.00  0.00    +0.000 A 
ATOM      3  C   UNL     1       2.349   8.326  18.507  0.00  0.00    +0.000 A 
ATOM      4  C   UNL     1       1.886   7.755  19.681  0.00  0.00    +0.000 A 
ATOM      5 BR   UNL     1       0.746   8.738  20.820  0.00  0.00    +0.000 Br
ATOM      6  C   UNL     1       2.272   6.466  20.033  0.00  0.00    +0.000 A 
ATOM      7  C   UNL     1       3.121   5.725  19.196  0.00  0.00    +0.000 A 
ATOM      8 BR   UNL     1       3.603   4.016  19.882  0.00  0.00    +0.000 Br
ENDROOT
BRANCH   1  13
ATOM      9  C   UNL     1       5.393   4.468  14.231  0.00  0.00    +0.000 C 
ATOM     10  C   UNL     1       5.661   4.629  15.722  0.00  0.00    +0.000 C 
ATOM     11  C   UNL     1       7.021   4.078  16.135  0.00  0.00    +0.000 C 
ATOM     12  C   UNL     1       4.509   4.202  16.669  0.00  0.00    +0.000 C 
ATOM     13  N   UNL     1       4.402   5.599  17.067  0.00  0.00    +0.000 N 
ATOM     14  C   UNL     1       5.380   6.052  16.241  0.00  0.00    +0.000 C 
ATOM     15  O   UNL     1       5.846   7.146  16.008  0.00  0.00    +0.000 OA
ENDBRANCH   1  13
TORSDOF 1
ENDMDL
