MODEL 1
REMARK VINA RESULT:      -7.7      0.000      0.000
REMARK  Name = 
REMARK  7 active torsions:
REMARK  status: ('A' for Active; 'I' for Inactive)
REMARK    1  A    between atoms: C_1  and  C_2
REMARK    2  A    between atoms: C_5  and  C_7
REMARK    3  A    between atoms: C_7  and  C_8
REMARK    4  A    between atoms: C_16  and  C_17
REMARK    5  A    between atoms: C_20  and  N_21
REMARK    6  A    between atoms: N_21  and  C_22
REMARK    7  A    between atoms: N_21  and  C_23
REMARK                            x       y       z     vdW  Elec       q    Type
REMARK                         _______ _______ _______ _____ _____    ______ ____
ROOT
ATOM      1  C   UNL     1      -0.446  10.003  22.868  0.00  0.00    +0.000 C 
ATOM      2  C   UNL     1       0.229   9.830  21.555  0.00  0.00    +0.000 A 
ATOM      3  N   UNL     1       0.700   8.625  21.222  0.00  0.00    +0.000 NA
ATOM      4  N   UNL     1       1.333   8.805  20.030  0.00  0.00    +0.000 N 
ATOM      5  C   UNL     1       2.017   7.739  19.423  0.00  0.00    +0.000 C 
ATOM      6  O   UNL     1       2.817   7.970  18.522  0.00  0.00    +0.000 OA
ATOM      7  C   UNL     1       1.243  10.125  19.625  0.00  0.00    +0.000 A 
ATOM      8  C   UNL     1       0.471  10.794  20.542  0.00  0.00    +0.000 A 
ATOM      9  C   UNL     1       0.127  12.246  20.464  0.00  0.00    +0.000 C 
ATOM     10  S   UNL     1       0.569  13.062  18.898  0.00  0.00    +0.000 S 
ATOM     11  C   UNL     1       1.819  12.015  18.265  0.00  0.00    +0.000 C 
ATOM     12  N   UNL     1       2.697  12.580  17.510  0.00  0.00    +0.000 NA
ATOM     13  N   UNL     1       1.831  10.678  18.540  0.00  0.00    +0.000 N 
ATOM     14  H   UNL     1       2.456  13.580  17.484  0.00  0.00    +0.000 HD
ATOM     15  H   UNL     1       2.526  10.156  18.004  0.00  0.00    +0.000 HD
ENDROOT
BRANCH   9  16
ATOM     16  C   UNL     1      -1.364  12.349  20.733  0.00  0.00    +0.000 A 
ATOM     17  C   UNL     1      -2.275  12.087  19.706  0.00  0.00    +0.000 A 
ATOM     18  C   UNL     1      -3.653  12.265  19.901  0.00  0.00    +0.000 A 
ATOM     19  C   UNL     1      -4.198  12.683  21.129  0.00  0.00    +0.000 A 
ATOM     20  C   UNL     1      -3.272  12.895  22.160  0.00  0.00    +0.000 A 
ATOM     21  C   UNL     1      -1.888  12.733  21.975  0.00  0.00    +0.000 A 
BRANCH  19  22
ATOM     22  N   UNL     1      -5.556  12.913  21.275  0.00  0.00    +0.000 N 
ATOM     23  C   UNL     1      -6.552  11.935  20.849  0.00  0.00    +0.000 C 
ATOM     24  C   UNL     1      -6.081  13.981  22.124  0.00  0.00    +0.000 C 
ENDBRANCH  19  22
ENDBRANCH   9  16
BRANCH   5  25
ATOM     25  C   UNL     1       1.609   6.361  19.910  0.00  0.00    +0.000 C 
BRANCH  25  26
ATOM     26  C   UNL     1       2.348   5.257  19.186  0.00  0.00    +0.000 A 
ATOM     27  C   UNL     1       3.607   4.834  19.636  0.00  0.00    +0.000 A 
ATOM     28  C   UNL     1       4.294   3.817  18.971  0.00  0.00    +0.000 A 
ATOM     29  C   UNL     1       3.730   3.203  17.857  0.00  0.00    +0.000 A 
ATOM     30  C   UNL     1       2.479   3.605  17.409  0.00  0.00    +0.000 A 
ATOM     31  C   UNL     1       1.790   4.632  18.060  0.00  0.00    +0.000 A 
ENDBRANCH  25  26
ENDBRANCH   5  25
TORSDOF 4
ENDMDL
MODEL 2
REMARK VINA RESULT:      -7.7      1.054      1.277
REMARK  Name = 
REMARK  7 active torsions:
REMARK  status: ('A' for Active; 'I' for Inactive)
REMARK    1  A    between atoms: C_1  and  C_2
REMARK    2  A    between atoms: C_5  and  C_7
REMARK    3  A    between atoms: C_7  and  C_8
REMARK    4  A    between atoms: C_16  and  C_17
REMARK    5  A    between atoms: C_20  and  N_21
REMARK    6  A    between atoms: N_21  and  C_22
REMARK    7  A    between atoms: N_21  and  C_23
REMARK                            x       y       z     vdW  Elec       q    Type
REMARK                         _______ _______ _______ _____ _____    ______ ____
ROOT
ATOM      1  C   UNL     1       0.372   9.518  22.509  0.00  0.00    +0.000 C 
ATOM      2  C   UNL     1       0.801   9.669  21.094  0.00  0.00    +0.000 A 
ATOM      3  N   UNL     1       1.134   8.579  20.396  0.00  0.00    +0.000 NA
ATOM      4  N   UNL     1       1.565   9.043  19.191  0.00  0.00    +0.000 N 
ATOM      5  C   UNL     1       2.069   8.152  18.229  0.00  0.00    +0.000 C 
ATOM      6  O   UNL     1       2.717   8.590  17.283  0.00  0.00    +0.000 OA
ATOM      7  C   UNL     1       1.489  10.424  19.145  0.00  0.00    +0.000 A 
ATOM      8  C   UNL     1       0.927  10.853  20.322  0.00  0.00    +0.000 A 
ATOM      9  C   UNL     1       0.666  12.284  20.665  0.00  0.00    +0.000 C 
ATOM     10  S   UNL     1       0.886  13.461  19.294  0.00  0.00    +0.000 S 
ATOM     11  C   UNL     1       1.942  12.585  18.209  0.00  0.00    +0.000 C 
ATOM     12  N   UNL     1       2.714  13.307  17.471  0.00  0.00    +0.000 NA
ATOM     13  N   UNL     1       1.918  11.222  18.142  0.00  0.00    +0.000 N 
ATOM     14  H   UNL     1       2.534  14.285  17.734  0.00  0.00    +0.000 HD
ATOM     15  H   UNL     1       2.478  10.840  17.378  0.00  0.00    +0.000 HD
ENDROOT
BRANCH   9  16
ATOM     16  C   UNL     1      -0.749  12.342  21.215  0.00  0.00    +0.000 A 
ATOM     17  C   UNL     1      -1.836  12.205  20.349  0.00  0.00    +0.000 A 
ATOM     18  C   UNL     1      -3.152  12.347  20.815  0.00  0.00    +0.000 A 
ATOM     19  C   UNL     1      -3.455  12.603  22.164  0.00  0.00    +0.000 A 
ATOM     20  C   UNL     1      -2.352  12.691  23.026  0.00  0.00    +0.000 A 
ATOM     21  C   UNL     1      -1.029  12.563  22.571  0.00  0.00    +0.000 A 
BRANCH  19  22
ATOM     22  N   UNL     1      -4.759  12.805  22.586  0.00  0.00    +0.000 N 
ATOM     23  C   UNL     1      -5.073  13.186  23.959  0.00  0.00    +0.000 C 
ATOM     24  C   UNL     1      -5.870  12.954  21.647  0.00  0.00    +0.000 C 
ENDBRANCH  19  22
ENDBRANCH   9  16
BRANCH   5  25
ATOM     25  C   UNL     1       1.664   6.704  18.428  0.00  0.00    +0.000 C 
BRANCH  25  26
ATOM     26  C   UNL     1       2.854   5.769  18.403  0.00  0.00    +0.000 A 
ATOM     27  C   UNL     1       3.901   5.931  19.321  0.00  0.00    +0.000 A 
ATOM     28  C   UNL     1       5.002   5.073  19.301  0.00  0.00    +0.000 A 
ATOM     29  C   UNL     1       5.065   4.038  18.373  0.00  0.00    +0.000 A 
ATOM     30  C   UNL     1       4.029   3.860  17.467  0.00  0.00    +0.000 A 
ATOM     31  C   UNL     1       2.930   4.723  17.470  0.00  0.00    +0.000 A 
ENDBRANCH  25  26
ENDBRANCH   5  25
TORSDOF 4
ENDMDL
MODEL 3
REMARK VINA RESULT:      -7.7      0.094      1.107
REMARK  Name = 
REMARK  7 active torsions:
REMARK  status: ('A' for Active; 'I' for Inactive)
REMARK    1  A    between atoms: C_1  and  C_2
REMARK    2  A    between atoms: C_5  and  C_7
REMARK    3  A    between atoms: C_7  and  C_8
REMARK    4  A    between atoms: C_16  and  C_17
REMARK    5  A    between atoms: C_20  and  N_21
REMARK    6  A    between atoms: N_21  and  C_22
REMARK    7  A    between atoms: N_21  and  C_23
REMARK                            x       y       z     vdW  Elec       q    Type
REMARK                         _______ _______ _______ _____ _____    ______ ____
ROOT
ATOM      1  C   UNL     1      -0.391   9.997  22.920  0.00  0.00    +0.000 C 
ATOM      2  C   UNL     1       0.261   9.836  21.594  0.00  0.00    +0.000 A 
ATOM      3  N   UNL     1       0.731   8.637  21.243  0.00  0.00    +0.000 NA
ATOM      4  N   UNL     1       1.342   8.828  20.042  0.00  0.00    +0.000 N 
ATOM      5  C   UNL     1       2.020   7.770  19.414  0.00  0.00    +0.000 C 
ATOM      6  O   UNL     1       2.802   8.012  18.500  0.00  0.00    +0.000 OA
ATOM      7  C   UNL     1       1.239  10.151  19.648  0.00  0.00    +0.000 A 
ATOM      8  C   UNL     1       0.480  10.810  20.584  0.00  0.00    +0.000 A 
ATOM      9  C   UNL     1       0.129  12.260  20.524  0.00  0.00    +0.000 C 
ATOM     10  S   UNL     1       0.539  13.091  18.956  0.00  0.00    +0.000 S 
ATOM     11  C   UNL     1       1.782  12.054  18.293  0.00  0.00    +0.000 C 
ATOM     12  N   UNL     1       2.644  12.629  17.527  0.00  0.00    +0.000 NA
ATOM     13  N   UNL     1       1.805  10.716  18.558  0.00  0.00    +0.000 N 
ATOM     14  H   UNL     1       2.398  13.628  17.513  0.00  0.00    +0.000 HD
ATOM     15  H   UNL     1       2.492  10.201  18.005  0.00  0.00    +0.000 HD
ENDROOT
BRANCH   9  16
ATOM     16  C   UNL     1      -1.358  12.355  20.820  0.00  0.00    +0.000 A 
ATOM     17  C   UNL     1      -2.285  12.114  19.804  0.00  0.00    +0.000 A 
ATOM     18  C   UNL     1      -3.660  12.284  20.026  0.00  0.00    +0.000 A 
ATOM     19  C   UNL     1      -4.185  12.674  21.271  0.00  0.00    +0.000 A 
ATOM     20  C   UNL     1      -3.242  12.866  22.291  0.00  0.00    +0.000 A 
ATOM     21  C   UNL     1      -1.861  12.711  22.079  0.00  0.00    +0.000 A 
BRANCH  19  22
ATOM     22  N   UNL     1      -5.541  12.899  21.445  0.00  0.00    +0.000 N 
ATOM     23  C   UNL     1      -6.049  14.165  21.963  0.00  0.00    +0.000 C 
ATOM     24  C   UNL     1      -6.559  12.035  20.851  0.00  0.00    +0.000 C 
ENDBRANCH  19  22
ENDBRANCH   9  16
BRANCH   5  25
ATOM     25  C   UNL     1       1.627   6.387  19.897  0.00  0.00    +0.000 C 
BRANCH  25  26
ATOM     26  C   UNL     1       2.382   5.293  19.175  0.00  0.00    +0.000 A 
ATOM     27  C   UNL     1       1.825   4.674  18.047  0.00  0.00    +0.000 A 
ATOM     28  C   UNL     1       2.517   3.662  17.378  0.00  0.00    +0.000 A 
ATOM     29  C   UNL     1       3.775   3.264  17.820  0.00  0.00    +0.000 A 
ATOM     30  C   UNL     1       4.342   3.878  18.929  0.00  0.00    +0.000 A 
ATOM     31  C   UNL     1       3.650   4.882  19.613  0.00  0.00    +0.000 A 
ENDBRANCH  25  26
ENDBRANCH   5  25
TORSDOF 4
ENDMDL
MODEL 4
REMARK VINA RESULT:      -7.7      1.623      2.017
REMARK  Name = 
REMARK  7 active torsions:
REMARK  status: ('A' for Active; 'I' for Inactive)
REMARK    1  A    between atoms: C_1  and  C_2
REMARK    2  A    between atoms: C_5  and  C_7
REMARK    3  A    between atoms: C_7  and  C_8
REMARK    4  A    between atoms: C_16  and  C_17
REMARK    5  A    between atoms: C_20  and  N_21
REMARK    6  A    between atoms: N_21  and  C_22
REMARK    7  A    between atoms: N_21  and  C_23
REMARK                            x       y       z     vdW  Elec       q    Type
REMARK                         _______ _______ _______ _____ _____    ______ ____
ROOT
ATOM      1  C   UNL     1      -0.462   9.686  22.374  0.00  0.00    +0.000 C 
ATOM      2  C   UNL     1       0.156  10.269  21.155  0.00  0.00    +0.000 A 
ATOM      3  N   UNL     1       0.626   9.451  20.210  0.00  0.00    +0.000 NA
ATOM      4  N   UNL     1       1.204  10.265  19.284  0.00  0.00    +0.000 N 
ATOM      5  C   UNL     1       1.873   9.717  18.178  0.00  0.00    +0.000 C 
ATOM      6  O   UNL     1       2.630  10.424  17.519  0.00  0.00    +0.000 OA
ATOM      7  C   UNL     1       1.081  11.592  19.658  0.00  0.00    +0.000 A 
ATOM      8  C   UNL     1       0.342  11.635  20.815  0.00  0.00    +0.000 A 
ATOM      9  C   UNL     1      -0.022  12.888  21.543  0.00  0.00    +0.000 C 
ATOM     10  S   UNL     1       0.342  14.434  20.652  0.00  0.00    +0.000 S 
ATOM     11  C   UNL     1       1.574  13.935  19.516  0.00  0.00    +0.000 C 
ATOM     12  N   UNL     1       2.413  14.846  19.159  0.00  0.00    +0.000 NA
ATOM     13  N   UNL     1       1.614  12.661  19.026  0.00  0.00    +0.000 N 
ATOM     14  H   UNL     1       2.159  15.694  19.683  0.00  0.00    +0.000 HD
ATOM     15  H   UNL     1       2.291  12.534  18.272  0.00  0.00    +0.000 HD
ENDROOT
BRANCH   9  16
ATOM     16  C   UNL     1      -1.501  12.780  21.871  0.00  0.00    +0.000 A 
ATOM     17  C   UNL     1      -2.444  12.817  20.842  0.00  0.00    +0.000 A 
ATOM     18  C   UNL     1      -3.819  12.812  21.122  0.00  0.00    +0.000 A 
ATOM     19  C   UNL     1      -4.325  12.743  22.433  0.00  0.00    +0.000 A 
ATOM     20  C   UNL     1      -3.363  12.660  23.449  0.00  0.00    +0.000 A 
ATOM     21  C   UNL     1      -1.983  12.676  23.183  0.00  0.00    +0.000 A 
BRANCH  19  22
ATOM     22  N   UNL     1      -5.686  12.807  22.686  0.00  0.00    +0.000 N 
ATOM     23  C   UNL     1      -6.674  12.513  21.652  0.00  0.00    +0.000 C 
ATOM     24  C   UNL     1      -6.228  12.865  24.043  0.00  0.00    +0.000 C 
ENDBRANCH  19  22
ENDBRANCH   9  16
BRANCH   5  25
ATOM     25  C   UNL     1       1.503   8.282  17.856  0.00  0.00    +0.000 C 
BRANCH  25  26
ATOM     26  C   UNL     1       2.617   7.314  18.193  0.00  0.00    +0.000 A 
ATOM     27  C   UNL     1       3.761   7.245  17.386  0.00  0.00    +0.000 A 
ATOM     28  C   UNL     1       4.791   6.352  17.691  0.00  0.00    +0.000 A 
ATOM     29  C   UNL     1       4.695   5.528  18.808  0.00  0.00    +0.000 A 
ATOM     30  C   UNL     1       3.572   5.597  19.621  0.00  0.00    +0.000 A 
ATOM     31  C   UNL     1       2.530   6.477  19.316  0.00  0.00    +0.000 A 
ENDBRANCH  25  26
ENDBRANCH   5  25
TORSDOF 4
ENDMDL
MODEL 5
REMARK VINA RESULT:      -7.7      1.624      2.049
REMARK  Name = 
REMARK  7 active torsions:
REMARK  status: ('A' for Active; 'I' for Inactive)
REMARK    1  A    between atoms: C_1  and  C_2
REMARK    2  A    between atoms: C_5  and  C_7
REMARK    3  A    between atoms: C_7  and  C_8
REMARK    4  A    between atoms: C_16  and  C_17
REMARK    5  A    between atoms: C_20  and  N_21
REMARK    6  A    between atoms: N_21  and  C_22
REMARK    7  A    between atoms: N_21  and  C_23
REMARK                            x       y       z     vdW  Elec       q    Type
REMARK                         _______ _______ _______ _____ _____    ______ ____
ROOT
ATOM      1  C   UNL     1      -0.464   9.688  22.376  0.00  0.00    +0.000 C 
ATOM      2  C   UNL     1       0.156  10.271  21.158  0.00  0.00    +0.000 A 
ATOM      3  N   UNL     1       0.628   9.452  20.214  0.00  0.00    +0.000 NA
ATOM      4  N   UNL     1       1.207  10.266  19.289  0.00  0.00    +0.000 N 
ATOM      5  C   UNL     1       1.879   9.719  18.184  0.00  0.00    +0.000 C 
ATOM      6  O   UNL     1       2.636  10.426  17.526  0.00  0.00    +0.000 OA
ATOM      7  C   UNL     1       1.082  11.594  19.662  0.00  0.00    +0.000 A 
ATOM      8  C   UNL     1       0.341  11.637  20.817  0.00  0.00    +0.000 A 
ATOM      9  C   UNL     1      -0.025  12.890  21.544  0.00  0.00    +0.000 C 
ATOM     10  S   UNL     1       0.339  14.435  20.653  0.00  0.00    +0.000 S 
ATOM     11  C   UNL     1       1.574  13.937  19.519  0.00  0.00    +0.000 C 
ATOM     12  N   UNL     1       2.412  14.849  19.163  0.00  0.00    +0.000 NA
ATOM     13  N   UNL     1       1.616  12.663  19.030  0.00  0.00    +0.000 N 
ATOM     14  H   UNL     1       2.157  15.697  19.686  0.00  0.00    +0.000 HD
ATOM     15  H   UNL     1       2.294  12.536  18.277  0.00  0.00    +0.000 HD
ENDROOT
BRANCH   9  16
ATOM     16  C   UNL     1      -1.505  12.781  21.869  0.00  0.00    +0.000 A 
ATOM     17  C   UNL     1      -2.446  12.811  20.838  0.00  0.00    +0.000 A 
ATOM     18  C   UNL     1      -3.821  12.806  21.116  0.00  0.00    +0.000 A 
ATOM     19  C   UNL     1      -4.330  12.742  22.426  0.00  0.00    +0.000 A 
ATOM     20  C   UNL     1      -3.369  12.665  23.444  0.00  0.00    +0.000 A 
ATOM     21  C   UNL     1      -1.990  12.683  23.181  0.00  0.00    +0.000 A 
BRANCH  19  22
ATOM     22  N   UNL     1      -5.691  12.804  22.675  0.00  0.00    +0.000 N 
ATOM     23  C   UNL     1      -6.220  12.901  24.032  0.00  0.00    +0.000 C 
ATOM     24  C   UNL     1      -6.667  13.087  21.624  0.00  0.00    +0.000 C 
ENDBRANCH  19  22
ENDBRANCH   9  16
BRANCH   5  25
ATOM     25  C   UNL     1       1.510   8.283  17.863  0.00  0.00    +0.000 C 
BRANCH  25  26
ATOM     26  C   UNL     1       2.626   7.317  18.197  0.00  0.00    +0.000 A 
ATOM     27  C   UNL     1       2.534   6.492  19.327  0.00  0.00    +0.000 A 
ATOM     28  C   UNL     1       3.561   5.601  19.641  0.00  0.00    +0.000 A 
ATOM     29  C   UNL     1       4.686   5.515  18.827  0.00  0.00    +0.000 A 
ATOM     30  C   UNL     1       4.784   6.318  17.699  0.00  0.00    +0.000 A 
ATOM     31  C   UNL     1       3.766   7.223  17.384  0.00  0.00    +0.000 A 
ENDBRANCH  25  26
ENDBRANCH   5  25
TORSDOF 4
ENDMDL
MODEL 6
REMARK VINA RESULT:      -7.5      2.741      8.331
REMARK  Name = 
REMARK  7 active torsions:
REMARK  status: ('A' for Active; 'I' for Inactive)
REMARK    1  A    between atoms: C_1  and  C_2
REMARK    2  A    between atoms: C_5  and  C_7
REMARK    3  A    between atoms: C_7  and  C_8
REMARK    4  A    between atoms: C_16  and  C_17
REMARK    5  A    between atoms: C_20  and  N_21
REMARK    6  A    between atoms: N_21  and  C_22
REMARK    7  A    between atoms: N_21  and  C_23
REMARK                            x       y       z     vdW  Elec       q    Type
REMARK                         _______ _______ _______ _____ _____    ______ ____
ROOT
ATOM      1  C   UNL     1      -1.731  10.021  17.573  0.00  0.00    +0.000 C 
ATOM      2  C   UNL     1      -1.593  11.197  18.471  0.00  0.00    +0.000 A 
ATOM      3  N   UNL     1      -2.687  11.713  19.037  0.00  0.00    +0.000 NA
ATOM      4  N   UNL     1      -2.257  12.814  19.712  0.00  0.00    +0.000 N 
ATOM      5  C   UNL     1      -3.177  13.648  20.369  0.00  0.00    +0.000 C 
ATOM      6  O   UNL     1      -2.832  14.773  20.716  0.00  0.00    +0.000 OA
ATOM      7  C   UNL     1      -0.890  12.971  19.567  0.00  0.00    +0.000 A 
ATOM      8  C   UNL     1      -0.419  11.904  18.842  0.00  0.00    +0.000 A 
ATOM      9  C   UNL     1       1.013  11.695  18.472  0.00  0.00    +0.000 C 
ATOM     10  S   UNL     1       2.193  12.819  19.282  0.00  0.00    +0.000 S 
ATOM     11  C   UNL     1       1.180  14.171  19.733  0.00  0.00    +0.000 C 
ATOM     12  N   UNL     1       1.767  15.317  19.797  0.00  0.00    +0.000 NA
ATOM     13  N   UNL     1      -0.143  14.001  20.023  0.00  0.00    +0.000 N 
ATOM     14  H   UNL     1       2.745  15.157  19.520  0.00  0.00    +0.000 HD
ATOM     15  H   UNL     1      -0.589  14.837  20.403  0.00  0.00    +0.000 HD
ENDROOT
BRANCH   9  16
ATOM     16  C   UNL     1       1.331  10.244  18.789  0.00  0.00    +0.000 A 
ATOM     17  C   UNL     1       1.089   9.745  20.071  0.00  0.00    +0.000 A 
ATOM     18  C   UNL     1       1.459   8.437  20.418  0.00  0.00    +0.000 A 
ATOM     19  C   UNL     1       2.060   7.552  19.505  0.00  0.00    +0.000 A 
ATOM     20  C   UNL     1       2.252   8.056  18.211  0.00  0.00    +0.000 A 
ATOM     21  C   UNL     1       1.898   9.368  17.854  0.00  0.00    +0.000 A 
BRANCH  19  22
ATOM     22  N   UNL     1       2.476   6.288  19.892  0.00  0.00    +0.000 N 
ATOM     23  C   UNL     1       1.577   5.358  20.570  0.00  0.00    +0.000 C 
ATOM     24  C   UNL     1       3.709   5.683  19.393  0.00  0.00    +0.000 C 
ENDBRANCH  19  22
ENDBRANCH   9  16
BRANCH   5  25
ATOM     25  C   UNL     1      -4.520  13.006  20.663  0.00  0.00    +0.000 C 
BRANCH  25  26
ATOM     26  C   UNL     1      -4.746  12.809  22.147  0.00  0.00    +0.000 A 
ATOM     27  C   UNL     1      -3.667  12.529  22.997  0.00  0.00    +0.000 A 
ATOM     28  C   UNL     1      -3.870  12.344  24.365  0.00  0.00    +0.000 A 
ATOM     29  C   UNL     1      -5.149  12.447  24.903  0.00  0.00    +0.000 A 
ATOM     30  C   UNL     1      -6.225  12.735  24.073  0.00  0.00    +0.000 A 
ATOM     31  C   UNL     1      -6.032  12.907  22.700  0.00  0.00    +0.000 A 
ENDBRANCH  25  26
ENDBRANCH   5  25
TORSDOF 4
ENDMDL
MODEL 7
REMARK VINA RESULT:      -7.5      0.845      1.042
REMARK  Name = 
REMARK  7 active torsions:
REMARK  status: ('A' for Active; 'I' for Inactive)
REMARK    1  A    between atoms: C_1  and  C_2
REMARK    2  A    between atoms: C_5  and  C_7
REMARK    3  A    between atoms: C_7  and  C_8
REMARK    4  A    between atoms: C_16  and  C_17
REMARK    5  A    between atoms: C_20  and  N_21
REMARK    6  A    between atoms: N_21  and  C_22
REMARK    7  A    between atoms: N_21  and  C_23
REMARK                            x       y       z     vdW  Elec       q    Type
REMARK                         _______ _______ _______ _____ _____    ______ ____
ROOT
ATOM      1  C   UNL     1      -0.747  10.312  23.089  0.00  0.00    +0.000 C 
ATOM      2  C   UNL     1      -0.025   9.944  21.843  0.00  0.00    +0.000 A 
ATOM      3  N   UNL     1       0.447   8.702  21.710  0.00  0.00    +0.000 NA
ATOM      4  N   UNL     1       1.127   8.701  20.530  0.00  0.00    +0.000 N 
ATOM      5  C   UNL     1       1.824   7.555  20.114  0.00  0.00    +0.000 C 
ATOM      6  O   UNL     1       2.659   7.648  19.220  0.00  0.00    +0.000 OA
ATOM      7  C   UNL     1       1.064   9.947  19.931  0.00  0.00    +0.000 A 
ATOM      8  C   UNL     1       0.264  10.747  20.709  0.00  0.00    +0.000 A 
ATOM      9  C   UNL     1      -0.064  12.172  20.404  0.00  0.00    +0.000 C 
ATOM     10  S   UNL     1       0.445  12.747  18.753  0.00  0.00    +0.000 S 
ATOM     11  C   UNL     1       1.708  11.613  18.330  0.00  0.00    +0.000 C 
ATOM     12  N   UNL     1       2.620  12.058  17.535  0.00  0.00    +0.000 NA
ATOM     13  N   UNL     1       1.698  10.332  18.800  0.00  0.00    +0.000 N 
ATOM     14  H   UNL     1       2.389  13.043  17.353  0.00  0.00    +0.000 HD
ATOM     15  H   UNL     1       2.407   9.734  18.375  0.00  0.00    +0.000 HD
ENDROOT
BRANCH   9  16
ATOM     16  C   UNL     1      -1.563  12.319  20.597  0.00  0.00    +0.000 A 
ATOM     17  C   UNL     1      -2.435  11.954  19.568  0.00  0.00    +0.000 A 
ATOM     18  C   UNL     1      -3.817  12.165  19.684  0.00  0.00    +0.000 A 
ATOM     19  C   UNL     1      -4.405  12.722  20.834  0.00  0.00    +0.000 A 
ATOM     20  C   UNL     1      -3.519  13.039  21.874  0.00  0.00    +0.000 A 
ATOM     21  C   UNL     1      -2.132  12.844  21.766  0.00  0.00    +0.000 A 
BRANCH  19  22
ATOM     22  N   UNL     1      -5.765  12.981  20.896  0.00  0.00    +0.000 N 
ATOM     23  C   UNL     1      -6.746  12.084  20.293  0.00  0.00    +0.000 C 
ATOM     24  C   UNL     1      -6.331  13.974  21.808  0.00  0.00    +0.000 C 
ENDBRANCH  19  22
ENDBRANCH   9  16
BRANCH   5  25
ATOM     25  C   UNL     1       1.385   6.266  20.782  0.00  0.00    +0.000 C 
BRANCH  25  26
ATOM     26  C   UNL     1       1.490   5.075  19.854  0.00  0.00    +0.000 A 
ATOM     27  C   UNL     1       1.051   3.811  20.271  0.00  0.00    +0.000 A 
ATOM     28  C   UNL     1       1.148   2.709  19.419  0.00  0.00    +0.000 A 
ATOM     29  C   UNL     1       1.673   2.858  18.139  0.00  0.00    +0.000 A 
ATOM     30  C   UNL     1       2.100   4.108  17.710  0.00  0.00    +0.000 A 
ATOM     31  C   UNL     1       2.019   5.213  18.561  0.00  0.00    +0.000 A 
ENDBRANCH  25  26
ENDBRANCH   5  25
TORSDOF 4
ENDMDL
MODEL 8
REMARK VINA RESULT:      -7.5      2.757      8.388
REMARK  Name = 
REMARK  7 active torsions:
REMARK  status: ('A' for Active; 'I' for Inactive)
REMARK    1  A    between atoms: C_1  and  C_2
REMARK    2  A    between atoms: C_5  and  C_7
REMARK    3  A    between atoms: C_7  and  C_8
REMARK    4  A    between atoms: C_16  and  C_17
REMARK    5  A    between atoms: C_20  and  N_21
REMARK    6  A    between atoms: N_21  and  C_22
REMARK    7  A    between atoms: N_21  and  C_23
REMARK                            x       y       z     vdW  Elec       q    Type
REMARK                         _______ _______ _______ _____ _____    ______ ____
ROOT
ATOM      1  C   UNL     1      -1.704  10.029  17.512  0.00  0.00    +0.000 C 
ATOM      2  C   UNL     1      -1.562  11.183  18.437  0.00  0.00    +0.000 A 
ATOM      3  N   UNL     1      -2.655  11.692  19.013  0.00  0.00    +0.000 NA
ATOM      4  N   UNL     1      -2.220  12.775  19.713  0.00  0.00    +0.000 N 
ATOM      5  C   UNL     1      -3.137  13.598  20.387  0.00  0.00    +0.000 C 
ATOM      6  O   UNL     1      -2.786  14.713  20.761  0.00  0.00    +0.000 OA
ATOM      7  C   UNL     1      -0.851  12.928  19.574  0.00  0.00    +0.000 A 
ATOM      8  C   UNL     1      -0.385  11.875  18.825  0.00  0.00    +0.000 A 
ATOM      9  C   UNL     1       1.046  11.668  18.453  0.00  0.00    +0.000 C 
ATOM     10  S   UNL     1       2.232  12.767  19.290  0.00  0.00    +0.000 S 
ATOM     11  C   UNL     1       1.224  14.114  19.770  0.00  0.00    +0.000 C 
ATOM     12  N   UNL     1       1.817  15.255  19.860  0.00  0.00    +0.000 NA
ATOM     13  N   UNL     1      -0.100  13.944  20.054  0.00  0.00    +0.000 N 
ATOM     14  H   UNL     1       2.794  15.096  19.582  0.00  0.00    +0.000 HD
ATOM     15  H   UNL     1      -0.542  14.773  20.452  0.00  0.00    +0.000 HD
ENDROOT
BRANCH   9  16
ATOM     16  C   UNL     1       1.357  10.208  18.738  0.00  0.00    +0.000 A 
ATOM     17  C   UNL     1       1.104   9.680  20.006  0.00  0.00    +0.000 A 
ATOM     18  C   UNL     1       1.466   8.362  20.324  0.00  0.00    +0.000 A 
ATOM     19  C   UNL     1       2.071   7.497  19.395  0.00  0.00    +0.000 A 
ATOM     20  C   UNL     1       2.274   8.030  18.114  0.00  0.00    +0.000 A 
ATOM     21  C   UNL     1       1.927   9.352  17.786  0.00  0.00    +0.000 A 
BRANCH  19  22
ATOM     22  N   UNL     1       2.478   6.222  19.755  0.00  0.00    +0.000 N 
ATOM     23  C   UNL     1       3.808   5.719  19.424  0.00  0.00    +0.000 C 
ATOM     24  C   UNL     1       1.752   5.416  20.734  0.00  0.00    +0.000 C 
ENDBRANCH  19  22
ENDBRANCH   9  16
BRANCH   5  25
ATOM     25  C   UNL     1      -4.483  12.956  20.665  0.00  0.00    +0.000 C 
BRANCH  25  26
ATOM     26  C   UNL     1      -4.741  12.788  22.147  0.00  0.00    +0.000 A 
ATOM     27  C   UNL     1      -6.036  12.940  22.662  0.00  0.00    +0.000 A 
ATOM     28  C   UNL     1      -6.279  12.788  24.028  0.00  0.00    +0.000 A 
ATOM     29  C   UNL     1      -5.237  12.473  24.894  0.00  0.00    +0.000 A 
ATOM     30  C   UNL     1      -3.952  12.308  24.394  0.00  0.00    +0.000 A 
ATOM     31  C   UNL     1      -3.697  12.472  23.030  0.00  0.00    +0.000 A 
ENDBRANCH  25  26
ENDBRANCH   5  25
TORSDOF 4
ENDMDL
MODEL 9
REMARK VINA RESULT:      -7.5      0.849      1.258
REMARK  Name = 
REMARK  7 active torsions:
REMARK  status: ('A' for Active; 'I' for Inactive)
REMARK    1  A    between atoms: C_1  and  C_2
REMARK    2  A    between atoms: C_5  and  C_7
REMARK    3  A    between atoms: C_7  and  C_8
REMARK    4  A    between atoms: C_16  and  C_17
REMARK    5  A    between atoms: C_20  and  N_21
REMARK    6  A    between atoms: N_21  and  C_22
REMARK    7  A    between atoms: N_21  and  C_23
REMARK                            x       y       z     vdW  Elec       q    Type
REMARK                         _______ _______ _______ _____ _____    ______ ____
ROOT
ATOM      1  C   UNL     1      -0.767  10.309  23.054  0.00  0.00    +0.000 C 
ATOM      2  C   UNL     1      -0.037   9.939  21.813  0.00  0.00    +0.000 A 
ATOM      3  N   UNL     1       0.439   8.698  21.685  0.00  0.00    +0.000 NA
ATOM      4  N   UNL     1       1.125   8.696  20.510  0.00  0.00    +0.000 N 
ATOM      5  C   UNL     1       1.827   7.550  20.100  0.00  0.00    +0.000 C 
ATOM      6  O   UNL     1       2.667   7.643  19.210  0.00  0.00    +0.000 OA
ATOM      7  C   UNL     1       1.062   9.940  19.907  0.00  0.00    +0.000 A 
ATOM      8  C   UNL     1       0.256  10.740  20.679  0.00  0.00    +0.000 A 
ATOM      9  C   UNL     1      -0.073  12.164  20.368  0.00  0.00    +0.000 C 
ATOM     10  S   UNL     1       0.444  12.736  18.719  0.00  0.00    +0.000 S 
ATOM     11  C   UNL     1       1.711  11.604  18.306  0.00  0.00    +0.000 C 
ATOM     12  N   UNL     1       2.626  12.048  17.515  0.00  0.00    +0.000 NA
ATOM     13  N   UNL     1       1.701  10.324  18.779  0.00  0.00    +0.000 N 
ATOM     14  H   UNL     1       2.394  13.033  17.328  0.00  0.00    +0.000 HD
ATOM     15  H   UNL     1       2.415   9.726  18.359  0.00  0.00    +0.000 HD
ENDROOT
BRANCH   9  16
ATOM     16  C   UNL     1      -1.574  12.308  20.553  0.00  0.00    +0.000 A 
ATOM     17  C   UNL     1      -2.439  11.935  19.521  0.00  0.00    +0.000 A 
ATOM     18  C   UNL     1      -3.822  12.143  19.628  0.00  0.00    +0.000 A 
ATOM     19  C   UNL     1      -4.418  12.705  20.772  0.00  0.00    +0.000 A 
ATOM     20  C   UNL     1      -3.538  13.029  21.815  0.00  0.00    +0.000 A 
ATOM     21  C   UNL     1      -2.150  12.838  21.716  0.00  0.00    +0.000 A 
BRANCH  19  22
ATOM     22  N   UNL     1      -5.779  12.960  20.826  0.00  0.00    +0.000 N 
ATOM     23  C   UNL     1      -6.301  14.255  21.252  0.00  0.00    +0.000 C 
ATOM     24  C   UNL     1      -6.764  12.091  20.183  0.00  0.00    +0.000 C 
ENDBRANCH  19  22
ENDBRANCH   9  16
BRANCH   5  25
ATOM     25  C   UNL     1       1.387   6.261  20.769  0.00  0.00    +0.000 C 
BRANCH  25  26
ATOM     26  C   UNL     1       1.500   5.069  19.844  0.00  0.00    +0.000 A 
ATOM     27  C   UNL     1       2.088   5.208  18.579  0.00  0.00    +0.000 A 
ATOM     28  C   UNL     1       2.193   4.112  17.721  0.00  0.00    +0.000 A 
ATOM     29  C   UNL     1       1.723   2.864  18.119  0.00  0.00    +0.000 A 
ATOM     30  C   UNL     1       1.150   2.711  19.374  0.00  0.00    +0.000 A 
ATOM     31  C   UNL     1       1.028   3.806  20.234  0.00  0.00    +0.000 A 
ENDBRANCH  25  26
ENDBRANCH   5  25
TORSDOF 4
ENDMDL
