MODEL 1
REMARK VINA RESULT:      -8.4      0.000      0.000
REMARK  Name = 
REMARK  4 active torsions:
REMARK  status: ('A' for Active; 'I' for Inactive)
REMARK    1  A    between atoms: N_5  and  C_6
REMARK    2  A    between atoms: C_9  and  N_10
REMARK    3  A    between atoms: N_10  and  C_11
REMARK    4  A    between atoms: C_14  and  N_15
REMARK                            x       y       z     vdW  Elec       q    Type
REMARK                         _______ _______ _______ _____ _____    ______ ____
ROOT
ATOM      1  N   UNL     1       0.864   9.978  19.630  0.00  0.00    +0.000 N 
ATOM      2  H   UNL     1       1.521  10.724  19.840  0.00  0.00    +0.000 HD
ENDROOT
BRANCH   1   6
ATOM      3  C   UNL     1      -2.586  11.377  17.603  0.00  0.00    +0.000 A 
ATOM      4  C   UNL     1      -1.890  10.261  17.136  0.00  0.00    +0.000 A 
ATOM      5  C   UNL     1      -0.775   9.785  17.825  0.00  0.00    +0.000 A 
ATOM      6  C   UNL     1      -0.302  10.429  18.976  0.00  0.00    +0.000 A 
ATOM      7  C   UNL     1      -0.992  11.547  19.444  0.00  0.00    +0.000 A 
ATOM      8  C   UNL     1      -2.120  12.017  18.761  0.00  0.00    +0.000 A 
BRANCH   3  13
ATOM      9  C   UNL     1      -7.052  12.166  17.860  0.00  0.00    +0.000 A 
ATOM     10  C   UNL     1      -6.736  11.025  18.555  0.00  0.00    +0.000 A 
ATOM     11  N   UNL     1      -5.431  10.777  18.236  0.00  0.00    +0.000 N 
ATOM     12  C   UNL     1      -4.998  11.781  17.406  0.00  0.00    +0.000 A 
ATOM     13  N   UNL     1      -3.746  11.781  16.916  0.00  0.00    +0.000 N 
ATOM     14  N   UNL     1      -5.977  12.610  17.128  0.00  0.00    +0.000 NA
ATOM     15  H   UNL     1      -4.860  10.001  18.530  0.00  0.00    +0.000 HD
ATOM     16  H   UNL     1      -3.556  12.459  16.182  0.00  0.00    +0.000 HD
ENDBRANCH   3  13
ENDBRANCH   1   6
BRANCH   1  17
ATOM     17  C   UNL     1       1.555   8.775  19.359  0.00  0.00    +0.000 A 
ATOM     18  C   UNL     1       2.229   8.563  18.155  0.00  0.00    +0.000 A 
ATOM     19  C   UNL     1       2.931   7.384  17.930  0.00  0.00    +0.000 A 
ATOM     20  C   UNL     1       3.014   6.385  18.905  0.00  0.00    +0.000 A 
ATOM     21  C   UNL     1       2.301   6.577  20.097  0.00  0.00    +0.000 A 
ATOM     22  C   UNL     1       1.583   7.761  20.322  0.00  0.00    +0.000 A 
BRANCH  20  23
ATOM     23  N   UNL     1       3.860   5.268  18.755  0.00  0.00    +0.000 N 
ATOM     24  C   UNL     1       3.421   4.031  18.424  0.00  0.00    +0.000 A 
ATOM     25  N   UNL     1       2.221   3.631  18.061  0.00  0.00    +0.000 NA
ATOM     26  C   UNL     1       2.308   2.286  17.840  0.00  0.00    +0.000 A 
ATOM     27  C   UNL     1       3.586   1.847  18.072  0.00  0.00    +0.000 A 
ATOM     28  N   UNL     1       4.288   2.967  18.427  0.00  0.00    +0.000 N 
ATOM     29  H   UNL     1       4.844   5.495  18.729  0.00  0.00    +0.000 HD
ATOM     30  H   UNL     1       5.260   3.008  18.690  0.00  0.00    +0.000 HD
ENDBRANCH  20  23
ENDBRANCH   1  17
TORSDOF 4
ENDMDL
MODEL 2
REMARK VINA RESULT:      -8.1      1.520      1.993
REMARK  Name = 
REMARK  4 active torsions:
REMARK  status: ('A' for Active; 'I' for Inactive)
REMARK    1  A    between atoms: N_5  and  C_6
REMARK    2  A    between atoms: C_9  and  N_10
REMARK    3  A    between atoms: N_10  and  C_11
REMARK    4  A    between atoms: C_14  and  N_15
REMARK                            x       y       z     vdW  Elec       q    Type
REMARK                         _______ _______ _______ _____ _____    ______ ____
ROOT
ATOM      1  N   UNL     1       1.077   9.922  19.370  0.00  0.00    +0.000 N 
ATOM      2  H   UNL     1       1.738  10.665  19.580  0.00  0.00    +0.000 HD
ENDROOT
BRANCH   1   6
ATOM      3  C   UNL     1      -2.432  11.345  17.463  0.00  0.00    +0.000 A 
ATOM      4  C   UNL     1      -1.877  10.115  17.106  0.00  0.00    +0.000 A 
ATOM      5  C   UNL     1      -0.741   9.636  17.760  0.00  0.00    +0.000 A 
ATOM      6  C   UNL     1      -0.107  10.386  18.759  0.00  0.00    +0.000 A 
ATOM      7  C   UNL     1      -0.656  11.617  19.116  0.00  0.00    +0.000 A 
ATOM      8  C   UNL     1      -1.805  12.092  18.471  0.00  0.00    +0.000 A 
BRANCH   3  13
ATOM      9  C   UNL     1      -6.903  12.030  17.873  0.00  0.00    +0.000 A 
ATOM     10  C   UNL     1      -6.547  10.865  18.505  0.00  0.00    +0.000 A 
ATOM     11  N   UNL     1      -5.247  10.658  18.140  0.00  0.00    +0.000 N 
ATOM     12  C   UNL     1      -4.856  11.708  17.348  0.00  0.00    +0.000 A 
ATOM     13  N   UNL     1      -3.617  11.757  16.826  0.00  0.00    +0.000 N 
ATOM     14  N   UNL     1      -5.857  12.530  17.135  0.00  0.00    +0.000 NA
ATOM     15  H   UNL     1      -4.653   9.881  18.383  0.00  0.00    +0.000 HD
ATOM     16  H   UNL     1      -3.460  12.472  16.121  0.00  0.00    +0.000 HD
ENDBRANCH   3  13
ENDBRANCH   1   6
BRANCH   1  17
ATOM     17  C   UNL     1       1.764   8.729  19.050  0.00  0.00    +0.000 A 
ATOM     18  C   UNL     1       2.401   8.547  17.822  0.00  0.00    +0.000 A 
ATOM     19  C   UNL     1       3.100   7.376  17.548  0.00  0.00    +0.000 A 
ATOM     20  C   UNL     1       3.215   6.356  18.497  0.00  0.00    +0.000 A 
ATOM     21  C   UNL     1       2.539   6.517  19.714  0.00  0.00    +0.000 A 
ATOM     22  C   UNL     1       1.824   7.693  19.989  0.00  0.00    +0.000 A 
BRANCH  20  23
ATOM     23  N   UNL     1       4.061   5.246  18.296  0.00  0.00    +0.000 N 
ATOM     24  C   UNL     1       5.395   5.345  18.089  0.00  0.00    +0.000 A 
ATOM     25  N   UNL     1       6.183   6.396  18.152  0.00  0.00    +0.000 NA
ATOM     26  C   UNL     1       7.443   5.960  17.855  0.00  0.00    +0.000 A 
ATOM     27  C   UNL     1       7.432   4.612  17.602  0.00  0.00    +0.000 A 
ATOM     28  N   UNL     1       6.128   4.229  17.769  0.00  0.00    +0.000 N 
ATOM     29  H   UNL     1       3.630   4.356  18.503  0.00  0.00    +0.000 HD
ATOM     30  H   UNL     1       5.753   3.303  17.639  0.00  0.00    +0.000 HD
ENDBRANCH  20  23
ENDBRANCH   1  17
TORSDOF 4
ENDMDL
MODEL 3
REMARK VINA RESULT:      -8.1      0.396      1.418
REMARK  Name = 
REMARK  4 active torsions:
REMARK  status: ('A' for Active; 'I' for Inactive)
REMARK    1  A    between atoms: N_5  and  C_6
REMARK    2  A    between atoms: C_9  and  N_10
REMARK    3  A    between atoms: N_10  and  C_11
REMARK    4  A    between atoms: C_14  and  N_15
REMARK                            x       y       z     vdW  Elec       q    Type
REMARK                         _______ _______ _______ _____ _____    ______ ____
ROOT
ATOM      1  N   UNL     1       0.755  10.108  19.596  0.00  0.00    +0.000 N 
ATOM      2  H   UNL     1       1.353  10.874  19.894  0.00  0.00    +0.000 HD
ENDROOT
BRANCH   1   6
ATOM      3  C   UNL     1      -2.734  11.350  17.534  0.00  0.00    +0.000 A 
ATOM      4  C   UNL     1      -2.290  12.043  18.660  0.00  0.00    +0.000 A 
ATOM      5  C   UNL     1      -1.122  11.650  19.316  0.00  0.00    +0.000 A 
ATOM      6  C   UNL     1      -0.389  10.535  18.889  0.00  0.00    +0.000 A 
ATOM      7  C   UNL     1      -0.832   9.838  17.766  0.00  0.00    +0.000 A 
ATOM      8  C   UNL     1      -1.995  10.240  17.098  0.00  0.00    +0.000 A 
BRANCH   3  13
ATOM      9  C   UNL     1      -7.157  12.341  17.834  0.00  0.00    +0.000 A 
ATOM     10  C   UNL     1      -6.891  11.173  18.504  0.00  0.00    +0.000 A 
ATOM     11  N   UNL     1      -5.601  10.870  18.172  0.00  0.00    +0.000 N 
ATOM     12  C   UNL     1      -5.126  11.870  17.360  0.00  0.00    +0.000 A 
ATOM     13  N   UNL     1      -3.878  11.822  16.862  0.00  0.00    +0.000 N 
ATOM     14  N   UNL     1      -6.066  12.750  17.106  0.00  0.00    +0.000 NA
ATOM     15  H   UNL     1      -5.065  10.063  18.446  0.00  0.00    +0.000 HD
ATOM     16  H   UNL     1      -3.659  12.505  16.142  0.00  0.00    +0.000 HD
ENDBRANCH   3  13
ENDBRANCH   1   6
BRANCH   1  17
ATOM     17  C   UNL     1       1.531   8.963  19.306  0.00  0.00    +0.000 A 
ATOM     18  C   UNL     1       1.672   7.914  20.215  0.00  0.00    +0.000 A 
ATOM     19  C   UNL     1       2.412   6.782  19.890  0.00  0.00    +0.000 A 
ATOM     20  C   UNL     1       3.014   6.640  18.636  0.00  0.00    +0.000 A 
ATOM     21  C   UNL     1       2.912   7.712  17.737  0.00  0.00    +0.000 A 
ATOM     22  C   UNL     1       2.174   8.859  18.068  0.00  0.00    +0.000 A 
BRANCH  20  23
ATOM     23  N   UNL     1       3.618   5.431  18.234  0.00  0.00    +0.000 N 
ATOM     24  C   UNL     1       2.977   4.239  18.222  0.00  0.00    +0.000 A 
ATOM     25  N   UNL     1       1.710   3.960  18.436  0.00  0.00    +0.000 NA
ATOM     26  C   UNL     1       1.580   2.606  18.309  0.00  0.00    +0.000 A 
ATOM     27  C   UNL     1       2.793   2.038  18.014  0.00  0.00    +0.000 A 
ATOM     28  N   UNL     1       3.670   3.087  17.946  0.00  0.00    +0.000 N 
ATOM     29  H   UNL     1       4.511   5.548  17.776  0.00  0.00    +0.000 HD
ATOM     30  H   UNL     1       4.660   3.030  17.767  0.00  0.00    +0.000 HD
ENDBRANCH  20  23
ENDBRANCH   1  17
TORSDOF 4
ENDMDL
MODEL 4
REMARK VINA RESULT:      -8.1      0.873      9.271
REMARK  Name = 
REMARK  4 active torsions:
REMARK  status: ('A' for Active; 'I' for Inactive)
REMARK    1  A    between atoms: N_5  and  C_6
REMARK    2  A    between atoms: C_9  and  N_10
REMARK    3  A    between atoms: N_10  and  C_11
REMARK    4  A    between atoms: C_14  and  N_15
REMARK                            x       y       z     vdW  Elec       q    Type
REMARK                         _______ _______ _______ _____ _____    ______ ____
ROOT
ATOM      1  N   UNL     1       1.251  10.235  18.868  0.00  0.00    +0.000 N 
ATOM      2  H   UNL     1       1.637  10.907  19.525  0.00  0.00    +0.000 HD
ENDROOT
BRANCH   1   6
ATOM      3  C   UNL     1       2.652   6.301  19.599  0.00  0.00    +0.000 A 
ATOM      4  C   UNL     1       1.946   6.999  20.580  0.00  0.00    +0.000 A 
ATOM      5  C   UNL     1       1.458   8.280  20.323  0.00  0.00    +0.000 A 
ATOM      6  C   UNL     1       1.693   8.914  19.096  0.00  0.00    +0.000 A 
ATOM      7  C   UNL     1       2.402   8.222  18.114  0.00  0.00    +0.000 A 
ATOM      8  C   UNL     1       2.878   6.930  18.366  0.00  0.00    +0.000 A 
BRANCH   3  13
ATOM      9  C   UNL     1       2.068   1.886  18.705  0.00  0.00    +0.000 A 
ATOM     10  C   UNL     1       0.850   2.513  18.788  0.00  0.00    +0.000 A 
ATOM     11  N   UNL     1       1.137   3.762  19.262  0.00  0.00    +0.000 N 
ATOM     12  C   UNL     1       2.498   3.860  19.405  0.00  0.00    +0.000 A 
ATOM     13  N   UNL     1       3.065   4.984  19.877  0.00  0.00    +0.000 N 
ATOM     14  N   UNL     1       3.080   2.719  19.116  0.00  0.00    +0.000 NA
ATOM     15  H   UNL     1       0.490   4.502  19.485  0.00  0.00    +0.000 HD
ATOM     16  H   UNL     1       4.052   4.921  20.112  0.00  0.00    +0.000 HD
ENDBRANCH   3  13
ENDBRANCH   1   6
BRANCH   1  17
ATOM     17  C   UNL     1      -0.054  10.619  18.482  0.00  0.00    +0.000 A 
ATOM     18  C   UNL     1      -0.600  11.851  18.841  0.00  0.00    +0.000 A 
ATOM     19  C   UNL     1      -1.873  12.217  18.417  0.00  0.00    +0.000 A 
ATOM     20  C   UNL     1      -2.636  11.383  17.595  0.00  0.00    +0.000 A 
ATOM     21  C   UNL     1      -2.108  10.126  17.269  0.00  0.00    +0.000 A 
ATOM     22  C   UNL     1      -0.828   9.750  17.705  0.00  0.00    +0.000 A 
BRANCH  20  23
ATOM     23  N   UNL     1      -3.850  11.815  17.020  0.00  0.00    +0.000 N 
ATOM     24  C   UNL     1      -5.027  11.847  17.687  0.00  0.00    +0.000 A 
ATOM     25  N   UNL     1      -5.283  11.632  18.959  0.00  0.00    +0.000 NA
ATOM     26  C   UNL     1      -6.630  11.786  19.119  0.00  0.00    +0.000 A 
ATOM     27  C   UNL     1      -7.219  12.101  17.921  0.00  0.00    +0.000 A 
ATOM     28  N   UNL     1      -6.188  12.152  17.021  0.00  0.00    +0.000 N 
ATOM     29  H   UNL     1      -3.743  12.275  16.127  0.00  0.00    +0.000 HD
ATOM     30  H   UNL     1      -6.262  12.337  16.033  0.00  0.00    +0.000 HD
ENDBRANCH  20  23
ENDBRANCH   1  17
TORSDOF 4
ENDMDL
MODEL 5
REMARK VINA RESULT:      -8.1      1.456      2.336
REMARK  Name = 
REMARK  4 active torsions:
REMARK  status: ('A' for Active; 'I' for Inactive)
REMARK    1  A    between atoms: N_5  and  C_6
REMARK    2  A    between atoms: C_9  and  N_10
REMARK    3  A    between atoms: N_10  and  C_11
REMARK    4  A    between atoms: C_14  and  N_15
REMARK                            x       y       z     vdW  Elec       q    Type
REMARK                         _______ _______ _______ _____ _____    ______ ____
ROOT
ATOM      1  N   UNL     1       0.819   9.921  19.583  0.00  0.00    +0.000 N 
ATOM      2  H   UNL     1       1.389  10.671  19.962  0.00  0.00    +0.000 HD
ENDROOT
BRANCH   1   6
ATOM      3  C   UNL     1      -2.642  11.271  17.539  0.00  0.00    +0.000 A 
ATOM      4  C   UNL     1      -2.151  11.968  18.645  0.00  0.00    +0.000 A 
ATOM      5  C   UNL     1      -0.993  11.538  19.293  0.00  0.00    +0.000 A 
ATOM      6  C   UNL     1      -0.315  10.383  18.881  0.00  0.00    +0.000 A 
ATOM      7  C   UNL     1      -0.804   9.682  17.779  0.00  0.00    +0.000 A 
ATOM      8  C   UNL     1      -1.957  10.121  17.119  0.00  0.00    +0.000 A 
BRANCH   3  13
ATOM      9  C   UNL     1      -7.070  12.245  17.809  0.00  0.00    +0.000 A 
ATOM     10  C   UNL     1      -6.816  11.043  18.419  0.00  0.00    +0.000 A 
ATOM     11  N   UNL     1      -5.520  10.758  18.096  0.00  0.00    +0.000 N 
ATOM     12  C   UNL     1      -5.030  11.801  17.349  0.00  0.00    +0.000 A 
ATOM     13  N   UNL     1      -3.772  11.780  16.873  0.00  0.00    +0.000 N 
ATOM     14  N   UNL     1      -5.966  12.693  17.124  0.00  0.00    +0.000 NA
ATOM     15  H   UNL     1      -4.988   9.937  18.337  0.00  0.00    +0.000 HD
ATOM     16  H   UNL     1      -3.541  12.501  16.195  0.00  0.00    +0.000 HD
ENDBRANCH   3  13
ENDBRANCH   1   6
BRANCH   1  17
ATOM     17  C   UNL     1       1.630   8.822  19.218  0.00  0.00    +0.000 A 
ATOM     18  C   UNL     1       1.769   7.700  20.036  0.00  0.00    +0.000 A 
ATOM     19  C   UNL     1       2.545   6.617  19.635  0.00  0.00    +0.000 A 
ATOM     20  C   UNL     1       3.186   6.599  18.394  0.00  0.00    +0.000 A 
ATOM     21  C   UNL     1       3.085   7.744  17.590  0.00  0.00    +0.000 A 
ATOM     22  C   UNL     1       2.311   8.841  17.996  0.00  0.00    +0.000 A 
BRANCH  20  23
ATOM     23  N   UNL     1       3.830   5.443  17.906  0.00  0.00    +0.000 N 
ATOM     24  C   UNL     1       5.166   5.356  17.704  0.00  0.00    +0.000 A 
ATOM     25  N   UNL     1       6.124   6.204  18.012  0.00  0.00    +0.000 NA
ATOM     26  C   UNL     1       7.295   5.642  17.591  0.00  0.00    +0.000 A 
ATOM     27  C   UNL     1       7.055   4.422  17.011  0.00  0.00    +0.000 A 
ATOM     28  N   UNL     1       5.701   4.244  17.103  0.00  0.00    +0.000 N 
ATOM     29  H   UNL     1       3.246   4.619  17.894  0.00  0.00    +0.000 HD
ATOM     30  H   UNL     1       5.174   3.459  16.755  0.00  0.00    +0.000 HD
ENDBRANCH  20  23
ENDBRANCH   1  17
TORSDOF 4
ENDMDL
MODEL 6
REMARK VINA RESULT:      -8.0      1.041      9.249
REMARK  Name = 
REMARK  4 active torsions:
REMARK  status: ('A' for Active; 'I' for Inactive)
REMARK    1  A    between atoms: N_5  and  C_6
REMARK    2  A    between atoms: C_9  and  N_10
REMARK    3  A    between atoms: N_10  and  C_11
REMARK    4  A    between atoms: C_14  and  N_15
REMARK                            x       y       z     vdW  Elec       q    Type
REMARK                         _______ _______ _______ _____ _____    ______ ____
ROOT
ATOM      1  N   UNL     1       1.183  10.337  18.419  0.00  0.00    +0.000 N 
ATOM      2  H   UNL     1       1.694  11.116  18.825  0.00  0.00    +0.000 HD
ENDROOT
BRANCH   1   6
ATOM      3  C   UNL     1       2.416   6.519  19.787  0.00  0.00    +0.000 A 
ATOM      4  C   UNL     1       2.703   6.935  18.486  0.00  0.00    +0.000 A 
ATOM      5  C   UNL     1       2.325   8.206  18.052  0.00  0.00    +0.000 A 
ATOM      6  C   UNL     1       1.618   9.080  18.888  0.00  0.00    +0.000 A 
ATOM      7  C   UNL     1       1.326   8.666  20.187  0.00  0.00    +0.000 A 
ATOM      8  C   UNL     1       1.719   7.397  20.630  0.00  0.00    +0.000 A 
BRANCH   3  13
ATOM      9  C   UNL     1       2.241   2.025  19.149  0.00  0.00    +0.000 A 
ATOM     10  C   UNL     1       0.983   2.564  19.042  0.00  0.00    +0.000 A 
ATOM     11  N   UNL     1       1.126   3.858  19.455  0.00  0.00    +0.000 N 
ATOM     12  C   UNL     1       2.450   4.066  19.752  0.00  0.00    +0.000 A 
ATOM     13  N   UNL     1       2.878   5.257  20.206  0.00  0.00    +0.000 N 
ATOM     14  N   UNL     1       3.137   2.956  19.617  0.00  0.00    +0.000 NA
ATOM     15  H   UNL     1       0.409   4.561  19.546  0.00  0.00    +0.000 HD
ATOM     16  H   UNL     1       3.831   5.282  20.560  0.00  0.00    +0.000 HD
ENDBRANCH   3  13
ENDBRANCH   1   6
BRANCH   1  17
ATOM     17  C   UNL     1      -0.155  10.709  18.158  0.00  0.00    +0.000 A 
ATOM     18  C   UNL     1      -0.659  11.960  18.514  0.00  0.00    +0.000 A 
ATOM     19  C   UNL     1      -1.971  12.313  18.212  0.00  0.00    +0.000 A 
ATOM     20  C   UNL     1      -2.819  11.444  17.520  0.00  0.00    +0.000 A 
ATOM     21  C   UNL     1      -2.329  10.170  17.201  0.00  0.00    +0.000 A 
ATOM     22  C   UNL     1      -1.010   9.808  17.513  0.00  0.00    +0.000 A 
BRANCH  20  23
ATOM     23  N   UNL     1      -4.087  11.853  17.059  0.00  0.00    +0.000 N 
ATOM     24  C   UNL     1      -5.203  11.846  17.826  0.00  0.00    +0.000 A 
ATOM     25  N   UNL     1      -5.342  11.606  19.112  0.00  0.00    +0.000 NA
ATOM     26  C   UNL     1      -6.674  11.724  19.390  0.00  0.00    +0.000 A 
ATOM     27  C   UNL     1      -7.371  12.042  18.253  0.00  0.00    +0.000 A 
ATOM     28  N   UNL     1      -6.424  12.133  17.269  0.00  0.00    +0.000 N 
ATOM     29  H   UNL     1      -4.070  12.330  16.169  0.00  0.00    +0.000 HD
ATOM     30  H   UNL     1      -6.588  12.331  16.294  0.00  0.00    +0.000 HD
ENDBRANCH  20  23
ENDBRANCH   1  17
TORSDOF 4
ENDMDL
MODEL 7
REMARK VINA RESULT:      -8.0      1.623      9.266
REMARK  Name = 
REMARK  4 active torsions:
REMARK  status: ('A' for Active; 'I' for Inactive)
REMARK    1  A    between atoms: N_5  and  C_6
REMARK    2  A    between atoms: C_9  and  N_10
REMARK    3  A    between atoms: N_10  and  C_11
REMARK    4  A    between atoms: C_14  and  N_15
REMARK                            x       y       z     vdW  Elec       q    Type
REMARK                         _______ _______ _______ _____ _____    ______ ____
ROOT
ATOM      1  N   UNL     1       0.400  10.622  18.202  0.00  0.00    +0.000 N 
ATOM      2  H   UNL     1       0.805  11.502  18.510  0.00  0.00    +0.000 HD
ENDROOT
BRANCH   1   6
ATOM      3  C   UNL     1       2.360   7.168  19.684  0.00  0.00    +0.000 A 
ATOM      4  C   UNL     1       2.447   7.511  18.334  0.00  0.00    +0.000 A 
ATOM      5  C   UNL     1       1.828   8.667  17.858  0.00  0.00    +0.000 A 
ATOM      6  C   UNL     1       1.075   9.491  18.706  0.00  0.00    +0.000 A 
ATOM      7  C   UNL     1       0.983   9.149  20.055  0.00  0.00    +0.000 A 
ATOM      8  C   UNL     1       1.617   7.998  20.537  0.00  0.00    +0.000 A 
BRANCH   3  13
ATOM      9  C   UNL     1       2.321   2.652  20.172  0.00  0.00    +0.000 A 
ATOM     10  C   UNL     1       1.089   3.170  20.487  0.00  0.00    +0.000 A 
ATOM     11  N   UNL     1       1.278   4.522  20.510  0.00  0.00    +0.000 N 
ATOM     12  C   UNL     1       2.584   4.774  20.173  0.00  0.00    +0.000 A 
ATOM     13  N   UNL     1       3.058   6.032  20.135  0.00  0.00    +0.000 N 
ATOM     14  N   UNL     1       3.247   3.653  20.008  0.00  0.00    +0.000 NA
ATOM     15  H   UNL     1       0.605   5.237  20.737  0.00  0.00    +0.000 HD
ATOM     16  H   UNL     1       4.067   6.125  20.044  0.00  0.00    +0.000 HD
ENDBRANCH   3  13
ENDBRANCH   1   6
BRANCH   1  17
ATOM     17  C   UNL     1      -0.999  10.753  18.046  0.00  0.00    +0.000 A 
ATOM     18  C   UNL     1      -1.746   9.859  17.278  0.00  0.00    +0.000 A 
ATOM     19  C   UNL     1      -3.126   9.991  17.171  0.00  0.00    +0.000 A 
ATOM     20  C   UNL     1      -3.817  11.000  17.848  0.00  0.00    +0.000 A 
ATOM     21  C   UNL     1      -3.065  11.926  18.584  0.00  0.00    +0.000 A 
ATOM     22  C   UNL     1      -1.671  11.801  18.685  0.00  0.00    +0.000 A 
BRANCH  20  23
ATOM     23  N   UNL     1      -5.226  11.039  17.886  0.00  0.00    +0.000 N 
ATOM     24  C   UNL     1      -5.940  11.360  18.992  0.00  0.00    +0.000 A 
ATOM     25  N   UNL     1      -5.531  11.804  20.160  0.00  0.00    +0.000 NA
ATOM     26  C   UNL     1      -6.648  11.968  20.929  0.00  0.00    +0.000 A 
ATOM     27  C   UNL     1      -7.768  11.617  20.221  0.00  0.00    +0.000 A 
ATOM     28  N   UNL     1      -7.307  11.246  18.986  0.00  0.00    +0.000 N 
ATOM     29  H   UNL     1      -5.666  10.992  16.978  0.00  0.00    +0.000 HD
ATOM     30  H   UNL     1      -7.861  10.907  18.215  0.00  0.00    +0.000 HD
ENDBRANCH  20  23
ENDBRANCH   1  17
TORSDOF 4
ENDMDL
MODEL 8
REMARK VINA RESULT:      -7.8      3.435      9.910
REMARK  Name = 
REMARK  4 active torsions:
REMARK  status: ('A' for Active; 'I' for Inactive)
REMARK    1  A    between atoms: N_5  and  C_6
REMARK    2  A    between atoms: C_9  and  N_10
REMARK    3  A    between atoms: N_10  and  C_11
REMARK    4  A    between atoms: C_14  and  N_15
REMARK                            x       y       z     vdW  Elec       q    Type
REMARK                         _______ _______ _______ _____ _____    ______ ____
ROOT
ATOM      1  N   UNL     1       3.061   6.409  18.952  0.00  0.00    +0.000 N 
ATOM      2  H   UNL     1       2.483   5.610  19.197  0.00  0.00    +0.000 HD
ENDROOT
BRANCH   1   6
ATOM      3  C   UNL     1       6.073   5.525  16.103  0.00  0.00    +0.000 A 
ATOM      4  C   UNL     1       6.091   6.730  16.807  0.00  0.00    +0.000 A 
ATOM      5  C   UNL     1       5.117   7.002  17.767  0.00  0.00    +0.000 A 
ATOM      6  C   UNL     1       4.078   6.098  18.025  0.00  0.00    +0.000 A 
ATOM      7  C   UNL     1       4.054   4.894  17.320  0.00  0.00    +0.000 A 
ATOM      8  C   UNL     1       5.040   4.614  16.368  0.00  0.00    +0.000 A 
BRANCH   3  13
ATOM      9  C   UNL     1       7.186   4.132  11.925  0.00  0.00    +0.000 A 
ATOM     10  C   UNL     1       6.174   3.352  12.426  0.00  0.00    +0.000 A 
ATOM     11  N   UNL     1       6.072   3.719  13.738  0.00  0.00    +0.000 N 
ATOM     12  C   UNL     1       6.982   4.720  13.971  0.00  0.00    +0.000 A 
ATOM     13  N   UNL     1       7.115   5.263  15.194  0.00  0.00    +0.000 N 
ATOM     14  N   UNL     1       7.700   4.956  12.897  0.00  0.00    +0.000 NA
ATOM     15  H   UNL     1       5.458   3.339  14.441  0.00  0.00    +0.000 HD
ATOM     16  H   UNL     1       7.918   5.873  15.325  0.00  0.00    +0.000 HD
ENDBRANCH   3  13
ENDBRANCH   1   6
BRANCH   1  17
ATOM     17  C   UNL     1       2.294   7.597  18.976  0.00  0.00    +0.000 A 
ATOM     18  C   UNL     1       2.093   8.372  17.833  0.00  0.00    +0.000 A 
ATOM     19  C   UNL     1       1.305   9.517  17.878  0.00  0.00    +0.000 A 
ATOM     20  C   UNL     1       0.663   9.915  19.054  0.00  0.00    +0.000 A 
ATOM     21  C   UNL     1       0.900   9.163  20.214  0.00  0.00    +0.000 A 
ATOM     22  C   UNL     1       1.704   8.014  20.173  0.00  0.00    +0.000 A 
BRANCH  20  23
ATOM     23  N   UNL     1      -0.272  10.970  19.070  0.00  0.00    +0.000 N 
ATOM     24  C   UNL     1      -1.517  10.879  18.545  0.00  0.00    +0.000 A 
ATOM     25  N   UNL     1      -2.151   9.837  18.054  0.00  0.00    +0.000 NA
ATOM     26  C   UNL     1      -3.379  10.280  17.653  0.00  0.00    +0.000 A 
ATOM     27  C   UNL     1      -3.504  11.623  17.899  0.00  0.00    +0.000 A 
ATOM     28  N   UNL     1      -2.320  11.990  18.480  0.00  0.00    +0.000 N 
ATOM     29  H   UNL     1      -0.014  11.742  19.668  0.00  0.00    +0.000 HD
ATOM     30  H   UNL     1      -2.058  12.918  18.773  0.00  0.00    +0.000 HD
ENDBRANCH  20  23
ENDBRANCH   1  17
TORSDOF 4
ENDMDL
MODEL 9
REMARK VINA RESULT:      -7.8      1.329      1.943
REMARK  Name = 
REMARK  4 active torsions:
REMARK  status: ('A' for Active; 'I' for Inactive)
REMARK    1  A    between atoms: N_5  and  C_6
REMARK    2  A    between atoms: C_9  and  N_10
REMARK    3  A    between atoms: N_10  and  C_11
REMARK    4  A    between atoms: C_14  and  N_15
REMARK                            x       y       z     vdW  Elec       q    Type
REMARK                         _______ _______ _______ _____ _____    ______ ____
ROOT
ATOM      1  N   UNL     1       0.488  10.608  18.205  0.00  0.00    +0.000 N 
ATOM      2  H   UNL     1       1.090  11.067  17.528  0.00  0.00    +0.000 HD
ENDROOT
BRANCH   1   6
ATOM      3  C   UNL     1      -3.657  10.933  17.377  0.00  0.00    +0.000 A 
ATOM      4  C   UNL     1      -2.995  11.929  18.096  0.00  0.00    +0.000 A 
ATOM      5  C   UNL     1      -1.624  11.834  18.336  0.00  0.00    +0.000 A 
ATOM      6  C   UNL     1      -0.885  10.726  17.902  0.00  0.00    +0.000 A 
ATOM      7  C   UNL     1      -1.544   9.726  17.187  0.00  0.00    +0.000 A 
ATOM      8  C   UNL     1      -2.916   9.828  16.931  0.00  0.00    +0.000 A 
BRANCH   3  13
ATOM      9  C   UNL     1      -7.668  12.436  18.889  0.00  0.00    +0.000 A 
ATOM     10  C   UNL     1      -7.002  11.782  19.895  0.00  0.00    +0.000 A 
ATOM     11  N   UNL     1      -5.930  11.202  19.280  0.00  0.00    +0.000 N 
ATOM     12  C   UNL     1      -5.960  11.554  17.953  0.00  0.00    +0.000 A 
ATOM     13  N   UNL     1      -5.026  11.104  17.097  0.00  0.00    +0.000 N 
ATOM     14  N   UNL     1      -7.030  12.264  17.684  0.00  0.00    +0.000 NA
ATOM     15  H   UNL     1      -5.226  10.610  19.691  0.00  0.00    +0.000 HD
ATOM     16  H   UNL     1      -5.210  11.267  16.111  0.00  0.00    +0.000 HD
ENDBRANCH   3  13
ENDBRANCH   1   6
BRANCH   1  17
ATOM     17  C   UNL     1       1.126   9.462  18.733  0.00  0.00    +0.000 A 
ATOM     18  C   UNL     1       0.961   9.068  20.062  0.00  0.00    +0.000 A 
ATOM     19  C   UNL     1       1.572   7.916  20.545  0.00  0.00    +0.000 A 
ATOM     20  C   UNL     1       2.345   7.098  19.717  0.00  0.00    +0.000 A 
ATOM     21  C   UNL     1       2.549   7.515  18.394  0.00  0.00    +0.000 A 
ATOM     22  C   UNL     1       1.942   8.683  17.907  0.00  0.00    +0.000 A 
BRANCH  20  23
ATOM     23  N   UNL     1       2.824   5.844  20.148  0.00  0.00    +0.000 N 
ATOM     24  C   UNL     1       2.305   4.661  19.743  0.00  0.00    +0.000 A 
ATOM     25  N   UNL     1       1.395   4.408  18.827  0.00  0.00    +0.000 NA
ATOM     26  C   UNL     1       1.225   3.053  18.808  0.00  0.00    +0.000 A 
ATOM     27  C   UNL     1       2.045   2.458  19.732  0.00  0.00    +0.000 A 
ATOM     28  N   UNL     1       2.738   3.489  20.309  0.00  0.00    +0.000 N 
ATOM     29  H   UNL     1       3.706   5.885  20.638  0.00  0.00    +0.000 HD
ATOM     30  H   UNL     1       3.417   3.415  21.051  0.00  0.00    +0.000 HD
ENDBRANCH  20  23
ENDBRANCH   1  17
TORSDOF 4
ENDMDL
