MODEL 1
REMARK VINA RESULT:      -6.7      0.000      0.000
REMARK  Name = 
REMARK  9 active torsions:
REMARK  status: ('A' for Active; 'I' for Inactive)
REMARK    1  A    between atoms: C_1  and  C_2
REMARK    2  A    between atoms: C_2  and  N_3
REMARK    3  A    between atoms: N_3  and  C_4
REMARK    4  A    between atoms: N_3  and  C_6
REMARK    5  A    between atoms: C_4  and  C_5
REMARK    6  A    between atoms: C_6  and  C_7
REMARK    7  A    between atoms: C_7  and  N_8
REMARK    8  A    between atoms: C_9  and  C_11
REMARK    9  A    between atoms: C_14  and  C_15
REMARK                            x       y       z     vdW  Elec       q    Type
REMARK                         _______ _______ _______ _____ _____    ______ ____
ROOT
ATOM      1  C   UNL     1       2.506   7.310  18.730  0.00  0.00    +0.000 A 
ATOM      2  C   UNL     1       2.181   6.994  20.027  0.00  0.00    +0.000 A 
ATOM      3  N   UNL     1       1.444   7.795  20.828  0.00  0.00    +0.000 NA
ATOM      4  C   UNL     1       1.027   8.970  20.305  0.00  0.00    +0.000 A 
ATOM      5  N   UNL     1       1.320   9.380  19.052  0.00  0.00    +0.000 NA
ATOM      6  C   UNL     1       2.065   8.541  18.296  0.00  0.00    +0.000 A 
ENDROOT
BRANCH   4   7
ATOM      7  C   UNL     1       0.162   9.828  21.138  0.00  0.00    +0.000 A 
ATOM      8  C   UNL     1      -0.370  11.033  20.642  0.00  0.00    +0.000 A 
ATOM      9  C   UNL     1      -1.148  11.877  21.440  0.00  0.00    +0.000 A 
ATOM     10  C   UNL     1      -1.421  11.528  22.759  0.00  0.00    +0.000 A 
ATOM     11  C   UNL     1      -0.927  10.336  23.274  0.00  0.00    +0.000 A 
ATOM     12  C   UNL     1      -0.149   9.494  22.473  0.00  0.00    +0.000 A 
ENDBRANCH   4   7
BRANCH   1  14
ATOM     13  N   UNL     1       4.200   7.079  16.993  0.00  0.00    +0.000 N 
ATOM     14  C   UNL     1       3.324   6.455  17.859  0.00  0.00    +0.000 C 
ATOM     15  O   UNL     1       3.213   5.239  17.944  0.00  0.00    +0.000 OA
ATOM     16  H   UNL     1       4.495   8.037  17.152  0.00  0.00    +0.000 HD
BRANCH  13  17
ATOM     17  C   UNL     1       5.065   6.265  16.156  0.00  0.00    +0.000 C 
BRANCH  17  18
ATOM     18  C   UNL     1       6.558   6.352  16.537  0.00  0.00    +0.000 C 
BRANCH  18  19
ATOM     19  N   UNL     1       7.307   5.075  16.480  0.00  0.00    +0.000 NA
BRANCH  19  21
ATOM     20  C   UNL     1       7.694   5.692  18.907  0.00  0.00    +0.000 C 
ATOM     21  C   UNL     1       7.685   4.614  17.830  0.00  0.00    +0.000 C 
ENDBRANCH  19  21
BRANCH  19  22
ATOM     22  C   UNL     1       6.556   4.059  15.707  0.00  0.00    +0.000 C 
ATOM     23  C   UNL     1       6.643   4.151  14.183  0.00  0.00    +0.000 C 
ENDBRANCH  19  22
ENDBRANCH  18  19
ENDBRANCH  17  18
ENDBRANCH  13  17
ENDBRANCH   1  14
TORSDOF 7
ENDMDL
MODEL 2
REMARK VINA RESULT:      -6.7      4.832      6.657
REMARK  Name = 
REMARK  9 active torsions:
REMARK  status: ('A' for Active; 'I' for Inactive)
REMARK    1  A    between atoms: C_1  and  C_2
REMARK    2  A    between atoms: C_2  and  N_3
REMARK    3  A    between atoms: N_3  and  C_4
REMARK    4  A    between atoms: N_3  and  C_6
REMARK    5  A    between atoms: C_4  and  C_5
REMARK    6  A    between atoms: C_6  and  C_7
REMARK    7  A    between atoms: C_7  and  N_8
REMARK    8  A    between atoms: C_9  and  C_11
REMARK    9  A    between atoms: C_14  and  C_15
REMARK                            x       y       z     vdW  Elec       q    Type
REMARK                         _______ _______ _______ _____ _____    ______ ____
ROOT
ATOM      1  C   UNL     1       5.981   6.510  17.793  0.00  0.00    +0.000 A 
ATOM      2  C   UNL     1       6.027   5.689  18.894  0.00  0.00    +0.000 A 
ATOM      3  N   UNL     1       4.977   4.953  19.322  0.00  0.00    +0.000 NA
ATOM      4  C   UNL     1       3.827   5.059  18.618  0.00  0.00    +0.000 A 
ATOM      5  N   UNL     1       3.676   5.859  17.542  0.00  0.00    +0.000 NA
ATOM      6  C   UNL     1       4.758   6.576  17.161  0.00  0.00    +0.000 A 
ENDROOT
BRANCH   4   7
ATOM      7  C   UNL     1       2.689   4.212  19.026  0.00  0.00    +0.000 A 
ATOM      8  C   UNL     1       2.289   4.120  20.372  0.00  0.00    +0.000 A 
ATOM      9  C   UNL     1       1.245   3.282  20.775  0.00  0.00    +0.000 A 
ATOM     10  C   UNL     1       0.567   2.518  19.831  0.00  0.00    +0.000 A 
ATOM     11  C   UNL     1       0.923   2.599  18.490  0.00  0.00    +0.000 A 
ATOM     12  C   UNL     1       1.968   3.439  18.091  0.00  0.00    +0.000 A 
ENDBRANCH   4   7
BRANCH   1  14
ATOM     13  N   UNL     1       7.320   8.538  17.964  0.00  0.00    +0.000 N 
ATOM     14  C   UNL     1       7.110   7.328  17.333  0.00  0.00    +0.000 C 
ATOM     15  O   UNL     1       7.824   6.906  16.432  0.00  0.00    +0.000 OA
ATOM     16  H   UNL     1       6.927   8.722  18.882  0.00  0.00    +0.000 HD
BRANCH  13  17
ATOM     17  C   UNL     1       8.461   9.349  17.574  0.00  0.00    +0.000 C 
BRANCH  17  18
ATOM     18  C   UNL     1       9.106  10.119  18.747  0.00  0.00    +0.000 C 
BRANCH  18  19
ATOM     19  N   UNL     1       9.377  11.554  18.495  0.00  0.00    +0.000 NA
BRANCH  19  21
ATOM     20  C   UNL     1       9.253  11.515  21.026  0.00  0.00    +0.000 C 
ATOM     21  C   UNL     1       9.324  12.337  19.744  0.00  0.00    +0.000 C 
ENDBRANCH  19  21
BRANCH  19  22
ATOM     22  C   UNL     1      10.647  11.727  17.752  0.00  0.00    +0.000 C 
ATOM     23  C   UNL     1      11.934  11.722  18.578  0.00  0.00    +0.000 C 
ENDBRANCH  19  22
ENDBRANCH  18  19
ENDBRANCH  17  18
ENDBRANCH  13  17
ENDBRANCH   1  14
TORSDOF 7
ENDMDL
MODEL 3
REMARK VINA RESULT:      -6.7      4.756      6.863
REMARK  Name = 
REMARK  9 active torsions:
REMARK  status: ('A' for Active; 'I' for Inactive)
REMARK    1  A    between atoms: C_1  and  C_2
REMARK    2  A    between atoms: C_2  and  N_3
REMARK    3  A    between atoms: N_3  and  C_4
REMARK    4  A    between atoms: N_3  and  C_6
REMARK    5  A    between atoms: C_4  and  C_5
REMARK    6  A    between atoms: C_6  and  C_7
REMARK    7  A    between atoms: C_7  and  N_8
REMARK    8  A    between atoms: C_9  and  C_11
REMARK    9  A    between atoms: C_14  and  C_15
REMARK                            x       y       z     vdW  Elec       q    Type
REMARK                         _______ _______ _______ _____ _____    ______ ____
ROOT
ATOM      1  C   UNL     1       6.058   6.609  17.759  0.00  0.00    +0.000 A 
ATOM      2  C   UNL     1       4.820   6.666  17.166  0.00  0.00    +0.000 A 
ATOM      3  N   UNL     1       3.774   5.899  17.547  0.00  0.00    +0.000 NA
ATOM      4  C   UNL     1       3.988   5.030  18.560  0.00  0.00    +0.000 A 
ATOM      5  N   UNL     1       5.175   4.882  19.185  0.00  0.00    +0.000 NA
ATOM      6  C   UNL     1       6.189   5.670  18.759  0.00  0.00    +0.000 A 
ENDROOT
BRANCH   4   7
ATOM      7  C   UNL     1       2.841   4.233  19.039  0.00  0.00    +0.000 A 
ATOM      8  C   UNL     1       2.146   3.360  18.182  0.00  0.00    +0.000 A 
ATOM      9  C   UNL     1       1.028   2.640  18.613  0.00  0.00    +0.000 A 
ATOM     10  C   UNL     1       0.582   2.772  19.923  0.00  0.00    +0.000 A 
ATOM     11  C   UNL     1       1.257   3.611  20.802  0.00  0.00    +0.000 A 
ATOM     12  C   UNL     1       2.375   4.329  20.367  0.00  0.00    +0.000 A 
ENDBRANCH   4   7
BRANCH   1  14
ATOM     13  N   UNL     1       7.396   8.635  17.970  0.00  0.00    +0.000 N 
ATOM     14  C   UNL     1       7.207   7.423  17.337  0.00  0.00    +0.000 C 
ATOM     15  O   UNL     1       7.952   6.994  16.465  0.00  0.00    +0.000 OA
ATOM     16  H   UNL     1       6.970   8.824  18.871  0.00  0.00    +0.000 HD
BRANCH  13  17
ATOM     17  C   UNL     1       8.553   9.442  17.618  0.00  0.00    +0.000 C 
BRANCH  17  18
ATOM     18  C   UNL     1       9.076  10.316  18.778  0.00  0.00    +0.000 C 
BRANCH  18  19
ATOM     19  N   UNL     1       9.690  11.604  18.378  0.00  0.00    +0.000 NA
BRANCH  19  21
ATOM     20  C   UNL     1       8.997  14.041  18.403  0.00  0.00    +0.000 C 
ATOM     21  C   UNL     1       9.140  12.726  19.161  0.00  0.00    +0.000 C 
ENDBRANCH  19  21
BRANCH  19  22
ATOM     22  C   UNL     1      11.168  11.522  18.435  0.00  0.00    +0.000 C 
ATOM     23  C   UNL     1      11.827  11.885  19.766  0.00  0.00    +0.000 C 
ENDBRANCH  19  22
ENDBRANCH  18  19
ENDBRANCH  17  18
ENDBRANCH  13  17
ENDBRANCH   1  14
TORSDOF 7
ENDMDL
MODEL 4
REMARK VINA RESULT:      -6.6      1.178      1.971
REMARK  Name = 
REMARK  9 active torsions:
REMARK  status: ('A' for Active; 'I' for Inactive)
REMARK    1  A    between atoms: C_1  and  C_2
REMARK    2  A    between atoms: C_2  and  N_3
REMARK    3  A    between atoms: N_3  and  C_4
REMARK    4  A    between atoms: N_3  and  C_6
REMARK    5  A    between atoms: C_4  and  C_5
REMARK    6  A    between atoms: C_6  and  C_7
REMARK    7  A    between atoms: C_7  and  N_8
REMARK    8  A    between atoms: C_9  and  C_11
REMARK    9  A    between atoms: C_14  and  C_15
REMARK                            x       y       z     vdW  Elec       q    Type
REMARK                         _______ _______ _______ _____ _____    ______ ____
ROOT
ATOM      1  C   UNL     1       2.324   7.709  18.783  0.00  0.00    +0.000 A 
ATOM      2  C   UNL     1       2.027   7.469  20.103  0.00  0.00    +0.000 A 
ATOM      3  N   UNL     1       1.243   8.278  20.851  0.00  0.00    +0.000 NA
ATOM      4  C   UNL     1       0.748   9.382  20.247  0.00  0.00    +0.000 A 
ATOM      5  N   UNL     1       1.007   9.717  18.966  0.00  0.00    +0.000 NA
ATOM      6  C   UNL     1       1.801   8.875  18.266  0.00  0.00    +0.000 A 
ENDROOT
BRANCH   4   7
ATOM      7  C   UNL     1      -0.166  10.242  21.025  0.00  0.00    +0.000 A 
ATOM      8  C   UNL     1      -0.848  11.317  20.424  0.00  0.00    +0.000 A 
ATOM      9  C   UNL     1      -1.677  12.167  21.162  0.00  0.00    +0.000 A 
ATOM     10  C   UNL     1      -1.850  11.954  22.526  0.00  0.00    +0.000 A 
ATOM     11  C   UNL     1      -1.207  10.890  23.146  0.00  0.00    +0.000 A 
ATOM     12  C   UNL     1      -0.379  10.041  22.404  0.00  0.00    +0.000 A 
ENDBRANCH   4   7
BRANCH   1  14
ATOM     13  N   UNL     1       3.019   5.482  18.080  0.00  0.00    +0.000 N 
ATOM     14  C   UNL     1       3.191   6.847  17.969  0.00  0.00    +0.000 C 
ATOM     15  O   UNL     1       4.011   7.364  17.221  0.00  0.00    +0.000 OA
ATOM     16  H   UNL     1       2.159   5.094  18.452  0.00  0.00    +0.000 HD
BRANCH  13  17
ATOM     17  C   UNL     1       3.821   4.600  17.249  0.00  0.00    +0.000 C 
BRANCH  17  18
ATOM     18  C   UNL     1       5.166   4.197  17.889  0.00  0.00    +0.000 C 
BRANCH  18  19
ATOM     19  N   UNL     1       6.352   4.314  17.007  0.00  0.00    +0.000 NA
BRANCH  19  21
ATOM     20  C   UNL     1       6.518   4.237  14.480  0.00  0.00    +0.000 C 
ATOM     21  C   UNL     1       6.004   4.953  15.723  0.00  0.00    +0.000 C 
ENDBRANCH  19  21
BRANCH  19  22
ATOM     22  C   UNL     1       7.466   4.989  17.711  0.00  0.00    +0.000 C 
ATOM     23  C   UNL     1       7.436   6.518  17.742  0.00  0.00    +0.000 C 
ENDBRANCH  19  22
ENDBRANCH  18  19
ENDBRANCH  17  18
ENDBRANCH  13  17
ENDBRANCH   1  14
TORSDOF 7
ENDMDL
MODEL 5
REMARK VINA RESULT:      -6.6      1.015      2.474
REMARK  Name = 
REMARK  9 active torsions:
REMARK  status: ('A' for Active; 'I' for Inactive)
REMARK    1  A    between atoms: C_1  and  C_2
REMARK    2  A    between atoms: C_2  and  N_3
REMARK    3  A    between atoms: N_3  and  C_4
REMARK    4  A    between atoms: N_3  and  C_6
REMARK    5  A    between atoms: C_4  and  C_5
REMARK    6  A    between atoms: C_6  and  C_7
REMARK    7  A    between atoms: C_7  and  N_8
REMARK    8  A    between atoms: C_9  and  C_11
REMARK    9  A    between atoms: C_14  and  C_15
REMARK                            x       y       z     vdW  Elec       q    Type
REMARK                         _______ _______ _______ _____ _____    ______ ____
ROOT
ATOM      1  C   UNL     1       2.620   7.568  18.470  0.00  0.00    +0.000 A 
ATOM      2  C   UNL     1       2.038   8.749  18.078  0.00  0.00    +0.000 A 
ATOM      3  N   UNL     1       1.251   9.498  18.883  0.00  0.00    +0.000 NA
ATOM      4  C   UNL     1       1.031   9.030  20.132  0.00  0.00    +0.000 A 
ATOM      5  N   UNL     1       1.535   7.868  20.599  0.00  0.00    +0.000 NA
ATOM      6  C   UNL     1       2.310   7.157  19.749  0.00  0.00    +0.000 A 
ENDROOT
BRANCH   4   7
ATOM      7  C   UNL     1       0.233   9.866  21.051  0.00  0.00    +0.000 A 
ATOM      8  C   UNL     1      -0.012   9.467  22.378  0.00  0.00    +0.000 A 
ATOM      9  C   UNL     1      -0.808  10.227  23.240  0.00  0.00    +0.000 A 
ATOM     10  C   UNL     1      -1.373  11.416  22.794  0.00  0.00    +0.000 A 
ATOM     11  C   UNL     1      -1.135  11.850  21.494  0.00  0.00    +0.000 A 
ATOM     12  C   UNL     1      -0.338  11.087  20.635  0.00  0.00    +0.000 A 
ENDBRANCH   4   7
BRANCH   1  14
ATOM     13  N   UNL     1       3.521   5.385  17.868  0.00  0.00    +0.000 N 
ATOM     14  C   UNL     1       3.458   6.737  17.595  0.00  0.00    +0.000 C 
ATOM     15  O   UNL     1       4.047   7.264  16.660  0.00  0.00    +0.000 OA
ATOM     16  H   UNL     1       2.807   4.934  18.431  0.00  0.00    +0.000 HD
BRANCH  13  17
ATOM     17  C   UNL     1       4.296   4.524  16.991  0.00  0.00    +0.000 C 
BRANCH  17  18
ATOM     18  C   UNL     1       5.752   4.314  17.455  0.00  0.00    +0.000 C 
BRANCH  18  19
ATOM     19  N   UNL     1       6.786   4.989  16.635  0.00  0.00    +0.000 NA
BRANCH  19  21
ATOM     20  C   UNL     1       6.405   3.983  14.341  0.00  0.00    +0.000 C 
ATOM     21  C   UNL     1       6.319   5.202  15.252  0.00  0.00    +0.000 C 
ENDBRANCH  19  21
BRANCH  19  22
ATOM     22  C   UNL     1       7.249   6.233  17.292  0.00  0.00    +0.000 C 
ATOM     23  C   UNL     1       7.658   6.125  18.761  0.00  0.00    +0.000 C 
ENDBRANCH  19  22
ENDBRANCH  18  19
ENDBRANCH  17  18
ENDBRANCH  13  17
ENDBRANCH   1  14
TORSDOF 7
ENDMDL
MODEL 6
REMARK VINA RESULT:      -6.5      4.923      7.293
REMARK  Name = 
REMARK  9 active torsions:
REMARK  status: ('A' for Active; 'I' for Inactive)
REMARK    1  A    between atoms: C_1  and  C_2
REMARK    2  A    between atoms: C_2  and  N_3
REMARK    3  A    between atoms: N_3  and  C_4
REMARK    4  A    between atoms: N_3  and  C_6
REMARK    5  A    between atoms: C_4  and  C_5
REMARK    6  A    between atoms: C_6  and  C_7
REMARK    7  A    between atoms: C_7  and  N_8
REMARK    8  A    between atoms: C_9  and  C_11
REMARK    9  A    between atoms: C_14  and  C_15
REMARK                            x       y       z     vdW  Elec       q    Type
REMARK                         _______ _______ _______ _____ _____    ______ ____
ROOT
ATOM      1  C   UNL     1       6.879   6.278  17.944  0.00  0.00    +0.000 A 
ATOM      2  C   UNL     1       7.957   6.475  18.773  0.00  0.00    +0.000 A 
ATOM      3  N   UNL     1       8.590   7.662  18.906  0.00  0.00    +0.000 NA
ATOM      4  C   UNL     1       8.125   8.691  18.162  0.00  0.00    +0.000 A 
ATOM      5  N   UNL     1       7.092   8.588  17.299  0.00  0.00    +0.000 NA
ATOM      6  C   UNL     1       6.500   7.376  17.202  0.00  0.00    +0.000 A 
ENDROOT
BRANCH   4   7
ATOM      7  C   UNL     1       8.757  10.014  18.343  0.00  0.00    +0.000 A 
ATOM      8  C   UNL     1       9.713  10.236  19.351  0.00  0.00    +0.000 A 
ATOM      9  C   UNL     1      10.279  11.497  19.563  0.00  0.00    +0.000 A 
ATOM     10  C   UNL     1       9.905  12.569  18.760  0.00  0.00    +0.000 A 
ATOM     11  C   UNL     1       8.977  12.379  17.742  0.00  0.00    +0.000 A 
ATOM     12  C   UNL     1       8.413  11.116  17.533  0.00  0.00    +0.000 A 
ENDBRANCH   4   7
BRANCH   1  14
ATOM     13  N   UNL     1       5.158   4.926  16.872  0.00  0.00    +0.000 N 
ATOM     14  C   UNL     1       6.198   4.987  17.777  0.00  0.00    +0.000 C 
ATOM     15  O   UNL     1       6.585   4.023  18.425  0.00  0.00    +0.000 OA
ATOM     16  H   UNL     1       5.060   5.626  16.144  0.00  0.00    +0.000 HD
BRANCH  13  17
ATOM     17  C   UNL     1       4.497   3.653  16.640  0.00  0.00    +0.000 C 
BRANCH  17  18
ATOM     18  C   UNL     1       3.022   3.627  17.091  0.00  0.00    +0.000 C 
BRANCH  18  19
ATOM     19  N   UNL     1       2.799   3.320  18.524  0.00  0.00    +0.000 NA
BRANCH  19  21
ATOM     20  C   UNL     1       0.986   3.747  20.243  0.00  0.00    +0.000 C 
ATOM     21  C   UNL     1       1.359   3.272  18.844  0.00  0.00    +0.000 C 
ENDBRANCH  19  21
BRANCH  19  22
ATOM     22  C   UNL     1       3.525   2.092  18.919  0.00  0.00    +0.000 C 
ATOM     23  C   UNL     1       4.347   2.161  20.207  0.00  0.00    +0.000 C 
ENDBRANCH  19  22
ENDBRANCH  18  19
ENDBRANCH  17  18
ENDBRANCH  13  17
ENDBRANCH   1  14
TORSDOF 7
ENDMDL
MODEL 7
REMARK VINA RESULT:      -6.5      1.919      9.029
REMARK  Name = 
REMARK  9 active torsions:
REMARK  status: ('A' for Active; 'I' for Inactive)
REMARK    1  A    between atoms: C_1  and  C_2
REMARK    2  A    between atoms: C_2  and  N_3
REMARK    3  A    between atoms: N_3  and  C_4
REMARK    4  A    between atoms: N_3  and  C_6
REMARK    5  A    between atoms: C_4  and  C_5
REMARK    6  A    between atoms: C_6  and  C_7
REMARK    7  A    between atoms: C_7  and  N_8
REMARK    8  A    between atoms: C_9  and  C_11
REMARK    9  A    between atoms: C_14  and  C_15
REMARK                            x       y       z     vdW  Elec       q    Type
REMARK                         _______ _______ _______ _____ _____    ______ ____
ROOT
ATOM      1  C   UNL     1       3.803   5.393  18.122  0.00  0.00    +0.000 A 
ATOM      2  C   UNL     1       4.389   6.392  17.383  0.00  0.00    +0.000 A 
ATOM      3  N   UNL     1       5.074   6.171  16.239  0.00  0.00    +0.000 NA
ATOM      4  C   UNL     1       5.184   4.887  15.829  0.00  0.00    +0.000 A 
ATOM      5  N   UNL     1       4.668   3.837  16.502  0.00  0.00    +0.000 NA
ATOM      6  C   UNL     1       3.997   4.116  17.642  0.00  0.00    +0.000 A 
ENDROOT
BRANCH   4   7
ATOM      7  C   UNL     1       5.868   4.630  14.546  0.00  0.00    +0.000 A 
ATOM      8  C   UNL     1       5.341   3.726  13.604  0.00  0.00    +0.000 A 
ATOM      9  C   UNL     1       6.007   3.438  12.409  0.00  0.00    +0.000 A 
ATOM     10  C   UNL     1       7.219   4.057  12.124  0.00  0.00    +0.000 A 
ATOM     11  C   UNL     1       7.758   4.970  13.023  0.00  0.00    +0.000 A 
ATOM     12  C   UNL     1       7.088   5.256  14.218  0.00  0.00    +0.000 A 
ENDBRANCH   4   7
BRANCH   1  14
ATOM     13  N   UNL     1       2.381   6.809  19.505  0.00  0.00    +0.000 N 
ATOM     14  C   UNL     1       3.074   5.622  19.377  0.00  0.00    +0.000 C 
ATOM     15  O   UNL     1       3.095   4.757  20.244  0.00  0.00    +0.000 OA
ATOM     16  H   UNL     1       2.126   7.354  18.688  0.00  0.00    +0.000 HD
BRANCH  13  17
ATOM     17  C   UNL     1       1.603   7.046  20.710  0.00  0.00    +0.000 C 
BRANCH  17  18
ATOM     18  C   UNL     1       1.498   8.536  21.098  0.00  0.00    +0.000 C 
BRANCH  18  19
ATOM     19  N   UNL     1       0.282   9.235  20.617  0.00  0.00    +0.000 NA
BRANCH  19  21
ATOM     20  C   UNL     1       0.032   9.562  23.118  0.00  0.00    +0.000 C 
ATOM     21  C   UNL     1      -0.376   9.978  21.709  0.00  0.00    +0.000 C 
ENDBRANCH  19  21
BRANCH  19  22
ATOM     22  C   UNL     1       0.591  10.079  19.441  0.00  0.00    +0.000 C 
ATOM     23  C   UNL     1      -0.516  10.238  18.398  0.00  0.00    +0.000 C 
ENDBRANCH  19  22
ENDBRANCH  18  19
ENDBRANCH  17  18
ENDBRANCH  13  17
ENDBRANCH   1  14
TORSDOF 7
ENDMDL
MODEL 8
REMARK VINA RESULT:      -6.5      3.308      4.934
REMARK  Name = 
REMARK  9 active torsions:
REMARK  status: ('A' for Active; 'I' for Inactive)
REMARK    1  A    between atoms: C_1  and  C_2
REMARK    2  A    between atoms: C_2  and  N_3
REMARK    3  A    between atoms: N_3  and  C_4
REMARK    4  A    between atoms: N_3  and  C_6
REMARK    5  A    between atoms: C_4  and  C_5
REMARK    6  A    between atoms: C_6  and  C_7
REMARK    7  A    between atoms: C_7  and  N_8
REMARK    8  A    between atoms: C_9  and  C_11
REMARK    9  A    between atoms: C_14  and  C_15
REMARK                            x       y       z     vdW  Elec       q    Type
REMARK                         _______ _______ _______ _____ _____    ______ ____
ROOT
ATOM      1  C   UNL     1       0.465   9.759  20.944  0.00  0.00    +0.000 A 
ATOM      2  C   UNL     1       0.391   9.723  22.315  0.00  0.00    +0.000 A 
ATOM      3  N   UNL     1      -0.314  10.615  23.048  0.00  0.00    +0.000 NA
ATOM      4  C   UNL     1      -0.960  11.591  22.371  0.00  0.00    +0.000 A 
ATOM      5  N   UNL     1      -0.922  11.724  21.028  0.00  0.00    +0.000 NA
ATOM      6  C   UNL     1      -0.198  10.808  20.346  0.00  0.00    +0.000 A 
ENDROOT
BRANCH   4   7
ATOM      7  C   UNL     1      -1.792  12.533  23.145  0.00  0.00    +0.000 A 
ATOM      8  C   UNL     1      -1.314  13.807  23.505  0.00  0.00    +0.000 A 
ATOM      9  C   UNL     1      -2.076  14.686  24.280  0.00  0.00    +0.000 A 
ATOM     10  C   UNL     1      -3.344  14.311  24.710  0.00  0.00    +0.000 A 
ATOM     11  C   UNL     1      -3.854  13.068  24.356  0.00  0.00    +0.000 A 
ATOM     12  C   UNL     1      -3.090  12.191  23.579  0.00  0.00    +0.000 A 
ENDBRANCH   4   7
BRANCH   1  14
ATOM     13  N   UNL     1       1.670   7.648  20.761  0.00  0.00    +0.000 N 
ATOM     14  C   UNL     1       1.245   8.807  20.141  0.00  0.00    +0.000 C 
ATOM     15  O   UNL     1       1.472   9.065  18.966  0.00  0.00    +0.000 OA
ATOM     16  H   UNL     1       1.224   7.318  21.610  0.00  0.00    +0.000 HD
BRANCH  13  17
ATOM     17  C   UNL     1       2.396   6.658  19.983  0.00  0.00    +0.000 C 
BRANCH  17  18
ATOM     18  C   UNL     1       2.251   5.219  20.521  0.00  0.00    +0.000 C 
BRANCH  18  19
ATOM     19  N   UNL     1       1.791   4.213  19.534  0.00  0.00    +0.000 NA
BRANCH  19  21
ATOM     20  C   UNL     1       2.551   3.321  17.287  0.00  0.00    +0.000 C 
ATOM     21  C   UNL     1       2.912   3.713  18.715  0.00  0.00    +0.000 C 
ENDBRANCH  19  21
BRANCH  19  22
ATOM     22  C   UNL     1       1.028   3.133  20.200  0.00  0.00    +0.000 C 
ATOM     23  C   UNL     1       1.538   2.669  21.565  0.00  0.00    +0.000 C 
ENDBRANCH  19  22
ENDBRANCH  18  19
ENDBRANCH  17  18
ENDBRANCH  13  17
ENDBRANCH   1  14
TORSDOF 7
ENDMDL
MODEL 9
REMARK VINA RESULT:      -6.5      4.551      6.739
REMARK  Name = 
REMARK  9 active torsions:
REMARK  status: ('A' for Active; 'I' for Inactive)
REMARK    1  A    between atoms: C_1  and  C_2
REMARK    2  A    between atoms: C_2  and  N_3
REMARK    3  A    between atoms: N_3  and  C_4
REMARK    4  A    between atoms: N_3  and  C_6
REMARK    5  A    between atoms: C_4  and  C_5
REMARK    6  A    between atoms: C_6  and  C_7
REMARK    7  A    between atoms: C_7  and  N_8
REMARK    8  A    between atoms: C_9  and  C_11
REMARK    9  A    between atoms: C_14  and  C_15
REMARK                            x       y       z     vdW  Elec       q    Type
REMARK                         _______ _______ _______ _____ _____    ______ ____
ROOT
ATOM      1  C   UNL     1       6.129   6.716  17.728  0.00  0.00    +0.000 A 
ATOM      2  C   UNL     1       4.869   6.951  17.231  0.00  0.00    +0.000 A 
ATOM      3  N   UNL     1       3.790   6.201  17.548  0.00  0.00    +0.000 NA
ATOM      4  C   UNL     1       3.990   5.164  18.392  0.00  0.00    +0.000 A 
ATOM      5  N   UNL     1       5.194   4.838  18.908  0.00  0.00    +0.000 NA
ATOM      6  C   UNL     1       6.240   5.618  18.553  0.00  0.00    +0.000 A 
ENDROOT
BRANCH   4   7
ATOM      7  C   UNL     1       2.813   4.375  18.807  0.00  0.00    +0.000 A 
ATOM      8  C   UNL     1       2.064   4.722  19.947  0.00  0.00    +0.000 A 
ATOM      9  C   UNL     1       0.979   3.953  20.376  0.00  0.00    +0.000 A 
ATOM     10  C   UNL     1       0.611   2.816  19.665  0.00  0.00    +0.000 A 
ATOM     11  C   UNL     1       1.317   2.456  18.523  0.00  0.00    +0.000 A 
ATOM     12  C   UNL     1       2.402   3.228  18.096  0.00  0.00    +0.000 A 
ENDBRANCH   4   7
BRANCH   1  14
ATOM     13  N   UNL     1       7.524   8.685  18.068  0.00  0.00    +0.000 N 
ATOM     14  C   UNL     1       7.311   7.513  17.372  0.00  0.00    +0.000 C 
ATOM     15  O   UNL     1       8.062   7.104  16.496  0.00  0.00    +0.000 OA
ATOM     16  H   UNL     1       7.083   8.843  18.969  0.00  0.00    +0.000 HD
BRANCH  13  17
ATOM     17  C   UNL     1       8.713   9.470  17.782  0.00  0.00    +0.000 C 
BRANCH  17  18
ATOM     18  C   UNL     1       8.558  10.972  18.106  0.00  0.00    +0.000 C 
BRANCH  18  19
ATOM     19  N   UNL     1       9.545  11.522  19.065  0.00  0.00    +0.000 NA
BRANCH  19  21
ATOM     20  C   UNL     1       8.981  11.833  21.516  0.00  0.00    +0.000 C 
ATOM     21  C   UNL     1       9.408  10.895  20.393  0.00  0.00    +0.000 C 
ENDBRANCH  19  21
BRANCH  19  22
ATOM     22  C   UNL     1      10.918  11.434  18.516  0.00  0.00    +0.000 C 
ATOM     23  C   UNL     1      12.059  11.843  19.448  0.00  0.00    +0.000 C 
ENDBRANCH  19  22
ENDBRANCH  18  19
ENDBRANCH  17  18
ENDBRANCH  13  17
ENDBRANCH   1  14
TORSDOF 7
ENDMDL
