MODEL 1
REMARK VINA RESULT:      -5.2      0.000      0.000
REMARK  Name = 
REMARK  4 active torsions:
REMARK  status: ('A' for Active; 'I' for Inactive)
REMARK    1  A    between atoms: C_2  and  C_3
REMARK    2  A    between atoms: C_3  and  C_4
REMARK    3  A    between atoms: C_4  and  N_5
REMARK    4  A    between atoms: C_4  and  C_6
REMARK                            x       y       z     vdW  Elec       q    Type
REMARK                         _______ _______ _______ _____ _____    ______ ____
ROOT
ATOM      1  C   UNL     1       2.809   6.584  19.451  0.00  0.00    +0.000 C 
ENDROOT
BRANCH   1   2
ATOM      2  C   UNL     1       2.076   5.255  19.396  0.00  0.00    +0.000 A 
ATOM      3  C   UNL     1       1.583   4.685  20.576  0.00  0.00    +0.000 A 
ATOM      4  C   UNL     1       1.016   3.412  20.560  0.00  0.00    +0.000 A 
ATOM      5  C   UNL     1       0.930   2.699  19.365  0.00  0.00    +0.000 A 
ATOM      6  C   UNL     1       1.388   3.267  18.180  0.00  0.00    +0.000 A 
ATOM      7  C   UNL     1       1.949   4.542  18.190  0.00  0.00    +0.000 A 
ENDBRANCH   1   2
BRANCH   1   8
ATOM      8  N   UNL     1       2.074   7.506  20.332  0.00  0.00    +0.000 NA
ATOM      9  H   UNL     1       1.110   7.207  20.458  0.00  0.00    +0.000 HD
ATOM     10  H   UNL     1       2.064   8.454  19.966  0.00  0.00    +0.000 HD
ENDBRANCH   1   8
BRANCH   1  11
ATOM     11  C   UNL     1       3.071   7.126  18.021  0.00  0.00    +0.000 C 
BRANCH  11  13
ATOM     12  N   UNL     1       1.945   9.483  17.625  0.00  0.00    +0.000 NA
ATOM     13  C   UNL     1       2.439   8.447  17.816  0.00  0.00    +0.000 C 
ENDBRANCH  11  13
ENDBRANCH   1  11
TORSDOF 4
ENDMDL
MODEL 2
REMARK VINA RESULT:      -5.2      3.376      3.864
REMARK  Name = 
REMARK  4 active torsions:
REMARK  status: ('A' for Active; 'I' for Inactive)
REMARK    1  A    between atoms: C_2  and  C_3
REMARK    2  A    between atoms: C_3  and  C_4
REMARK    3  A    between atoms: C_4  and  N_5
REMARK    4  A    between atoms: C_4  and  C_6
REMARK                            x       y       z     vdW  Elec       q    Type
REMARK                         _______ _______ _______ _____ _____    ______ ____
ROOT
ATOM      1  C   UNL     1       5.190   3.875  17.130  0.00  0.00    +0.000 C 
ENDROOT
BRANCH   1   2
ATOM      2  C   UNL     1       3.768   3.544  17.549  0.00  0.00    +0.000 A 
ATOM      3  C   UNL     1       2.805   4.560  17.598  0.00  0.00    +0.000 A 
ATOM      4  C   UNL     1       1.529   4.297  18.095  0.00  0.00    +0.000 A 
ATOM      5  C   UNL     1       1.202   3.017  18.541  0.00  0.00    +0.000 A 
ATOM      6  C   UNL     1       2.140   1.992  18.468  0.00  0.00    +0.000 A 
ATOM      7  C   UNL     1       3.414   2.248  17.966  0.00  0.00    +0.000 A 
ENDBRANCH   1   2
BRANCH   1   8
ATOM      8  N   UNL     1       6.042   3.953  18.327  0.00  0.00    +0.000 NA
ATOM      9  H   UNL     1       6.929   4.405  18.121  0.00  0.00    +0.000 HD
ATOM     10  H   UNL     1       6.238   3.035  18.715  0.00  0.00    +0.000 HD
ENDBRANCH   1   8
BRANCH   1  11
ATOM     11  C   UNL     1       5.216   5.142  16.234  0.00  0.00    +0.000 C 
BRANCH  11  13
ATOM     12  N   UNL     1       7.442   6.520  16.588  0.00  0.00    +0.000 NA
ATOM     13  C   UNL     1       6.452   5.926  16.436  0.00  0.00    +0.000 C 
ENDBRANCH  11  13
ENDBRANCH   1  11
TORSDOF 4
ENDMDL
MODEL 3
REMARK VINA RESULT:      -5.1      3.422      3.905
REMARK  Name = 
REMARK  4 active torsions:
REMARK  status: ('A' for Active; 'I' for Inactive)
REMARK    1  A    between atoms: C_2  and  C_3
REMARK    2  A    between atoms: C_3  and  C_4
REMARK    3  A    between atoms: C_4  and  N_5
REMARK    4  A    between atoms: C_4  and  C_6
REMARK                            x       y       z     vdW  Elec       q    Type
REMARK                         _______ _______ _______ _____ _____    ______ ____
ROOT
ATOM      1  C   UNL     1       5.397   4.057  17.074  0.00  0.00    +0.000 C 
ENDROOT
BRANCH   1   2
ATOM      2  C   UNL     1       3.985   3.800  17.569  0.00  0.00    +0.000 A 
ATOM      3  C   UNL     1       3.574   2.488  17.842  0.00  0.00    +0.000 A 
ATOM      4  C   UNL     1       2.249   2.222  18.181  0.00  0.00    +0.000 A 
ATOM      5  C   UNL     1       1.323   3.262  18.257  0.00  0.00    +0.000 A 
ATOM      6  C   UNL     1       1.725   4.573  18.019  0.00  0.00    +0.000 A 
ATOM      7  C   UNL     1       3.051   4.845  17.687  0.00  0.00    +0.000 A 
ENDBRANCH   1   2
BRANCH   1   8
ATOM      8  N   UNL     1       6.321   4.056  18.220  0.00  0.00    +0.000 NA
ATOM      9  H   UNL     1       6.756   4.966  18.345  0.00  0.00    +0.000 HD
ATOM     10  H   UNL     1       7.058   3.366  18.112  0.00  0.00    +0.000 HD
ENDBRANCH   1   8
BRANCH   1  11
ATOM     11  C   UNL     1       5.447   5.342  16.205  0.00  0.00    +0.000 C 
BRANCH  11  13
ATOM     12  N   UNL     1       7.553   6.832  16.781  0.00  0.00    +0.000 NA
ATOM     13  C   UNL     1       6.617   6.181  16.541  0.00  0.00    +0.000 C 
ENDBRANCH  11  13
ENDBRANCH   1  11
TORSDOF 4
ENDMDL
MODEL 4
REMARK VINA RESULT:      -5.1      0.303      1.488
REMARK  Name = 
REMARK  4 active torsions:
REMARK  status: ('A' for Active; 'I' for Inactive)
REMARK    1  A    between atoms: C_2  and  C_3
REMARK    2  A    between atoms: C_3  and  C_4
REMARK    3  A    between atoms: C_4  and  N_5
REMARK    4  A    between atoms: C_4  and  C_6
REMARK                            x       y       z     vdW  Elec       q    Type
REMARK                         _______ _______ _______ _____ _____    ______ ____
ROOT
ATOM      1  C   UNL     1       2.719   6.758  19.422  0.00  0.00    +0.000 C 
ENDROOT
BRANCH   1   2
ATOM      2  C   UNL     1       2.153   5.348  19.429  0.00  0.00    +0.000 A 
ATOM      3  C   UNL     1       2.001   4.656  18.221  0.00  0.00    +0.000 A 
ATOM      4  C   UNL     1       1.373   3.412  18.196  0.00  0.00    +0.000 A 
ATOM      5  C   UNL     1       0.895   2.846  19.377  0.00  0.00    +0.000 A 
ATOM      6  C   UNL     1       1.067   3.509  20.588  0.00  0.00    +0.000 A 
ATOM      7  C   UNL     1       1.702   4.750  20.619  0.00  0.00    +0.000 A 
ENDBRANCH   1   2
BRANCH   1   8
ATOM      8  N   UNL     1       2.051   7.554  20.464  0.00  0.00    +0.000 NA
ATOM      9  H   UNL     1       1.618   8.386  20.073  0.00  0.00    +0.000 HD
ATOM     10  H   UNL     1       2.697   7.846  21.192  0.00  0.00    +0.000 HD
ENDBRANCH   1   8
BRANCH   1  11
ATOM     11  C   UNL     1       2.650   7.370  17.998  0.00  0.00    +0.000 C 
BRANCH  11  13
ATOM     12  N   UNL     1       1.619   9.802  18.003  0.00  0.00    +0.000 NA
ATOM     13  C   UNL     1       2.072   8.729  18.017  0.00  0.00    +0.000 C 
ENDBRANCH  11  13
ENDBRANCH   1  11
TORSDOF 4
ENDMDL
MODEL 5
REMARK VINA RESULT:      -5.1      3.977      4.974
REMARK  Name = 
REMARK  4 active torsions:
REMARK  status: ('A' for Active; 'I' for Inactive)
REMARK    1  A    between atoms: C_2  and  C_3
REMARK    2  A    between atoms: C_3  and  C_4
REMARK    3  A    between atoms: C_4  and  N_5
REMARK    4  A    between atoms: C_4  and  C_6
REMARK                            x       y       z     vdW  Elec       q    Type
REMARK                         _______ _______ _______ _____ _____    ______ ____
ROOT
ATOM      1  C   UNL     1       6.770   5.908  16.679  0.00  0.00    +0.000 C 
ENDROOT
BRANCH   1   2
ATOM      2  C   UNL     1       5.317   5.620  17.016  0.00  0.00    +0.000 A 
ATOM      3  C   UNL     1       4.491   6.659  17.463  0.00  0.00    +0.000 A 
ATOM      4  C   UNL     1       3.191   6.391  17.890  0.00  0.00    +0.000 A 
ATOM      5  C   UNL     1       2.703   5.085  17.869  0.00  0.00    +0.000 A 
ATOM      6  C   UNL     1       3.504   4.048  17.397  0.00  0.00    +0.000 A 
ATOM      7  C   UNL     1       4.801   4.313  16.962  0.00  0.00    +0.000 A 
ENDBRANCH   1   2
BRANCH   1   8
ATOM      8  N   UNL     1       7.450   4.645  16.349  0.00  0.00    +0.000 NA
ATOM      9  H   UNL     1       8.346   4.572  16.823  0.00  0.00    +0.000 HD
ATOM     10  H   UNL     1       7.613   4.550  15.351  0.00  0.00    +0.000 HD
ENDBRANCH   1   8
BRANCH   1  11
ATOM     11  C   UNL     1       7.444   6.726  17.812  0.00  0.00    +0.000 C 
BRANCH  11  13
ATOM     12  N   UNL     1       7.701   5.328  20.039  0.00  0.00    +0.000 NA
ATOM     13  C   UNL     1       7.576   5.933  19.052  0.00  0.00    +0.000 C 
ENDBRANCH  11  13
ENDBRANCH   1  11
TORSDOF 4
ENDMDL
MODEL 6
REMARK VINA RESULT:      -5.1      3.301      3.878
REMARK  Name = 
REMARK  4 active torsions:
REMARK  status: ('A' for Active; 'I' for Inactive)
REMARK    1  A    between atoms: C_2  and  C_3
REMARK    2  A    between atoms: C_3  and  C_4
REMARK    3  A    between atoms: C_4  and  N_5
REMARK    4  A    between atoms: C_4  and  C_6
REMARK                            x       y       z     vdW  Elec       q    Type
REMARK                         _______ _______ _______ _____ _____    ______ ____
ROOT
ATOM      1  C   UNL     1       4.788   4.699  17.014  0.00  0.00    +0.000 C 
ENDROOT
BRANCH   1   2
ATOM      2  C   UNL     1       3.597   3.888  17.495  0.00  0.00    +0.000 A 
ATOM      3  C   UNL     1       2.364   4.522  17.700  0.00  0.00    +0.000 A 
ATOM      4  C   UNL     1       1.295   3.820  18.255  0.00  0.00    +0.000 A 
ATOM      5  C   UNL     1       1.445   2.479  18.604  0.00  0.00    +0.000 A 
ATOM      6  C   UNL     1       2.655   1.829  18.376  0.00  0.00    +0.000 A 
ATOM      7  C   UNL     1       3.724   2.525  17.815  0.00  0.00    +0.000 A 
ENDBRANCH   1   2
BRANCH   1   8
ATOM      8  N   UNL     1       5.928   3.796  16.788  0.00  0.00    +0.000 NA
ATOM      9  H   UNL     1       6.773   4.151  17.229  0.00  0.00    +0.000 HD
ATOM     10  H   UNL     1       6.120   3.666  15.799  0.00  0.00    +0.000 HD
ENDBRANCH   1   8
BRANCH   1  11
ATOM     11  C   UNL     1       5.077   5.876  17.983  0.00  0.00    +0.000 C 
BRANCH  11  13
ATOM     12  N   UNL     1       6.956   5.236  19.728  0.00  0.00    +0.000 NA
ATOM     13  C   UNL     1       6.119   5.524  18.971  0.00  0.00    +0.000 C 
ENDBRANCH  11  13
ENDBRANCH   1  11
TORSDOF 4
ENDMDL
MODEL 7
REMARK VINA RESULT:      -5.1      3.910      4.581
REMARK  Name = 
REMARK  4 active torsions:
REMARK  status: ('A' for Active; 'I' for Inactive)
REMARK    1  A    between atoms: C_2  and  C_3
REMARK    2  A    between atoms: C_3  and  C_4
REMARK    3  A    between atoms: C_4  and  N_5
REMARK    4  A    between atoms: C_4  and  C_6
REMARK                            x       y       z     vdW  Elec       q    Type
REMARK                         _______ _______ _______ _____ _____    ______ ____
ROOT
ATOM      1  C   UNL     1       5.523   5.432  16.662  0.00  0.00    +0.000 C 
ENDROOT
BRANCH   1   2
ATOM      2  C   UNL     1       4.194   4.923  17.195  0.00  0.00    +0.000 A 
ATOM      3  C   UNL     1       3.830   3.586  16.987  0.00  0.00    +0.000 A 
ATOM      4  C   UNL     1       2.566   3.134  17.362  0.00  0.00    +0.000 A 
ATOM      5  C   UNL     1       1.657   4.010  17.954  0.00  0.00    +0.000 A 
ATOM      6  C   UNL     1       2.018   5.333  18.195  0.00  0.00    +0.000 A 
ATOM      7  C   UNL     1       3.283   5.787  17.828  0.00  0.00    +0.000 A 
ENDBRANCH   1   2
BRANCH   1   8
ATOM      8  N   UNL     1       5.298   6.680  15.915  0.00  0.00    +0.000 NA
ATOM      9  H   UNL     1       4.481   7.175  16.260  0.00  0.00    +0.000 HD
ATOM     10  H   UNL     1       5.168   6.510  14.922  0.00  0.00    +0.000 HD
ENDBRANCH   1   8
BRANCH   1  11
ATOM     11  C   UNL     1       6.254   4.322  15.861  0.00  0.00    +0.000 C 
BRANCH  11  13
ATOM     12  N   UNL     1       7.718   5.356  13.920  0.00  0.00    +0.000 NA
ATOM     13  C   UNL     1       7.069   4.888  14.766  0.00  0.00    +0.000 C 
ENDBRANCH  11  13
ENDBRANCH   1  11
TORSDOF 4
ENDMDL
MODEL 8
REMARK VINA RESULT:      -5.1      3.161      3.478
REMARK  Name = 
REMARK  4 active torsions:
REMARK  status: ('A' for Active; 'I' for Inactive)
REMARK    1  A    between atoms: C_2  and  C_3
REMARK    2  A    between atoms: C_3  and  C_4
REMARK    3  A    between atoms: C_4  and  N_5
REMARK    4  A    between atoms: C_4  and  C_6
REMARK                            x       y       z     vdW  Elec       q    Type
REMARK                         _______ _______ _______ _____ _____    ______ ____
ROOT
ATOM      1  C   UNL     1       4.718   4.095  17.669  0.00  0.00    +0.000 C 
ENDROOT
BRANCH   1   2
ATOM      2  C   UNL     1       3.417   4.121  18.453  0.00  0.00    +0.000 A 
ATOM      3  C   UNL     1       3.335   4.866  19.637  0.00  0.00    +0.000 A 
ATOM      4  C   UNL     1       2.190   4.805  20.429  0.00  0.00    +0.000 A 
ATOM      5  C   UNL     1       1.115   4.005  20.045  0.00  0.00    +0.000 A 
ATOM      6  C   UNL     1       1.171   3.285  18.855  0.00  0.00    +0.000 A 
ATOM      7  C   UNL     1       2.311   3.349  18.056  0.00  0.00    +0.000 A 
ENDBRANCH   1   2
BRANCH   1   8
ATOM      8  N   UNL     1       5.842   3.921  18.603  0.00  0.00    +0.000 NA
ATOM      9  H   UNL     1       5.714   3.099  19.186  0.00  0.00    +0.000 HD
ATOM     10  H   UNL     1       5.957   4.725  19.213  0.00  0.00    +0.000 HD
ENDBRANCH   1   8
BRANCH   1  11
ATOM     11  C   UNL     1       4.829   5.339  16.749  0.00  0.00    +0.000 C 
BRANCH  11  13
ATOM     12  N   UNL     1       7.346   6.009  16.306  0.00  0.00    +0.000 NA
ATOM     13  C   UNL     1       6.238   5.721  16.517  0.00  0.00    +0.000 C 
ENDBRANCH  11  13
ENDBRANCH   1  11
TORSDOF 4
ENDMDL
MODEL 9
REMARK VINA RESULT:      -5.0      2.949      5.035
REMARK  Name = 
REMARK  4 active torsions:
REMARK  status: ('A' for Active; 'I' for Inactive)
REMARK    1  A    between atoms: C_2  and  C_3
REMARK    2  A    between atoms: C_3  and  C_4
REMARK    3  A    between atoms: C_4  and  N_5
REMARK    4  A    between atoms: C_4  and  C_6
REMARK                            x       y       z     vdW  Elec       q    Type
REMARK                         _______ _______ _______ _____ _____    ______ ____
ROOT
ATOM      1  C   UNL     1       2.299   2.968  18.677  0.00  0.00    +0.000 C 
ENDROOT
BRANCH   1   2
ATOM      2  C   UNL     1       2.873   4.266  18.135  0.00  0.00    +0.000 A 
ATOM      3  C   UNL     1       3.968   4.229  17.262  0.00  0.00    +0.000 A 
ATOM      4  C   UNL     1       4.581   5.411  16.851  0.00  0.00    +0.000 A 
ATOM      5  C   UNL     1       4.104   6.641  17.303  0.00  0.00    +0.000 A 
ATOM      6  C   UNL     1       2.998   6.693  18.146  0.00  0.00    +0.000 A 
ATOM      7  C   UNL     1       2.377   5.514  18.553  0.00  0.00    +0.000 A 
ENDBRANCH   1   2
BRANCH   1   8
ATOM      8  N   UNL     1       2.047   2.046  17.559  0.00  0.00    +0.000 NA
ATOM      9  H   UNL     1       2.578   1.186  17.662  0.00  0.00    +0.000 HD
ATOM     10  H   UNL     1       2.287   2.459  16.663  0.00  0.00    +0.000 HD
ENDBRANCH   1   8
BRANCH   1  11
ATOM     11  C   UNL     1       1.065   3.248  19.576  0.00  0.00    +0.000 C 
BRANCH  11  13
ATOM     12  N   UNL     1       1.550   2.578  22.085  0.00  0.00    +0.000 NA
ATOM     13  C   UNL     1       1.324   2.883  20.984  0.00  0.00    +0.000 C 
ENDBRANCH  11  13
ENDBRANCH   1  11
TORSDOF 4
ENDMDL
