MODEL 1
REMARK VINA RESULT:      -6.1      0.000      0.000
REMARK  Name = 
REMARK  19 active torsions:
REMARK  status: ('A' for Active; 'I' for Inactive)
REMARK    1  A    between atoms: C_2  and  C_3
REMARK    2  A    between atoms: C_3  and  C_4
REMARK    3  A    between atoms: C_5  and  C_6
REMARK    4  A    between atoms: C_6  and  C_7
REMARK    5  A    between atoms: C_8  and  C_9
REMARK    6  A    between atoms: C_9  and  C_10
REMARK    7  A    between atoms: C_10  and  C_11
REMARK    8  A    between atoms: C_11  and  C_12
REMARK    9  A    between atoms: C_12  and  C_13
REMARK   10  A    between atoms: C_13  and  C_14
REMARK   11  A    between atoms: C_14  and  C_15
REMARK   12  A    between atoms: C_15  and  C_16
REMARK   13  A    between atoms: C_17  and  O_18
REMARK   14  A    between atoms: C_19  and  O_20
REMARK   15  A    between atoms: O_20  and  C_21
REMARK   16  A    between atoms: C_23  and  O_24
REMARK   17  A    between atoms: O_24  and  C_25
REMARK   18  A    between atoms: C_25  and  C_26
REMARK   19  A    between atoms: C_27  and  O_28
REMARK                            x       y       z     vdW  Elec       q    Type
REMARK                         _______ _______ _______ _____ _____    ______ ____
ROOT
ATOM      1  C   UNL     1       2.130   7.287  18.237  0.00  0.00    +0.000 C 
ENDROOT
BRANCH   1   2
ATOM      2  C   UNL     1       1.702   8.415  19.142  0.00  0.00    +0.000 A 
ATOM      3  C   UNL     1       1.588   8.254  20.536  0.00  0.00    +0.000 A 
ATOM      4  C   UNL     1       1.238   9.330  21.360  0.00  0.00    +0.000 A 
ATOM      5  C   UNL     1       0.956  10.574  20.777  0.00  0.00    +0.000 A 
ATOM      6  C   UNL     1       1.015  10.748  19.398  0.00  0.00    +0.000 A 
ATOM      7  C   UNL     1       1.398   9.668  18.596  0.00  0.00    +0.000 A 
BRANCH   7   8
ATOM      8  O   UNL     1       1.473   9.840  17.239  0.00  0.00    +0.000 OA
ATOM      9  H   UNL     1       2.307   9.397  16.984  0.00  0.00    +0.000 HD
ENDBRANCH   7   8
BRANCH   4  10
ATOM     10  O   UNL     1       1.145   9.362  22.729  0.00  0.00    +0.000 OA
ATOM     11  C   UNL     1      -0.132   9.536  23.324  0.00  0.00    +0.000 C 
ENDBRANCH   4  10
BRANCH   3  12
ATOM     12  O   UNL     1       1.817   7.015  21.069  0.00  0.00    +0.000 OA
ATOM     13  H   UNL     1       2.763   6.990  21.298  0.00  0.00    +0.000 HD
ENDBRANCH   3  12
BRANCH   6  14
ATOM     14  O   UNL     1       0.740  11.903  18.712  0.00  0.00    +0.000 OA
BRANCH  14  15
ATOM     15  C   UNL     1      -0.620  12.337  18.718  0.00  0.00    +0.000 C 
ATOM     16  C   UNL     1      -0.697  13.635  19.498  0.00  0.00    +0.000 C 
ENDBRANCH  14  15
ENDBRANCH   6  14
ENDBRANCH   1   2
BRANCH   1  17
ATOM     17  C   UNL     1       3.646   7.241  18.018  0.00  0.00    +0.000 C 
BRANCH  17  18
ATOM     18  C   UNL     1       4.028   7.185  16.531  0.00  0.00    +0.000 C 
BRANCH  18  19
ATOM     19  C   UNL     1       5.477   6.744  16.353  0.00  0.00    +0.000 C 
BRANCH  19  20
ATOM     20  C   UNL     1       6.422   7.239  17.448  0.00  0.00    +0.000 C 
BRANCH  20  21
ATOM     21  C   UNL     1       7.531   6.212  17.734  0.00  0.00    +0.000 C 
BRANCH  21  22
ATOM     22  C   UNL     1       6.944   4.813  17.934  0.00  0.00    +0.000 C 
BRANCH  22  24
ATOM     23  C   UNL     1       4.845   4.082  19.047  0.00  0.00    +0.000 C 
ATOM     24  C   UNL     1       6.066   4.644  19.137  0.00  0.00    +0.000 C 
BRANCH  23  25
ATOM     25  C   UNL     1       4.269   3.464  17.800  0.00  0.00    +0.000 C 
BRANCH  25  27
ATOM     26  C   UNL     1       2.161   2.224  18.383  0.00  0.00    +0.000 C 
ATOM     27  C   UNL     1       3.469   2.219  18.069  0.00  0.00    +0.000 C 
BRANCH  26  28
ATOM     28  C   UNL     1       1.282   3.443  18.439  0.00  0.00    +0.000 C 
BRANCH  28  30
ATOM     29  C   UNL     1       1.336   3.139  20.930  0.00  0.00    +0.000 C 
ATOM     30  C   UNL     1       0.989   3.857  19.852  0.00  0.00    +0.000 C 
ENDBRANCH  28  30
ENDBRANCH  26  28
ENDBRANCH  25  27
ENDBRANCH  23  25
ENDBRANCH  22  24
ENDBRANCH  21  22
ENDBRANCH  20  21
ENDBRANCH  19  20
ENDBRANCH  18  19
ENDBRANCH  17  18
ENDBRANCH   1  17
TORSDOF 17
ENDMDL
MODEL 2
REMARK VINA RESULT:      -5.8      1.263      1.709
REMARK  Name = 
REMARK  19 active torsions:
REMARK  status: ('A' for Active; 'I' for Inactive)
REMARK    1  A    between atoms: C_2  and  C_3
REMARK    2  A    between atoms: C_3  and  C_4
REMARK    3  A    between atoms: C_5  and  C_6
REMARK    4  A    between atoms: C_6  and  C_7
REMARK    5  A    between atoms: C_8  and  C_9
REMARK    6  A    between atoms: C_9  and  C_10
REMARK    7  A    between atoms: C_10  and  C_11
REMARK    8  A    between atoms: C_11  and  C_12
REMARK    9  A    between atoms: C_12  and  C_13
REMARK   10  A    between atoms: C_13  and  C_14
REMARK   11  A    between atoms: C_14  and  C_15
REMARK   12  A    between atoms: C_15  and  C_16
REMARK   13  A    between atoms: C_17  and  O_18
REMARK   14  A    between atoms: C_19  and  O_20
REMARK   15  A    between atoms: O_20  and  C_21
REMARK   16  A    between atoms: C_23  and  O_24
REMARK   17  A    between atoms: O_24  and  C_25
REMARK   18  A    between atoms: C_25  and  C_26
REMARK   19  A    between atoms: C_27  and  O_28
REMARK                            x       y       z     vdW  Elec       q    Type
REMARK                         _______ _______ _______ _____ _____    ______ ____
ROOT
ATOM      1  C   UNL     1       2.212   7.331  18.490  0.00  0.00    +0.000 C 
ENDROOT
BRANCH   1   2
ATOM      2  C   UNL     1       1.694   8.508  19.278  0.00  0.00    +0.000 A 
ATOM      3  C   UNL     1       1.394   8.417  20.650  0.00  0.00    +0.000 A 
ATOM      4  C   UNL     1       0.962   9.537  21.370  0.00  0.00    +0.000 A 
ATOM      5  C   UNL     1       0.789  10.756  20.699  0.00  0.00    +0.000 A 
ATOM      6  C   UNL     1       1.033  10.863  19.334  0.00  0.00    +0.000 A 
ATOM      7  C   UNL     1       1.494   9.738  18.639  0.00  0.00    +0.000 A 
BRANCH   7   8
ATOM      8  O   UNL     1       1.751   9.844  17.298  0.00  0.00    +0.000 OA
ATOM      9  H   UNL     1       1.670  10.800  17.110  0.00  0.00    +0.000 HD
ENDBRANCH   7   8
BRANCH   4  10
ATOM     10  O   UNL     1       0.690   9.636  22.712  0.00  0.00    +0.000 OA
ATOM     11  C   UNL     1      -0.615  10.018  23.119  0.00  0.00    +0.000 C 
ENDBRANCH   4  10
BRANCH   3  12
ATOM     12  O   UNL     1       1.521   7.201  21.265  0.00  0.00    +0.000 OA
ATOM     13  H   UNL     1       1.872   6.593  20.591  0.00  0.00    +0.000 HD
ENDBRANCH   3  12
BRANCH   6  14
ATOM     14  O   UNL     1       0.878  11.987  18.565  0.00  0.00    +0.000 OA
BRANCH  14  15
ATOM     15  C   UNL     1       1.497  13.178  19.051  0.00  0.00    +0.000 C 
ATOM     16  C   UNL     1       2.815  13.355  18.323  0.00  0.00    +0.000 C 
ENDBRANCH  14  15
ENDBRANCH   6  14
ENDBRANCH   1   2
BRANCH   1  17
ATOM     17  C   UNL     1       3.203   6.473  19.282  0.00  0.00    +0.000 C 
BRANCH  17  18
ATOM     18  C   UNL     1       4.564   6.339  18.581  0.00  0.00    +0.000 C 
BRANCH  18  19
ATOM     19  C   UNL     1       5.452   5.326  19.295  0.00  0.00    +0.000 C 
BRANCH  19  20
ATOM     20  C   UNL     1       6.946   5.642  19.222  0.00  0.00    +0.000 C 
BRANCH  20  21
ATOM     21  C   UNL     1       7.407   5.830  17.767  0.00  0.00    +0.000 C 
BRANCH  21  22
ATOM     22  C   UNL     1       7.213   4.543  16.961  0.00  0.00    +0.000 C 
BRANCH  22  24
ATOM     23  C   UNL     1       5.160   4.091  15.636  0.00  0.00    +0.000 C 
ATOM     24  C   UNL     1       6.372   4.671  15.728  0.00  0.00    +0.000 C 
BRANCH  23  25
ATOM     25  C   UNL     1       4.462   3.366  16.758  0.00  0.00    +0.000 C 
BRANCH  25  27
ATOM     26  C   UNL     1       2.185   3.214  17.814  0.00  0.00    +0.000 C 
ATOM     27  C   UNL     1       2.989   3.661  16.832  0.00  0.00    +0.000 C 
BRANCH  26  28
ATOM     28  C   UNL     1       2.631   2.429  19.017  0.00  0.00    +0.000 C 
BRANCH  28  30
ATOM     29  C   UNL     1       1.065   3.636  20.562  0.00  0.00    +0.000 C 
ATOM     30  C   UNL     1       2.275   3.122  20.300  0.00  0.00    +0.000 C 
ENDBRANCH  28  30
ENDBRANCH  26  28
ENDBRANCH  25  27
ENDBRANCH  23  25
ENDBRANCH  22  24
ENDBRANCH  21  22
ENDBRANCH  20  21
ENDBRANCH  19  20
ENDBRANCH  18  19
ENDBRANCH  17  18
ENDBRANCH   1  17
TORSDOF 17
ENDMDL
MODEL 3
REMARK VINA RESULT:      -5.7      1.988      3.378
REMARK  Name = 
REMARK  19 active torsions:
REMARK  status: ('A' for Active; 'I' for Inactive)
REMARK    1  A    between atoms: C_2  and  C_3
REMARK    2  A    between atoms: C_3  and  C_4
REMARK    3  A    between atoms: C_5  and  C_6
REMARK    4  A    between atoms: C_6  and  C_7
REMARK    5  A    between atoms: C_8  and  C_9
REMARK    6  A    between atoms: C_9  and  C_10
REMARK    7  A    between atoms: C_10  and  C_11
REMARK    8  A    between atoms: C_11  and  C_12
REMARK    9  A    between atoms: C_12  and  C_13
REMARK   10  A    between atoms: C_13  and  C_14
REMARK   11  A    between atoms: C_14  and  C_15
REMARK   12  A    between atoms: C_15  and  C_16
REMARK   13  A    between atoms: C_17  and  O_18
REMARK   14  A    between atoms: C_19  and  O_20
REMARK   15  A    between atoms: O_20  and  C_21
REMARK   16  A    between atoms: C_23  and  O_24
REMARK   17  A    between atoms: O_24  and  C_25
REMARK   18  A    between atoms: C_25  and  C_26
REMARK   19  A    between atoms: C_27  and  O_28
REMARK                            x       y       z     vdW  Elec       q    Type
REMARK                         _______ _______ _______ _____ _____    ______ ____
ROOT
ATOM      1  C   UNL     1       0.920   9.667  17.984  0.00  0.00    +0.000 C 
ENDROOT
BRANCH   1   2
ATOM      2  C   UNL     1       1.118  10.838  18.915  0.00  0.00    +0.000 A 
ATOM      3  C   UNL     1       1.921  11.941  18.570  0.00  0.00    +0.000 A 
ATOM      4  C   UNL     1       2.048  13.038  19.430  0.00  0.00    +0.000 A 
ATOM      5  C   UNL     1       1.396  13.013  20.672  0.00  0.00    +0.000 A 
ATOM      6  C   UNL     1       0.634  11.915  21.057  0.00  0.00    +0.000 A 
ATOM      7  C   UNL     1       0.494  10.842  20.169  0.00  0.00    +0.000 A 
BRANCH   7   8
ATOM      8  O   UNL     1      -0.269   9.767  20.539  0.00  0.00    +0.000 OA
ATOM      9  H   UNL     1       0.184   8.998  20.137  0.00  0.00    +0.000 HD
ENDBRANCH   7   8
BRANCH   4  10
ATOM     10  O   UNL     1       2.733  14.209  19.224  0.00  0.00    +0.000 OA
ATOM     11  C   UNL     1       3.422  14.801  20.316  0.00  0.00    +0.000 C 
ENDBRANCH   4  10
BRANCH   3  12
ATOM     12  O   UNL     1       2.588  11.913  17.376  0.00  0.00    +0.000 OA
ATOM     13  H   UNL     1       3.060  11.062  17.350  0.00  0.00    +0.000 HD
ENDBRANCH   3  12
BRANCH   6  14
ATOM     14  O   UNL     1      -0.029  11.762  22.248  0.00  0.00    +0.000 OA
BRANCH  14  15
ATOM     15  C   UNL     1      -0.941  12.801  22.603  0.00  0.00    +0.000 C 
ATOM     16  C   UNL     1      -2.350  12.260  22.462  0.00  0.00    +0.000 C 
ENDBRANCH  14  15
ENDBRANCH   6  14
ENDBRANCH   1   2
BRANCH   1  17
ATOM     17  C   UNL     1       2.122   8.718  17.956  0.00  0.00    +0.000 C 
BRANCH  17  18
ATOM     18  C   UNL     1       2.239   7.872  19.233  0.00  0.00    +0.000 C 
BRANCH  18  19
ATOM     19  C   UNL     1       2.449   6.399  18.898  0.00  0.00    +0.000 C 
BRANCH  19  20
ATOM     20  C   UNL     1       3.524   5.712  19.740  0.00  0.00    +0.000 C 
BRANCH  20  21
ATOM     21  C   UNL     1       4.913   5.854  19.094  0.00  0.00    +0.000 C 
BRANCH  21  22
ATOM     22  C   UNL     1       5.480   4.485  18.708  0.00  0.00    +0.000 C 
BRANCH  22  24
ATOM     23  C   UNL     1       4.587   3.691  16.529  0.00  0.00    +0.000 C 
ATOM     24  C   UNL     1       5.600   4.225  17.238  0.00  0.00    +0.000 C 
BRANCH  23  25
ATOM     25  C   UNL     1       3.211   3.405  17.071  0.00  0.00    +0.000 C 
BRANCH  25  27
ATOM     26  C   UNL     1       2.143   1.846  18.729  0.00  0.00    +0.000 C 
ATOM     27  C   UNL     1       3.138   2.134  17.870  0.00  0.00    +0.000 C 
BRANCH  26  28
ATOM     28  C   UNL     1       0.925   2.694  18.968  0.00  0.00    +0.000 C 
BRANCH  28  30
ATOM     29  C   UNL     1       1.466   2.736  21.419  0.00  0.00    +0.000 C 
ATOM     30  C   UNL     1       0.938   3.319  20.333  0.00  0.00    +0.000 C 
ENDBRANCH  28  30
ENDBRANCH  26  28
ENDBRANCH  25  27
ENDBRANCH  23  25
ENDBRANCH  22  24
ENDBRANCH  21  22
ENDBRANCH  20  21
ENDBRANCH  19  20
ENDBRANCH  18  19
ENDBRANCH  17  18
ENDBRANCH   1  17
TORSDOF 17
ENDMDL
MODEL 4
REMARK VINA RESULT:      -5.7      2.452      4.910
REMARK  Name = 
REMARK  19 active torsions:
REMARK  status: ('A' for Active; 'I' for Inactive)
REMARK    1  A    between atoms: C_2  and  C_3
REMARK    2  A    between atoms: C_3  and  C_4
REMARK    3  A    between atoms: C_5  and  C_6
REMARK    4  A    between atoms: C_6  and  C_7
REMARK    5  A    between atoms: C_8  and  C_9
REMARK    6  A    between atoms: C_9  and  C_10
REMARK    7  A    between atoms: C_10  and  C_11
REMARK    8  A    between atoms: C_11  and  C_12
REMARK    9  A    between atoms: C_12  and  C_13
REMARK   10  A    between atoms: C_13  and  C_14
REMARK   11  A    between atoms: C_14  and  C_15
REMARK   12  A    between atoms: C_15  and  C_16
REMARK   13  A    between atoms: C_17  and  O_18
REMARK   14  A    between atoms: C_19  and  O_20
REMARK   15  A    between atoms: O_20  and  C_21
REMARK   16  A    between atoms: C_23  and  O_24
REMARK   17  A    between atoms: O_24  and  C_25
REMARK   18  A    between atoms: C_25  and  C_26
REMARK   19  A    between atoms: C_27  and  O_28
REMARK                            x       y       z     vdW  Elec       q    Type
REMARK                         _______ _______ _______ _____ _____    ______ ____
ROOT
ATOM      1  C   UNL     1       2.951   7.302  18.616  0.00  0.00    +0.000 C 
ENDROOT
BRANCH   1   2
ATOM      2  C   UNL     1       1.947   8.297  19.143  0.00  0.00    +0.000 A 
ATOM      3  C   UNL     1       1.557   9.430  18.405  0.00  0.00    +0.000 A 
ATOM      4  C   UNL     1       0.586  10.311  18.895  0.00  0.00    +0.000 A 
ATOM      5  C   UNL     1       0.026  10.078  20.160  0.00  0.00    +0.000 A 
ATOM      6  C   UNL     1       0.428   8.992  20.931  0.00  0.00    +0.000 A 
ATOM      7  C   UNL     1       1.377   8.105  20.409  0.00  0.00    +0.000 A 
BRANCH   7   8
ATOM      8  O   UNL     1       1.763   7.025  21.158  0.00  0.00    +0.000 OA
ATOM      9  H   UNL     1       2.377   6.534  20.576  0.00  0.00    +0.000 HD
ENDBRANCH   7   8
BRANCH   4  10
ATOM     10  O   UNL     1       0.050  11.417  18.284  0.00  0.00    +0.000 OA
ATOM     11  C   UNL     1      -1.284  11.792  18.594  0.00  0.00    +0.000 C 
ENDBRANCH   4  10
BRANCH   3  12
ATOM     12  O   UNL     1       2.159   9.660  17.199  0.00  0.00    +0.000 OA
ATOM     13  H   UNL     1       3.017   9.201  17.233  0.00  0.00    +0.000 HD
ENDBRANCH   3  12
BRANCH   6  14
ATOM     14  O   UNL     1      -0.025   8.672  22.185  0.00  0.00    +0.000 OA
BRANCH  14  15
ATOM     15  C   UNL     1       0.113   9.681  23.185  0.00  0.00    +0.000 C 
ATOM     16  C   UNL     1      -1.181  10.469  23.242  0.00  0.00    +0.000 C 
ENDBRANCH  14  15
ENDBRANCH   6  14
ENDBRANCH   1   2
BRANCH   1  17
ATOM     17  C   UNL     1       2.306   6.188  17.786  0.00  0.00    +0.000 C 
BRANCH  17  18
ATOM     18  C   UNL     1       1.949   4.953  18.627  0.00  0.00    +0.000 C 
BRANCH  18  19
ATOM     19  C   UNL     1       1.748   3.726  17.744  0.00  0.00    +0.000 C 
BRANCH  19  20
ATOM     20  C   UNL     1       2.228   2.417  18.371  0.00  0.00    +0.000 C 
BRANCH  20  21
ATOM     21  C   UNL     1       3.672   2.094  17.951  0.00  0.00    +0.000 C 
BRANCH  21  22
ATOM     22  C   UNL     1       4.173   3.091  16.902  0.00  0.00    +0.000 C 
BRANCH  22  24
ATOM     23  C   UNL     1       5.904   4.824  16.481  0.00  0.00    +0.000 C 
ATOM     24  C   UNL     1       5.298   3.980  17.338  0.00  0.00    +0.000 C 
BRANCH  23  25
ATOM     25  C   UNL     1       5.474   5.065  15.057  0.00  0.00    +0.000 C 
BRANCH  25  27
ATOM     26  C   UNL     1       6.354   3.855  13.037  0.00  0.00    +0.000 C 
ATOM     27  C   UNL     1       6.536   4.723  14.049  0.00  0.00    +0.000 C 
BRANCH  26  28
ATOM     28  C   UNL     1       5.063   3.159  12.705  0.00  0.00    +0.000 C 
BRANCH  28  30
ATOM     29  C   UNL     1       3.431   3.193  10.799  0.00  0.00    +0.000 C 
ATOM     30  C   UNL     1       4.677   3.352  11.268  0.00  0.00    +0.000 C 
ENDBRANCH  28  30
ENDBRANCH  26  28
ENDBRANCH  25  27
ENDBRANCH  23  25
ENDBRANCH  22  24
ENDBRANCH  21  22
ENDBRANCH  20  21
ENDBRANCH  19  20
ENDBRANCH  18  19
ENDBRANCH  17  18
ENDBRANCH   1  17
TORSDOF 17
ENDMDL
MODEL 5
REMARK VINA RESULT:      -5.6      5.500      9.565
REMARK  Name = 
REMARK  19 active torsions:
REMARK  status: ('A' for Active; 'I' for Inactive)
REMARK    1  A    between atoms: C_2  and  C_3
REMARK    2  A    between atoms: C_3  and  C_4
REMARK    3  A    between atoms: C_5  and  C_6
REMARK    4  A    between atoms: C_6  and  C_7
REMARK    5  A    between atoms: C_8  and  C_9
REMARK    6  A    between atoms: C_9  and  C_10
REMARK    7  A    between atoms: C_10  and  C_11
REMARK    8  A    between atoms: C_11  and  C_12
REMARK    9  A    between atoms: C_12  and  C_13
REMARK   10  A    between atoms: C_13  and  C_14
REMARK   11  A    between atoms: C_14  and  C_15
REMARK   12  A    between atoms: C_15  and  C_16
REMARK   13  A    between atoms: C_17  and  O_18
REMARK   14  A    between atoms: C_19  and  O_20
REMARK   15  A    between atoms: O_20  and  C_21
REMARK   16  A    between atoms: C_23  and  O_24
REMARK   17  A    between atoms: O_24  and  C_25
REMARK   18  A    between atoms: C_25  and  C_26
REMARK   19  A    between atoms: C_27  and  O_28
REMARK                            x       y       z     vdW  Elec       q    Type
REMARK                         _______ _______ _______ _____ _____    ______ ____
ROOT
ATOM      1  C   UNL     1       7.731   5.431  19.065  0.00  0.00    +0.000 C 
ENDROOT
BRANCH   1   2
ATOM      2  C   UNL     1       6.584   4.986  18.193  0.00  0.00    +0.000 A 
ATOM      3  C   UNL     1       6.786   4.428  16.917  0.00  0.00    +0.000 A 
ATOM      4  C   UNL     1       5.708   3.976  16.148  0.00  0.00    +0.000 A 
ATOM      5  C   UNL     1       4.404   4.123  16.644  0.00  0.00    +0.000 A 
ATOM      6  C   UNL     1       4.173   4.715  17.882  0.00  0.00    +0.000 A 
ATOM      7  C   UNL     1       5.267   5.130  18.649  0.00  0.00    +0.000 A 
BRANCH   7   8
ATOM      8  O   UNL     1       5.044   5.698  19.875  0.00  0.00    +0.000 OA
ATOM      9  H   UNL     1       4.191   5.318  20.166  0.00  0.00    +0.000 HD
ENDBRANCH   7   8
BRANCH   4  10
ATOM     10  O   UNL     1       5.733   3.356  14.923  0.00  0.00    +0.000 OA
ATOM     11  C   UNL     1       6.065   4.122  13.775  0.00  0.00    +0.000 C 
ENDBRANCH   4  10
BRANCH   3  12
ATOM     12  O   UNL     1       8.065   4.347  16.437  0.00  0.00    +0.000 OA
ATOM     13  H   UNL     1       8.018   4.604  15.499  0.00  0.00    +0.000 HD
ENDBRANCH   3  12
BRANCH   6  14
ATOM     14  O   UNL     1       2.950   4.935  18.462  0.00  0.00    +0.000 OA
BRANCH  14  15
ATOM     15  C   UNL     1       1.814   4.435  17.758  0.00  0.00    +0.000 C 
ATOM     16  C   UNL     1       1.231   3.286  18.558  0.00  0.00    +0.000 C 
ENDBRANCH  14  15
ENDBRANCH   6  14
ENDBRANCH   1   2
BRANCH   1  17
ATOM     17  C   UNL     1       8.063   6.918  18.901  0.00  0.00    +0.000 C 
BRANCH  17  18
ATOM     18  C   UNL     1       7.586   7.486  17.555  0.00  0.00    +0.000 C 
BRANCH  18  19
ATOM     19  C   UNL     1       7.867   8.982  17.460  0.00  0.00    +0.000 C 
BRANCH  19  20
ATOM     20  C   UNL     1       8.760   9.524  18.577  0.00  0.00    +0.000 C 
BRANCH  20  21
ATOM     21  C   UNL     1       8.868  11.057  18.511  0.00  0.00    +0.000 C 
BRANCH  21  22
ATOM     22  C   UNL     1      10.272  11.489  18.081  0.00  0.00    +0.000 C 
BRANCH  22  24
ATOM     23  C   UNL     1      11.648  12.123  20.051  0.00  0.00    +0.000 C 
ATOM     24  C   UNL     1      11.361  11.237  19.079  0.00  0.00    +0.000 C 
BRANCH  23  25
ATOM     25  C   UNL     1      10.868  13.381  20.331  0.00  0.00    +0.000 C 
BRANCH  25  27
ATOM     26  C   UNL     1      10.867  15.322  18.733  0.00  0.00    +0.000 C 
ATOM     27  C   UNL     1      11.469  14.607  19.700  0.00  0.00    +0.000 C 
BRANCH  26  28
ATOM     28  C   UNL     1       9.489  15.067  18.189  0.00  0.00    +0.000 C 
BRANCH  28  30
ATOM     29  C   UNL     1       8.362  16.718  19.707  0.00  0.00    +0.000 C 
ATOM     30  C   UNL     1       8.552  16.202  18.484  0.00  0.00    +0.000 C 
ENDBRANCH  28  30
ENDBRANCH  26  28
ENDBRANCH  25  27
ENDBRANCH  23  25
ENDBRANCH  22  24
ENDBRANCH  21  22
ENDBRANCH  20  21
ENDBRANCH  19  20
ENDBRANCH  18  19
ENDBRANCH  17  18
ENDBRANCH   1  17
TORSDOF 17
ENDMDL
MODEL 6
REMARK VINA RESULT:      -5.6      2.554      4.148
REMARK  Name = 
REMARK  19 active torsions:
REMARK  status: ('A' for Active; 'I' for Inactive)
REMARK    1  A    between atoms: C_2  and  C_3
REMARK    2  A    between atoms: C_3  and  C_4
REMARK    3  A    between atoms: C_5  and  C_6
REMARK    4  A    between atoms: C_6  and  C_7
REMARK    5  A    between atoms: C_8  and  C_9
REMARK    6  A    between atoms: C_9  and  C_10
REMARK    7  A    between atoms: C_10  and  C_11
REMARK    8  A    between atoms: C_11  and  C_12
REMARK    9  A    between atoms: C_12  and  C_13
REMARK   10  A    between atoms: C_13  and  C_14
REMARK   11  A    between atoms: C_14  and  C_15
REMARK   12  A    between atoms: C_15  and  C_16
REMARK   13  A    between atoms: C_17  and  O_18
REMARK   14  A    between atoms: C_19  and  O_20
REMARK   15  A    between atoms: O_20  and  C_21
REMARK   16  A    between atoms: C_23  and  O_24
REMARK   17  A    between atoms: O_24  and  C_25
REMARK   18  A    between atoms: C_25  and  C_26
REMARK   19  A    between atoms: C_27  and  O_28
REMARK                            x       y       z     vdW  Elec       q    Type
REMARK                         _______ _______ _______ _____ _____    ______ ____
ROOT
ATOM      1  C   UNL     1       2.584   7.205  18.515  0.00  0.00    +0.000 C 
ENDROOT
BRANCH   1   2
ATOM      2  C   UNL     1       1.866   8.284  19.287  0.00  0.00    +0.000 A 
ATOM      3  C   UNL     1       1.557   8.147  20.653  0.00  0.00    +0.000 A 
ATOM      4  C   UNL     1       0.935   9.183  21.359  0.00  0.00    +0.000 A 
ATOM      5  C   UNL     1       0.579  10.358  20.679  0.00  0.00    +0.000 A 
ATOM      6  C   UNL     1       0.830  10.500  19.319  0.00  0.00    +0.000 A 
ATOM      7  C   UNL     1       1.482   9.465  18.639  0.00  0.00    +0.000 A 
BRANCH   7   8
ATOM      8  O   UNL     1       1.746   9.609  17.302  0.00  0.00    +0.000 OA
ATOM      9  H   UNL     1       0.924   9.989  16.932  0.00  0.00    +0.000 HD
ENDBRANCH   7   8
BRANCH   4  10
ATOM     10  O   UNL     1       0.623   9.239  22.695  0.00  0.00    +0.000 OA
ATOM     11  C   UNL     1      -0.549   9.933  23.096  0.00  0.00    +0.000 C 
ENDBRANCH   4  10
BRANCH   3  12
ATOM     12  O   UNL     1       1.868   6.970  21.276  0.00  0.00    +0.000 OA
ATOM     13  H   UNL     1       2.200   6.375  20.581  0.00  0.00    +0.000 HD
ENDBRANCH   3  12
BRANCH   6  14
ATOM     14  O   UNL     1       0.511  11.584  18.542  0.00  0.00    +0.000 OA
BRANCH  14  15
ATOM     15  C   UNL     1      -0.564  12.401  19.005  0.00  0.00    +0.000 C 
ATOM     16  C   UNL     1      -0.283  13.831  18.585  0.00  0.00    +0.000 C 
ENDBRANCH  14  15
ENDBRANCH   6  14
ENDBRANCH   1   2
BRANCH   1  17
ATOM     17  C   UNL     1       2.185   5.793  18.952  0.00  0.00    +0.000 C 
BRANCH  17  18
ATOM     18  C   UNL     1       1.647   4.942  17.791  0.00  0.00    +0.000 C 
BRANCH  18  19
ATOM     19  C   UNL     1       2.102   3.492  17.916  0.00  0.00    +0.000 C 
BRANCH  19  20
ATOM     20  C   UNL     1       3.490   3.218  17.337  0.00  0.00    +0.000 C 
BRANCH  20  21
ATOM     21  C   UNL     1       4.597   3.719  18.280  0.00  0.00    +0.000 C 
BRANCH  21  22
ATOM     22  C   UNL     1       5.675   4.479  17.504  0.00  0.00    +0.000 C 
BRANCH  22  24
ATOM     23  C   UNL     1       5.772   5.482  15.232  0.00  0.00    +0.000 C 
ATOM     24  C   UNL     1       5.174   5.404  16.436  0.00  0.00    +0.000 C 
BRANCH  23  25
ATOM     25  C   UNL     1       6.905   4.601  14.771  0.00  0.00    +0.000 C 
BRANCH  25  27
ATOM     26  C   UNL     1       6.590   4.098  12.328  0.00  0.00    +0.000 C 
ATOM     27  C   UNL     1       7.227   4.761  13.311  0.00  0.00    +0.000 C 
BRANCH  26  28
ATOM     28  C   UNL     1       5.424   3.167  12.517  0.00  0.00    +0.000 C 
BRANCH  28  30
ATOM     29  C   UNL     1       3.555   3.321  10.850  0.00  0.00    +0.000 C 
ATOM     30  C   UNL     1       4.752   2.841  11.215  0.00  0.00    +0.000 C 
ENDBRANCH  28  30
ENDBRANCH  26  28
ENDBRANCH  25  27
ENDBRANCH  23  25
ENDBRANCH  22  24
ENDBRANCH  21  22
ENDBRANCH  20  21
ENDBRANCH  19  20
ENDBRANCH  18  19
ENDBRANCH  17  18
ENDBRANCH   1  17
TORSDOF 17
ENDMDL
MODEL 7
REMARK VINA RESULT:      -5.6      5.320      9.233
REMARK  Name = 
REMARK  19 active torsions:
REMARK  status: ('A' for Active; 'I' for Inactive)
REMARK    1  A    between atoms: C_2  and  C_3
REMARK    2  A    between atoms: C_3  and  C_4
REMARK    3  A    between atoms: C_5  and  C_6
REMARK    4  A    between atoms: C_6  and  C_7
REMARK    5  A    between atoms: C_8  and  C_9
REMARK    6  A    between atoms: C_9  and  C_10
REMARK    7  A    between atoms: C_10  and  C_11
REMARK    8  A    between atoms: C_11  and  C_12
REMARK    9  A    between atoms: C_12  and  C_13
REMARK   10  A    between atoms: C_13  and  C_14
REMARK   11  A    between atoms: C_14  and  C_15
REMARK   12  A    between atoms: C_15  and  C_16
REMARK   13  A    between atoms: C_17  and  O_18
REMARK   14  A    between atoms: C_19  and  O_20
REMARK   15  A    between atoms: O_20  and  C_21
REMARK   16  A    between atoms: C_23  and  O_24
REMARK   17  A    between atoms: O_24  and  C_25
REMARK   18  A    between atoms: C_25  and  C_26
REMARK   19  A    between atoms: C_27  and  O_28
REMARK                            x       y       z     vdW  Elec       q    Type
REMARK                         _______ _______ _______ _____ _____    ______ ____
ROOT
ATOM      1  C   UNL     1       7.841   4.824  18.303  0.00  0.00    +0.000 C 
ENDROOT
BRANCH   1   2
ATOM      2  C   UNL     1       6.578   4.527  17.535  0.00  0.00    +0.000 A 
ATOM      3  C   UNL     1       5.388   4.133  18.175  0.00  0.00    +0.000 A 
ATOM      4  C   UNL     1       4.214   3.913  17.443  0.00  0.00    +0.000 A 
ATOM      5  C   UNL     1       4.243   4.048  16.047  0.00  0.00    +0.000 A 
ATOM      6  C   UNL     1       5.418   4.390  15.385  0.00  0.00    +0.000 A 
ATOM      7  C   UNL     1       6.571   4.637  16.138  0.00  0.00    +0.000 A 
BRANCH   7   8
ATOM      8  O   UNL     1       7.725   4.990  15.491  0.00  0.00    +0.000 OA
ATOM      9  H   UNL     1       7.855   4.287  14.824  0.00  0.00    +0.000 HD
ENDBRANCH   7   8
BRANCH   4  10
ATOM     10  O   UNL     1       2.965   3.590  17.911  0.00  0.00    +0.000 OA
ATOM     11  C   UNL     1       2.531   2.240  17.828  0.00  0.00    +0.000 C 
ENDBRANCH   4  10
BRANCH   3  12
ATOM     12  O   UNL     1       5.405   3.958  19.531  0.00  0.00    +0.000 OA
ATOM     13  H   UNL     1       6.324   3.741  19.764  0.00  0.00    +0.000 HD
ENDBRANCH   3  12
BRANCH   6  14
ATOM     14  O   UNL     1       5.577   4.528  14.031  0.00  0.00    +0.000 OA
BRANCH  14  15
ATOM     15  C   UNL     1       6.071   3.387  13.330  0.00  0.00    +0.000 C 
ATOM     16  C   UNL     1       6.750   3.870  12.063  0.00  0.00    +0.000 C 
ENDBRANCH  14  15
ENDBRANCH   6  14
ENDBRANCH   1   2
BRANCH   1  17
ATOM     17  C   UNL     1       7.867   6.241  18.884  0.00  0.00    +0.000 C 
BRANCH  17  18
ATOM     18  C   UNL     1       7.243   7.280  17.940  0.00  0.00    +0.000 C 
BRANCH  18  19
ATOM     19  C   UNL     1       8.269   8.328  17.521  0.00  0.00    +0.000 C 
BRANCH  19  20
ATOM     20  C   UNL     1       8.070   9.695  18.175  0.00  0.00    +0.000 C 
BRANCH  20  21
ATOM     21  C   UNL     1       9.337  10.147  18.920  0.00  0.00    +0.000 C 
BRANCH  21  22
ATOM     22  C   UNL     1      10.043  11.276  18.165  0.00  0.00    +0.000 C 
BRANCH  22  24
ATOM     23  C   UNL     1      11.769  12.819  19.069  0.00  0.00    +0.000 C 
ATOM     24  C   UNL     1      11.434  11.593  18.624  0.00  0.00    +0.000 C 
BRANCH  23  25
ATOM     25  C   UNL     1      10.804  13.959  19.270  0.00  0.00    +0.000 C 
BRANCH  25  27
ATOM     26  C   UNL     1       9.873  13.947  21.605  0.00  0.00    +0.000 C 
ATOM     27  C   UNL     1      10.735  14.435  20.694  0.00  0.00    +0.000 C 
BRANCH  26  28
ATOM     28  C   UNL     1       8.912  12.813  21.376  0.00  0.00    +0.000 C 
BRANCH  28  30
ATOM     29  C   UNL     1       7.934  11.611  23.351  0.00  0.00    +0.000 C 
ATOM     30  C   UNL     1       7.946  12.660  22.515  0.00  0.00    +0.000 C 
ENDBRANCH  28  30
ENDBRANCH  26  28
ENDBRANCH  25  27
ENDBRANCH  23  25
ENDBRANCH  22  24
ENDBRANCH  21  22
ENDBRANCH  20  21
ENDBRANCH  19  20
ENDBRANCH  18  19
ENDBRANCH  17  18
ENDBRANCH   1  17
TORSDOF 17
ENDMDL
MODEL 8
REMARK VINA RESULT:      -5.6      1.848      2.377
REMARK  Name = 
REMARK  19 active torsions:
REMARK  status: ('A' for Active; 'I' for Inactive)
REMARK    1  A    between atoms: C_2  and  C_3
REMARK    2  A    between atoms: C_3  and  C_4
REMARK    3  A    between atoms: C_5  and  C_6
REMARK    4  A    between atoms: C_6  and  C_7
REMARK    5  A    between atoms: C_8  and  C_9
REMARK    6  A    between atoms: C_9  and  C_10
REMARK    7  A    between atoms: C_10  and  C_11
REMARK    8  A    between atoms: C_11  and  C_12
REMARK    9  A    between atoms: C_12  and  C_13
REMARK   10  A    between atoms: C_13  and  C_14
REMARK   11  A    between atoms: C_14  and  C_15
REMARK   12  A    between atoms: C_15  and  C_16
REMARK   13  A    between atoms: C_17  and  O_18
REMARK   14  A    between atoms: C_19  and  O_20
REMARK   15  A    between atoms: O_20  and  C_21
REMARK   16  A    between atoms: C_23  and  O_24
REMARK   17  A    between atoms: O_24  and  C_25
REMARK   18  A    between atoms: C_25  and  C_26
REMARK   19  A    between atoms: C_27  and  O_28
REMARK                            x       y       z     vdW  Elec       q    Type
REMARK                         _______ _______ _______ _____ _____    ______ ____
ROOT
ATOM      1  C   UNL     1       1.226   9.123  18.284  0.00  0.00    +0.000 C 
ENDROOT
BRANCH   1   2
ATOM      2  C   UNL     1       1.221  10.454  18.995  0.00  0.00    +0.000 A 
ATOM      3  C   UNL     1       0.530  10.654  20.205  0.00  0.00    +0.000 A 
ATOM      4  C   UNL     1       0.584  11.884  20.871  0.00  0.00    +0.000 A 
ATOM      5  C   UNL     1       1.304  12.942  20.298  0.00  0.00    +0.000 A 
ATOM      6  C   UNL     1       1.957  12.785  19.079  0.00  0.00    +0.000 A 
ATOM      7  C   UNL     1       1.918  11.538  18.446  0.00  0.00    +0.000 A 
BRANCH   7   8
ATOM      8  O   UNL     1       2.574  11.375  17.255  0.00  0.00    +0.000 OA
ATOM      9  H   UNL     1       3.386  10.882  17.490  0.00  0.00    +0.000 HD
ENDBRANCH   7   8
BRANCH   4  10
ATOM     10  O   UNL     1       0.026  12.226  22.078  0.00  0.00    +0.000 OA
ATOM     11  C   UNL     1      -1.307  12.714  22.103  0.00  0.00    +0.000 C 
ENDBRANCH   4  10
BRANCH   3  12
ATOM     12  O   UNL     1      -0.208   9.620  20.712  0.00  0.00    +0.000 OA
ATOM     13  H   UNL     1      -0.970   9.514  20.116  0.00  0.00    +0.000 HD
ENDBRANCH   3  12
BRANCH   6  14
ATOM     14  O   UNL     1       2.671  13.746  18.410  0.00  0.00    +0.000 OA
BRANCH  14  15
ATOM     15  C   UNL     1       2.914  14.962  19.115  0.00  0.00    +0.000 C 
ATOM     16  C   UNL     1       2.251  16.091  18.350  0.00  0.00    +0.000 C 
ENDBRANCH  14  15
ENDBRANCH   6  14
ENDBRANCH   1   2
BRANCH   1  17
ATOM     17  C   UNL     1       2.092   8.074  18.989  0.00  0.00    +0.000 C 
BRANCH  17  18
ATOM     18  C   UNL     1       2.692   7.050  18.013  0.00  0.00    +0.000 C 
BRANCH  18  19
ATOM     19  C   UNL     1       3.849   7.656  17.225  0.00  0.00    +0.000 C 
BRANCH  19  20
ATOM     20  C   UNL     1       5.119   6.805  17.221  0.00  0.00    +0.000 C 
BRANCH  20  21
ATOM     21  C   UNL     1       5.119   5.808  16.050  0.00  0.00    +0.000 C 
BRANCH  21  22
ATOM     22  C   UNL     1       5.638   4.439  16.497  0.00  0.00    +0.000 C 
BRANCH  22  24
ATOM     23  C   UNL     1       4.162   3.626  18.324  0.00  0.00    +0.000 C 
ATOM     24  C   UNL     1       5.367   4.077  17.925  0.00  0.00    +0.000 C 
BRANCH  23  25
ATOM     25  C   UNL     1       3.006   3.323  17.406  0.00  0.00    +0.000 C 
BRANCH  25  27
ATOM     26  C   UNL     1       1.240   2.413  18.947  0.00  0.00    +0.000 C 
ATOM     27  C   UNL     1       2.101   2.241  17.927  0.00  0.00    +0.000 C 
BRANCH  26  28
ATOM     28  C   UNL     1       0.988   3.710  19.666  0.00  0.00    +0.000 C 
BRANCH  28  30
ATOM     29  C   UNL     1       2.342   2.777  21.562  0.00  0.00    +0.000 C 
ATOM     30  C   UNL     1       1.440   3.653  21.096  0.00  0.00    +0.000 C 
ENDBRANCH  28  30
ENDBRANCH  26  28
ENDBRANCH  25  27
ENDBRANCH  23  25
ENDBRANCH  22  24
ENDBRANCH  21  22
ENDBRANCH  20  21
ENDBRANCH  19  20
ENDBRANCH  18  19
ENDBRANCH  17  18
ENDBRANCH   1  17
TORSDOF 17
ENDMDL
MODEL 9
REMARK VINA RESULT:      -5.5      1.571      4.684
REMARK  Name = 
REMARK  19 active torsions:
REMARK  status: ('A' for Active; 'I' for Inactive)
REMARK    1  A    between atoms: C_2  and  C_3
REMARK    2  A    between atoms: C_3  and  C_4
REMARK    3  A    between atoms: C_5  and  C_6
REMARK    4  A    between atoms: C_6  and  C_7
REMARK    5  A    between atoms: C_8  and  C_9
REMARK    6  A    between atoms: C_9  and  C_10
REMARK    7  A    between atoms: C_10  and  C_11
REMARK    8  A    between atoms: C_11  and  C_12
REMARK    9  A    between atoms: C_12  and  C_13
REMARK   10  A    between atoms: C_13  and  C_14
REMARK   11  A    between atoms: C_14  and  C_15
REMARK   12  A    between atoms: C_15  and  C_16
REMARK   13  A    between atoms: C_17  and  O_18
REMARK   14  A    between atoms: C_19  and  O_20
REMARK   15  A    between atoms: O_20  and  C_21
REMARK   16  A    between atoms: C_23  and  O_24
REMARK   17  A    between atoms: O_24  and  C_25
REMARK   18  A    between atoms: C_25  and  C_26
REMARK   19  A    between atoms: C_27  and  O_28
REMARK                            x       y       z     vdW  Elec       q    Type
REMARK                         _______ _______ _______ _____ _____    ______ ____
ROOT
ATOM      1  C   UNL     1       1.178   8.799  18.663  0.00  0.00    +0.000 C 
ENDROOT
BRANCH   1   2
ATOM      2  C   UNL     1       0.934  10.101  19.383  0.00  0.00    +0.000 A 
ATOM      3  C   UNL     1       1.408  11.331  18.889  0.00  0.00    +0.000 A 
ATOM      4  C   UNL     1       1.124  12.532  19.550  0.00  0.00    +0.000 A 
ATOM      5  C   UNL     1       0.392  12.498  20.746  0.00  0.00    +0.000 A 
ATOM      6  C   UNL     1      -0.048  11.292  21.282  0.00  0.00    +0.000 A 
ATOM      7  C   UNL     1       0.219  10.106  20.588  0.00  0.00    +0.000 A 
BRANCH   7   8
ATOM      8  O   UNL     1      -0.228   8.918  21.104  0.00  0.00    +0.000 OA
ATOM      9  H   UNL     1       0.475   8.276  20.877  0.00  0.00    +0.000 HD
ENDBRANCH   7   8
BRANCH   4  10
ATOM     10  O   UNL     1       1.452  13.811  19.175  0.00  0.00    +0.000 OA
ATOM     11  C   UNL     1       0.421  14.679  18.729  0.00  0.00    +0.000 C 
ENDBRANCH   4  10
BRANCH   3  12
ATOM     12  O   UNL     1       2.165  11.326  17.750  0.00  0.00    +0.000 OA
ATOM     13  H   UNL     1       2.275  12.259  17.495  0.00  0.00    +0.000 HD
ENDBRANCH   3  12
BRANCH   6  14
ATOM     14  O   UNL     1      -0.748  11.127  22.449  0.00  0.00    +0.000 OA
BRANCH  14  15
ATOM     15  C   UNL     1      -1.294  12.310  23.033  0.00  0.00    +0.000 C 
ATOM     16  C   UNL     1      -2.786  12.104  23.207  0.00  0.00    +0.000 C 
ENDBRANCH  14  15
ENDBRANCH   6  14
ENDBRANCH   1   2
BRANCH   1  17
ATOM     17  C   UNL     1       2.315   7.979  19.281  0.00  0.00    +0.000 C 
BRANCH  17  18
ATOM     18  C   UNL     1       2.264   6.497  18.879  0.00  0.00    +0.000 C 
BRANCH  18  19
ATOM     19  C   UNL     1       2.268   5.594  20.108  0.00  0.00    +0.000 C 
BRANCH  19  20
ATOM     20  C   UNL     1       0.964   4.828  20.327  0.00  0.00    +0.000 C 
BRANCH  20  21
ATOM     21  C   UNL     1       1.165   3.316  20.130  0.00  0.00    +0.000 C 
BRANCH  21  22
ATOM     22  C   UNL     1       1.416   2.984  18.657  0.00  0.00    +0.000 C 
BRANCH  22  24
ATOM     23  C   UNL     1       3.646   2.166  17.924  0.00  0.00    +0.000 C 
ATOM     24  C   UNL     1       2.414   1.897  18.398  0.00  0.00    +0.000 C 
BRANCH  23  25
ATOM     25  C   UNL     1       4.206   3.549  17.712  0.00  0.00    +0.000 C 
BRANCH  25  27
ATOM     26  C   UNL     1       5.800   5.152  18.813  0.00  0.00    +0.000 C 
ATOM     27  C   UNL     1       5.072   4.020  18.848  0.00  0.00    +0.000 C 
BRANCH  26  28
ATOM     28  C   UNL     1       5.807   6.150  17.689  0.00  0.00    +0.000 C 
BRANCH  28  30
ATOM     29  C   UNL     1       7.698   7.797  17.589  0.00  0.00    +0.000 C 
ATOM     30  C   UNL     1       7.200   6.579  17.331  0.00  0.00    +0.000 C 
ENDBRANCH  28  30
ENDBRANCH  26  28
ENDBRANCH  25  27
ENDBRANCH  23  25
ENDBRANCH  22  24
ENDBRANCH  21  22
ENDBRANCH  20  21
ENDBRANCH  19  20
ENDBRANCH  18  19
ENDBRANCH  17  18
ENDBRANCH   1  17
TORSDOF 17
ENDMDL
