MODEL 1
REMARK VINA RESULT:      -6.3      0.000      0.000
REMARK  Name = 
REMARK  7 active torsions:
REMARK  status: ('A' for Active; 'I' for Inactive)
REMARK    1  A    between atoms: C_1  and  C_2
REMARK    2  A    between atoms: C_2  and  C_3
REMARK    3  A    between atoms: C_3  and  C_4
REMARK    4  A    between atoms: C_4  and  C_5
REMARK    5  A    between atoms: C_4  and  C_11
REMARK    6  A    between atoms: C_11  and  C_12
REMARK    7  A    between atoms: C_11  and  C_13
REMARK                            x       y       z     vdW  Elec       q    Type
REMARK                         _______ _______ _______ _____ _____    ______ ____
ROOT
ATOM      1  C   UNL     1       7.070   5.326  17.010  0.00  0.00    +0.000 C 
ATOM      2  O   UNL     1       7.505   6.363  16.507  0.00  0.00    +0.000 OA
ATOM      3  N   UNL     1       7.258   4.966  18.335  0.00  0.00    +0.000 N 
ATOM      4  C   UNL     1       7.817   5.710  19.338  0.00  0.00    +0.000 C 
ATOM      5  N   UNL     1       8.320   6.912  18.982  0.00  0.00    +0.000 N 
ATOM      6  O   UNL     1       7.854   5.304  20.487  0.00  0.00    +0.000 OA
ATOM      7  H   UNL     1       6.963   4.058  18.653  0.00  0.00    +0.000 HD
ATOM      8  H   UNL     1       8.509   7.079  17.997  0.00  0.00    +0.000 HD
ATOM      9  H   UNL     1       8.872   7.410  19.666  0.00  0.00    +0.000 HD
ENDROOT
BRANCH   1  10
ATOM     10  C   UNL     1       6.321   4.295  16.161  0.00  0.00    +0.000 C 
BRANCH  10  11
ATOM     11  C   UNL     1       4.783   4.449  16.378  0.00  0.00    +0.000 C 
ATOM     12  C   UNL     1       4.195   3.387  17.310  0.00  0.00    +0.000 C 
ATOM     13  C   UNL     1       4.415   5.832  16.935  0.00  0.00    +0.000 C 
ENDBRANCH  10  11
BRANCH  10  14
ATOM     14  C   UNL     1       6.719   4.420  14.672  0.00  0.00    +0.000 C 
BRANCH  14  16
ATOM     15  C   UNL     1       6.242   3.411  12.412  0.00  0.00    +0.000 C 
ATOM     16  C   UNL     1       5.627   4.008  13.673  0.00  0.00    +0.000 C 
ENDBRANCH  14  16
ENDBRANCH  10  14
ENDBRANCH   1  10
TORSDOF 4
ENDMDL
MODEL 2
REMARK VINA RESULT:      -6.1      2.697      4.899
REMARK  Name = 
REMARK  7 active torsions:
REMARK  status: ('A' for Active; 'I' for Inactive)
REMARK    1  A    between atoms: C_1  and  C_2
REMARK    2  A    between atoms: C_2  and  C_3
REMARK    3  A    between atoms: C_3  and  C_4
REMARK    4  A    between atoms: C_4  and  C_5
REMARK    5  A    between atoms: C_4  and  C_11
REMARK    6  A    between atoms: C_11  and  C_12
REMARK    7  A    between atoms: C_11  and  C_13
REMARK                            x       y       z     vdW  Elec       q    Type
REMARK                         _______ _______ _______ _____ _____    ______ ____
ROOT
ATOM      1  C   UNL     1       5.241   4.664  18.814  0.00  0.00    +0.000 C 
ATOM      2  O   UNL     1       5.814   3.681  19.285  0.00  0.00    +0.000 OA
ATOM      3  N   UNL     1       5.820   5.544  17.914  0.00  0.00    +0.000 N 
ATOM      4  C   UNL     1       7.032   5.432  17.289  0.00  0.00    +0.000 C 
ATOM      5  N   UNL     1       7.796   4.379  17.650  0.00  0.00    +0.000 N 
ATOM      6  O   UNL     1       7.395   6.243  16.453  0.00  0.00    +0.000 OA
ATOM      7  H   UNL     1       5.331   6.383  17.649  0.00  0.00    +0.000 HD
ATOM      8  H   UNL     1       7.577   3.906  18.523  0.00  0.00    +0.000 HD
ATOM      9  H   UNL     1       8.751   4.359  17.323  0.00  0.00    +0.000 HD
ENDROOT
BRANCH   1  10
ATOM     10  C   UNL     1       3.822   5.034  19.257  0.00  0.00    +0.000 C 
BRANCH  10  11
ATOM     11  C   UNL     1       3.012   5.573  18.037  0.00  0.00    +0.000 C 
ATOM     12  C   UNL     1       1.822   4.686  17.663  0.00  0.00    +0.000 C 
ATOM     13  C   UNL     1       2.490   6.998  18.276  0.00  0.00    +0.000 C 
ENDBRANCH  10  11
BRANCH  10  14
ATOM     14  C   UNL     1       3.130   3.830  19.936  0.00  0.00    +0.000 C 
BRANCH  14  16
ATOM     15  C   UNL     1       1.457   2.978  21.618  0.00  0.00    +0.000 C 
ATOM     16  C   UNL     1       2.272   4.183  21.161  0.00  0.00    +0.000 C 
ENDBRANCH  14  16
ENDBRANCH  10  14
ENDBRANCH   1  10
TORSDOF 4
ENDMDL
MODEL 3
REMARK VINA RESULT:      -6.1      2.501      4.786
REMARK  Name = 
REMARK  7 active torsions:
REMARK  status: ('A' for Active; 'I' for Inactive)
REMARK    1  A    between atoms: C_1  and  C_2
REMARK    2  A    between atoms: C_2  and  C_3
REMARK    3  A    between atoms: C_3  and  C_4
REMARK    4  A    between atoms: C_4  and  C_5
REMARK    5  A    between atoms: C_4  and  C_11
REMARK    6  A    between atoms: C_11  and  C_12
REMARK    7  A    between atoms: C_11  and  C_13
REMARK                            x       y       z     vdW  Elec       q    Type
REMARK                         _______ _______ _______ _____ _____    ______ ____
ROOT
ATOM      1  C   UNL     1       5.329   4.424  18.554  0.00  0.00    +0.000 C 
ATOM      2  O   UNL     1       6.240   4.469  19.381  0.00  0.00    +0.000 OA
ATOM      3  N   UNL     1       5.525   4.433  17.182  0.00  0.00    +0.000 N 
ATOM      4  C   UNL     1       6.709   4.358  16.500  0.00  0.00    +0.000 C 
ATOM      5  N   UNL     1       7.832   4.355  17.250  0.00  0.00    +0.000 N 
ATOM      6  O   UNL     1       6.740   4.297  15.282  0.00  0.00    +0.000 OA
ATOM      7  H   UNL     1       4.733   4.497  16.564  0.00  0.00    +0.000 HD
ATOM      8  H   UNL     1       7.766   4.679  18.212  0.00  0.00    +0.000 HD
ATOM      9  H   UNL     1       8.715   4.457  16.771  0.00  0.00    +0.000 HD
ENDROOT
BRANCH   1  10
ATOM     10  C   UNL     1       3.864   4.422  18.997  0.00  0.00    +0.000 C 
BRANCH  10  11
ATOM     11  C   UNL     1       2.978   5.088  17.898  0.00  0.00    +0.000 C 
ATOM     12  C   UNL     1       1.659   4.349  17.655  0.00  0.00    +0.000 C 
ATOM     13  C   UNL     1       2.654   6.552  18.228  0.00  0.00    +0.000 C 
ENDBRANCH  10  11
BRANCH  10  14
ATOM     14  C   UNL     1       3.397   2.988  19.337  0.00  0.00    +0.000 C 
BRANCH  14  16
ATOM     15  C   UNL     1       2.135   3.926  21.307  0.00  0.00    +0.000 C 
ATOM     16  C   UNL     1       2.992   2.769  20.803  0.00  0.00    +0.000 C 
ENDBRANCH  14  16
ENDBRANCH  10  14
ENDBRANCH   1  10
TORSDOF 4
ENDMDL
MODEL 4
REMARK VINA RESULT:      -6.0      3.005      5.063
REMARK  Name = 
REMARK  7 active torsions:
REMARK  status: ('A' for Active; 'I' for Inactive)
REMARK    1  A    between atoms: C_1  and  C_2
REMARK    2  A    between atoms: C_2  and  C_3
REMARK    3  A    between atoms: C_3  and  C_4
REMARK    4  A    between atoms: C_4  and  C_5
REMARK    5  A    between atoms: C_4  and  C_11
REMARK    6  A    between atoms: C_11  and  C_12
REMARK    7  A    between atoms: C_11  and  C_13
REMARK                            x       y       z     vdW  Elec       q    Type
REMARK                         _______ _______ _______ _____ _____    ______ ____
ROOT
ATOM      1  C   UNL     1       6.822   4.562  14.657  0.00  0.00    +0.000 C 
ATOM      2  O   UNL     1       7.663   5.373  14.269  0.00  0.00    +0.000 OA
ATOM      3  N   UNL     1       6.138   3.692  13.823  0.00  0.00    +0.000 N 
ATOM      4  C   UNL     1       6.344   3.469  12.488  0.00  0.00    +0.000 C 
ATOM      5  N   UNL     1       7.271   4.247  11.888  0.00  0.00    +0.000 N 
ATOM      6  O   UNL     1       5.721   2.614  11.882  0.00  0.00    +0.000 OA
ATOM      7  H   UNL     1       5.392   3.127  14.192  0.00  0.00    +0.000 HD
ATOM      8  H   UNL     1       7.552   5.104  12.357  0.00  0.00    +0.000 HD
ATOM      9  H   UNL     1       7.331   4.211  10.881  0.00  0.00    +0.000 HD
ENDROOT
BRANCH   1  10
ATOM     10  C   UNL     1       6.410   4.501  16.130  0.00  0.00    +0.000 C 
BRANCH  10  11
ATOM     11  C   UNL     1       7.060   5.686  16.911  0.00  0.00    +0.000 C 
ATOM     12  C   UNL     1       6.106   6.864  17.126  0.00  0.00    +0.000 C 
ATOM     13  C   UNL     1       7.597   5.248  18.281  0.00  0.00    +0.000 C 
ENDBRANCH  10  11
BRANCH  10  14
ATOM     14  C   UNL     1       4.870   4.484  16.267  0.00  0.00    +0.000 C 
BRANCH  14  16
ATOM     15  C   UNL     1       3.158   4.249  18.102  0.00  0.00    +0.000 C 
ATOM     16  C   UNL     1       4.330   3.584  17.388  0.00  0.00    +0.000 C 
ENDBRANCH  14  16
ENDBRANCH  10  14
ENDBRANCH   1  10
TORSDOF 4
ENDMDL
MODEL 5
REMARK VINA RESULT:      -6.0      2.412      4.406
REMARK  Name = 
REMARK  7 active torsions:
REMARK  status: ('A' for Active; 'I' for Inactive)
REMARK    1  A    between atoms: C_1  and  C_2
REMARK    2  A    between atoms: C_2  and  C_3
REMARK    3  A    between atoms: C_3  and  C_4
REMARK    4  A    between atoms: C_4  and  C_5
REMARK    5  A    between atoms: C_4  and  C_11
REMARK    6  A    between atoms: C_11  and  C_12
REMARK    7  A    between atoms: C_11  and  C_13
REMARK                            x       y       z     vdW  Elec       q    Type
REMARK                         _______ _______ _______ _____ _____    ______ ____
ROOT
ATOM      1  C   UNL     1       5.280   4.737  18.225  0.00  0.00    +0.000 C 
ATOM      2  O   UNL     1       5.855   4.425  19.268  0.00  0.00    +0.000 OA
ATOM      3  N   UNL     1       5.920   4.916  17.009  0.00  0.00    +0.000 N 
ATOM      4  C   UNL     1       7.229   4.662  16.702  0.00  0.00    +0.000 C 
ATOM      5  N   UNL     1       8.017   4.263  17.724  0.00  0.00    +0.000 N 
ATOM      6  O   UNL     1       7.653   4.790  15.565  0.00  0.00    +0.000 OA
ATOM      7  H   UNL     1       5.406   5.271  16.221  0.00  0.00    +0.000 HD
ATOM      8  H   UNL     1       7.694   4.436  18.672  0.00  0.00    +0.000 HD
ATOM      9  H   UNL     1       9.012   4.219  17.558  0.00  0.00    +0.000 HD
ENDROOT
BRANCH   1  10
ATOM     10  C   UNL     1       3.776   5.026  18.212  0.00  0.00    +0.000 C 
BRANCH  10  11
ATOM     11  C   UNL     1       3.010   3.805  17.613  0.00  0.00    +0.000 C 
ATOM     12  C   UNL     1       3.353   2.480  18.298  0.00  0.00    +0.000 C 
ATOM     13  C   UNL     1       1.487   3.995  17.673  0.00  0.00    +0.000 C 
ENDBRANCH  10  11
BRANCH  10  14
ATOM     14  C   UNL     1       3.277   5.394  19.628  0.00  0.00    +0.000 C 
BRANCH  14  16
ATOM     15  C   UNL     1       2.577   7.479  18.396  0.00  0.00    +0.000 C 
ATOM     16  C   UNL     1       2.511   6.722  19.719  0.00  0.00    +0.000 C 
ENDBRANCH  14  16
ENDBRANCH  10  14
ENDBRANCH   1  10
TORSDOF 4
ENDMDL
MODEL 6
REMARK VINA RESULT:      -6.0      2.656      4.112
REMARK  Name = 
REMARK  7 active torsions:
REMARK  status: ('A' for Active; 'I' for Inactive)
REMARK    1  A    between atoms: C_1  and  C_2
REMARK    2  A    between atoms: C_2  and  C_3
REMARK    3  A    between atoms: C_3  and  C_4
REMARK    4  A    between atoms: C_4  and  C_5
REMARK    5  A    between atoms: C_4  and  C_11
REMARK    6  A    between atoms: C_11  and  C_12
REMARK    7  A    between atoms: C_11  and  C_13
REMARK                            x       y       z     vdW  Elec       q    Type
REMARK                         _______ _______ _______ _____ _____    ______ ____
ROOT
ATOM      1  C   UNL     1       4.912   4.886  17.393  0.00  0.00    +0.000 C 
ATOM      2  O   UNL     1       4.740   5.574  16.386  0.00  0.00    +0.000 OA
ATOM      3  N   UNL     1       6.136   4.361  17.776  0.00  0.00    +0.000 N 
ATOM      4  C   UNL     1       7.364   4.599  17.222  0.00  0.00    +0.000 C 
ATOM      5  N   UNL     1       7.382   5.377  16.118  0.00  0.00    +0.000 N 
ATOM      6  O   UNL     1       8.381   4.130  17.705  0.00  0.00    +0.000 OA
ATOM      7  H   UNL     1       6.185   3.724  18.553  0.00  0.00    +0.000 HD
ATOM      8  H   UNL     1       6.511   5.507  15.611  0.00  0.00    +0.000 HD
ATOM      9  H   UNL     1       8.249   5.440  15.604  0.00  0.00    +0.000 HD
ENDROOT
BRANCH   1  10
ATOM     10  C   UNL     1       3.732   4.494  18.287  0.00  0.00    +0.000 C 
BRANCH  10  11
ATOM     11  C   UNL     1       3.235   5.741  19.083  0.00  0.00    +0.000 C 
ATOM     12  C   UNL     1       2.388   6.697  18.240  0.00  0.00    +0.000 C 
ATOM     13  C   UNL     1       2.419   5.345  20.323  0.00  0.00    +0.000 C 
ENDBRANCH  10  11
BRANCH  10  14
ATOM     14  C   UNL     1       2.606   3.843  17.452  0.00  0.00    +0.000 C 
BRANCH  14  16
ATOM     15  C   UNL     1       0.982   2.354  18.678  0.00  0.00    +0.000 C 
ATOM     16  C   UNL     1       2.260   2.399  17.846  0.00  0.00    +0.000 C 
ENDBRANCH  14  16
ENDBRANCH  10  14
ENDBRANCH   1  10
TORSDOF 4
ENDMDL
MODEL 7
REMARK VINA RESULT:      -6.0      3.138      4.607
REMARK  Name = 
REMARK  7 active torsions:
REMARK  status: ('A' for Active; 'I' for Inactive)
REMARK    1  A    between atoms: C_1  and  C_2
REMARK    2  A    between atoms: C_2  and  C_3
REMARK    3  A    between atoms: C_3  and  C_4
REMARK    4  A    between atoms: C_4  and  C_5
REMARK    5  A    between atoms: C_4  and  C_11
REMARK    6  A    between atoms: C_11  and  C_12
REMARK    7  A    between atoms: C_11  and  C_13
REMARK                            x       y       z     vdW  Elec       q    Type
REMARK                         _______ _______ _______ _____ _____    ______ ____
ROOT
ATOM      1  C   UNL     1       4.138   4.660  18.104  0.00  0.00    +0.000 C 
ATOM      2  O   UNL     1       4.450   4.003  17.111  0.00  0.00    +0.000 OA
ATOM      3  N   UNL     1       5.036   5.071  19.077  0.00  0.00    +0.000 N 
ATOM      4  C   UNL     1       6.399   4.957  19.066  0.00  0.00    +0.000 C 
ATOM      5  N   UNL     1       6.936   4.293  18.019  0.00  0.00    +0.000 N 
ATOM      6  O   UNL     1       7.085   5.432  19.956  0.00  0.00    +0.000 OA
ATOM      7  H   UNL     1       4.698   5.517  19.913  0.00  0.00    +0.000 HD
ATOM      8  H   UNL     1       6.325   3.695  17.469  0.00  0.00    +0.000 HD
ATOM      9  H   UNL     1       7.917   4.061  18.065  0.00  0.00    +0.000 HD
ENDROOT
BRANCH   1  10
ATOM     10  C   UNL     1       2.677   5.026  18.378  0.00  0.00    +0.000 C 
BRANCH  10  11
ATOM     11  C   UNL     1       2.060   4.013  19.393  0.00  0.00    +0.000 C 
ATOM     12  C   UNL     1       1.320   4.690  20.549  0.00  0.00    +0.000 C 
ATOM     13  C   UNL     1       1.092   3.033  18.712  0.00  0.00    +0.000 C 
ENDBRANCH  10  11
BRANCH  10  14
ATOM     14  C   UNL     1       2.561   6.489  18.866  0.00  0.00    +0.000 C 
BRANCH  14  16
ATOM     15  C   UNL     1       1.932   8.741  17.926  0.00  0.00    +0.000 C 
ATOM     16  C   UNL     1       2.879   7.552  17.804  0.00  0.00    +0.000 C 
ENDBRANCH  14  16
ENDBRANCH  10  14
ENDBRANCH   1  10
TORSDOF 4
ENDMDL
MODEL 8
REMARK VINA RESULT:      -6.0      2.442      4.402
REMARK  Name = 
REMARK  7 active torsions:
REMARK  status: ('A' for Active; 'I' for Inactive)
REMARK    1  A    between atoms: C_1  and  C_2
REMARK    2  A    between atoms: C_2  and  C_3
REMARK    3  A    between atoms: C_3  and  C_4
REMARK    4  A    between atoms: C_4  and  C_5
REMARK    5  A    between atoms: C_4  and  C_11
REMARK    6  A    between atoms: C_11  and  C_12
REMARK    7  A    between atoms: C_11  and  C_13
REMARK                            x       y       z     vdW  Elec       q    Type
REMARK                         _______ _______ _______ _____ _____    ______ ____
ROOT
ATOM      1  C   UNL     1       5.118   4.461  18.163  0.00  0.00    +0.000 C 
ATOM      2  O   UNL     1       5.666   4.196  19.233  0.00  0.00    +0.000 OA
ATOM      3  N   UNL     1       5.799   4.715  16.983  0.00  0.00    +0.000 N 
ATOM      4  C   UNL     1       7.141   4.594  16.744  0.00  0.00    +0.000 C 
ATOM      5  N   UNL     1       7.911   4.265  17.803  0.00  0.00    +0.000 N 
ATOM      6  O   UNL     1       7.608   4.775  15.632  0.00  0.00    +0.000 OA
ATOM      7  H   UNL     1       5.293   5.024  16.171  0.00  0.00    +0.000 HD
ATOM      8  H   UNL     1       7.523   4.395  18.734  0.00  0.00    +0.000 HD
ATOM      9  H   UNL     1       8.912   4.322  17.690  0.00  0.00    +0.000 HD
ENDROOT
BRANCH   1  10
ATOM     10  C   UNL     1       3.595   4.599  18.072  0.00  0.00    +0.000 C 
BRANCH  10  11
ATOM     11  C   UNL     1       2.912   3.374  18.757  0.00  0.00    +0.000 C 
ATOM     12  C   UNL     1       1.752   3.766  19.675  0.00  0.00    +0.000 C 
ATOM     13  C   UNL     1       2.389   2.358  17.731  0.00  0.00    +0.000 C 
ENDBRANCH  10  11
BRANCH  10  14
ATOM     14  C   UNL     1       3.131   5.944  18.677  0.00  0.00    +0.000 C 
BRANCH  14  16
ATOM     15  C   UNL     1       2.204   8.224  18.135  0.00  0.00    +0.000 C 
ATOM     16  C   UNL     1       3.192   7.141  17.716  0.00  0.00    +0.000 C 
ENDBRANCH  14  16
ENDBRANCH  10  14
ENDBRANCH   1  10
TORSDOF 4
ENDMDL
MODEL 9
REMARK VINA RESULT:      -5.9      2.606      4.931
REMARK  Name = 
REMARK  7 active torsions:
REMARK  status: ('A' for Active; 'I' for Inactive)
REMARK    1  A    between atoms: C_1  and  C_2
REMARK    2  A    between atoms: C_2  and  C_3
REMARK    3  A    between atoms: C_3  and  C_4
REMARK    4  A    between atoms: C_4  and  C_5
REMARK    5  A    between atoms: C_4  and  C_11
REMARK    6  A    between atoms: C_11  and  C_12
REMARK    7  A    between atoms: C_11  and  C_13
REMARK                            x       y       z     vdW  Elec       q    Type
REMARK                         _______ _______ _______ _____ _____    ______ ____
ROOT
ATOM      1  C   UNL     1       6.040   4.842  16.178  0.00  0.00    +0.000 C 
ATOM      2  O   UNL     1       5.429   3.774  16.126  0.00  0.00    +0.000 OA
ATOM      3  N   UNL     1       6.858   5.319  15.166  0.00  0.00    +0.000 N 
ATOM      4  C   UNL     1       7.037   4.798  13.913  0.00  0.00    +0.000 C 
ATOM      5  N   UNL     1       6.405   3.634  13.653  0.00  0.00    +0.000 N 
ATOM      6  O   UNL     1       7.731   5.362  13.083  0.00  0.00    +0.000 OA
ATOM      7  H   UNL     1       7.406   6.149  15.316  0.00  0.00    +0.000 HD
ATOM      8  H   UNL     1       6.076   3.082  14.440  0.00  0.00    +0.000 HD
ATOM      9  H   UNL     1       6.643   3.153  12.798  0.00  0.00    +0.000 HD
ENDROOT
BRANCH   1  10
ATOM     10  C   UNL     1       5.989   5.716  17.434  0.00  0.00    +0.000 C 
BRANCH  10  11
ATOM     11  C   UNL     1       7.426   6.209  17.793  0.00  0.00    +0.000 C 
ATOM     12  C   UNL     1       7.602   7.722  17.641  0.00  0.00    +0.000 C 
ATOM     13  C   UNL     1       7.828   5.821  19.224  0.00  0.00    +0.000 C 
ENDBRANCH  10  11
BRANCH  10  14
ATOM     14  C   UNL     1       4.997   6.887  17.245  0.00  0.00    +0.000 C 
BRANCH  14  16
ATOM     15  C   UNL     1       3.703   5.750  19.085  0.00  0.00    +0.000 C 
ATOM     16  C   UNL     1       3.612   6.668  17.871  0.00  0.00    +0.000 C 
ENDBRANCH  14  16
ENDBRANCH  10  14
ENDBRANCH   1  10
TORSDOF 4
ENDMDL
