MODEL 1
REMARK VINA RESULT:      -8.3      0.000      0.000
REMARK  Name = 
REMARK  4 active torsions:
REMARK  status: ('A' for Active; 'I' for Inactive)
REMARK    1  A    between atoms: C_1  and  O_2
REMARK    2  A    between atoms: O_2  and  C_3
REMARK    3  A    between atoms: C_6  and  C_7
REMARK    4  A    between atoms: C_16  and  C_17
REMARK                            x       y       z     vdW  Elec       q    Type
REMARK                         _______ _______ _______ _____ _____    ______ ____
ROOT
ATOM      1  C   UNL     1       2.136   7.949  18.430  0.00  0.00    +0.000 C 
ATOM      2  N   UNL     1       1.853   8.064  19.688  0.00  0.00    +0.000 NA
ATOM      3  N   UNL     1       1.046   9.154  19.856  0.00  0.00    +0.000 N 
ATOM      4  C   UNL     1       0.499   9.505  21.087  0.00  0.00    +0.000 C 
ATOM      5  N   UNL     1      -0.605  10.160  21.279  0.00  0.00    +0.000 NA
ATOM      6  C   UNL     1      -0.863  10.378  22.605  0.00  0.00    +0.000 C 
ATOM      7  O   UNL     1      -1.874  10.924  23.021  0.00  0.00    +0.000 OA
ATOM      8  C   UNL     1       0.206   9.893  23.553  0.00  0.00    +0.000 C 
ATOM      9  S   UNL     1       1.418   9.090  22.509  0.00  0.00    +0.000 S 
ATOM     10  C   UNL     1       0.663   9.757  18.578  0.00  0.00    +0.000 C 
ATOM     11  C   UNL     1       1.588   9.045  17.562  0.00  0.00    +0.000 C 
ENDROOT
BRANCH  10  12
ATOM     12  C   UNL     1       0.822  11.256  18.668  0.00  0.00    +0.000 A 
ATOM     13  C   UNL     1       2.062  11.868  18.818  0.00  0.00    +0.000 A 
ATOM     14  C   UNL     1       2.116  13.262  18.773  0.00  0.00    +0.000 A 
ATOM     15  C   UNL     1       3.166  13.955  18.166  0.00  0.00    +0.000 A 
ATOM     16  C   UNL     1       3.127  15.341  18.145  0.00  0.00    +0.000 A 
ATOM     17  F   UNL     1       3.957  16.014  17.340  0.00  0.00    +0.000 F 
ATOM     18  C   UNL     1       2.192  16.031  18.901  0.00  0.00    +0.000 A 
ATOM     19  C   UNL     1       1.118  15.327  19.444  0.00  0.00    +0.000 A 
ATOM     20  C   UNL     1       0.984  13.973  19.175  0.00  0.00    +0.000 A 
ATOM     21  N   UNL     1      -0.220  13.400  19.122  0.00  0.00    +0.000 NA
ATOM     22  C   UNL     1      -0.269  12.118  18.693  0.00  0.00    +0.000 A 
ATOM     23 CL   UNL     1      -1.717  11.766  17.824  0.00  0.00    +0.000 Cl
ENDBRANCH  10  12
BRANCH   1  27
ATOM     24  C   UNL     1       4.605   4.818  16.871  0.00  0.00    +0.000 A 
ATOM     25  C   UNL     1       4.987   6.150  16.774  0.00  0.00    +0.000 A 
ATOM     26  C   UNL     1       4.180   7.150  17.310  0.00  0.00    +0.000 A 
ATOM     27  C   UNL     1       2.966   6.827  17.936  0.00  0.00    +0.000 A 
ATOM     28  C   UNL     1       2.582   5.488  18.039  0.00  0.00    +0.000 A 
ATOM     29  C   UNL     1       3.400   4.487  17.503  0.00  0.00    +0.000 A 
BRANCH  24  31
ATOM     30  C   UNL     1       6.678   4.459  15.784  0.00  0.00    +0.000 C 
ATOM     31  O   UNL     1       5.457   3.934  16.266  0.00  0.00    +0.000 OA
ENDBRANCH  24  31
ENDBRANCH   1  27
TORSDOF 3
ENDMDL
MODEL 2
REMARK VINA RESULT:      -7.7      1.238      1.687
REMARK  Name = 
REMARK  4 active torsions:
REMARK  status: ('A' for Active; 'I' for Inactive)
REMARK    1  A    between atoms: C_1  and  O_2
REMARK    2  A    between atoms: O_2  and  C_3
REMARK    3  A    between atoms: C_6  and  C_7
REMARK    4  A    between atoms: C_16  and  C_17
REMARK                            x       y       z     vdW  Elec       q    Type
REMARK                         _______ _______ _______ _____ _____    ______ ____
ROOT
ATOM      1  C   UNL     1       1.806   8.268  19.046  0.00  0.00    +0.000 C 
ATOM      2  N   UNL     1       1.238   8.562  20.172  0.00  0.00    +0.000 NA
ATOM      3  N   UNL     1       0.548   9.731  20.019  0.00  0.00    +0.000 N 
ATOM      4  C   UNL     1      -0.241  10.279  21.027  0.00  0.00    +0.000 C 
ATOM      5  N   UNL     1      -1.273  11.048  20.863  0.00  0.00    +0.000 NA
ATOM      6  C   UNL     1      -1.823  11.451  22.049  0.00  0.00    +0.000 C 
ATOM      7  O   UNL     1      -2.834  12.131  22.135  0.00  0.00    +0.000 OA
ATOM      8  C   UNL     1      -1.085  10.994  23.284  0.00  0.00    +0.000 C 
ATOM      9  S   UNL     1       0.244   9.963  22.671  0.00  0.00    +0.000 S 
ATOM     10  C   UNL     1       0.565  10.204  18.633  0.00  0.00    +0.000 C 
ATOM     11  C   UNL     1       1.622   9.291  17.964  0.00  0.00    +0.000 C 
ENDROOT
BRANCH  10  12
ATOM     12  C   UNL     1       0.871  11.682  18.614  0.00  0.00    +0.000 A 
ATOM     13  C   UNL     1       2.145  12.183  18.860  0.00  0.00    +0.000 A 
ATOM     14  C   UNL     1       2.351  13.555  18.705  0.00  0.00    +0.000 A 
ATOM     15  C   UNL     1       3.529  14.083  18.172  0.00  0.00    +0.000 A 
ATOM     16  C   UNL     1       3.641  15.458  18.030  0.00  0.00    +0.000 A 
ATOM     17  F   UNL     1       4.622  15.968  17.276  0.00  0.00    +0.000 F 
ATOM     18  C   UNL     1       2.706  16.303  18.607  0.00  0.00    +0.000 A 
ATOM     19  C   UNL     1       1.511  15.761  19.075  0.00  0.00    +0.000 A 
ATOM     20  C   UNL     1       1.263  14.407  18.906  0.00  0.00    +0.000 A 
ATOM     21  N   UNL     1       0.019  13.950  18.758  0.00  0.00    +0.000 NA
ATOM     22  C   UNL     1      -0.118  12.642  18.436  0.00  0.00    +0.000 A 
ATOM     23 CL   UNL     1      -1.490  12.349  17.432  0.00  0.00    +0.000 Cl
ENDBRANCH  10  12
BRANCH   1  27
ATOM     24  C   UNL     1       4.078   4.646  18.794  0.00  0.00    +0.000 A 
ATOM     25  C   UNL     1       3.123   4.828  19.787  0.00  0.00    +0.000 A 
ATOM     26  C   UNL     1       2.379   6.005  19.835  0.00  0.00    +0.000 A 
ATOM     27  C   UNL     1       2.596   7.024  18.895  0.00  0.00    +0.000 A 
ATOM     28  C   UNL     1       3.551   6.841  17.893  0.00  0.00    +0.000 A 
ATOM     29  C   UNL     1       4.293   5.656  17.846  0.00  0.00    +0.000 A 
BRANCH  24  31
ATOM     30  C   UNL     1       4.316   2.531  19.830  0.00  0.00    +0.000 C 
ATOM     31  O   UNL     1       4.774   3.472  18.880  0.00  0.00    +0.000 OA
ENDBRANCH  24  31
ENDBRANCH   1  27
TORSDOF 3
ENDMDL
MODEL 3
REMARK VINA RESULT:      -7.5      3.899      5.362
REMARK  Name = 
REMARK  4 active torsions:
REMARK  status: ('A' for Active; 'I' for Inactive)
REMARK    1  A    between atoms: C_1  and  O_2
REMARK    2  A    between atoms: O_2  and  C_3
REMARK    3  A    between atoms: C_6  and  C_7
REMARK    4  A    between atoms: C_16  and  C_17
REMARK                            x       y       z     vdW  Elec       q    Type
REMARK                         _______ _______ _______ _____ _____    ______ ____
ROOT
ATOM      1  C   UNL     1       1.062   9.739  19.717  0.00  0.00    +0.000 C 
ATOM      2  N   UNL     1       1.421  10.931  19.362  0.00  0.00    +0.000 NA
ATOM      3  N   UNL     1       0.591  11.833  19.966  0.00  0.00    +0.000 N 
ATOM      4  C   UNL     1       0.763  13.211  19.851  0.00  0.00    +0.000 C 
ATOM      5  N   UNL     1       0.392  14.106  20.714  0.00  0.00    +0.000 NA
ATOM      6  C   UNL     1       0.673  15.380  20.303  0.00  0.00    +0.000 C 
ATOM      7  O   UNL     1       0.465  16.376  20.980  0.00  0.00    +0.000 OA
ATOM      8  C   UNL     1       1.274  15.489  18.922  0.00  0.00    +0.000 C 
ATOM      9  S   UNL     1       1.480  13.798  18.375  0.00  0.00    +0.000 S 
ATOM     10  C   UNL     1      -0.337  11.191  20.899  0.00  0.00    +0.000 C 
ATOM     11  C   UNL     1      -0.160   9.685  20.587  0.00  0.00    +0.000 C 
ENDROOT
BRANCH  10  12
ATOM     12  C   UNL     1      -1.725  11.744  20.681  0.00  0.00    +0.000 A 
ATOM     13  C   UNL     1      -2.321  11.793  19.427  0.00  0.00    +0.000 A 
ATOM     14  C   UNL     1      -3.649  12.214  19.347  0.00  0.00    +0.000 A 
ATOM     15  C   UNL     1      -4.567  11.648  18.459  0.00  0.00    +0.000 A 
ATOM     16  C   UNL     1      -5.874  12.110  18.464  0.00  0.00    +0.000 A 
ATOM     17  F   UNL     1      -6.826  11.408  17.838  0.00  0.00    +0.000 F 
ATOM     18  C   UNL     1      -6.213  13.256  19.167  0.00  0.00    +0.000 A 
ATOM     19  C   UNL     1      -5.306  13.766  20.093  0.00  0.00    +0.000 A 
ATOM     20  C   UNL     1      -4.117  13.092  20.327  0.00  0.00    +0.000 A 
ATOM     21  N   UNL     1      -3.526  13.137  21.522  0.00  0.00    +0.000 NA
ATOM     22  C   UNL     1      -2.462  12.322  21.710  0.00  0.00    +0.000 A 
ATOM     23 CL   UNL     1      -2.340  11.758  23.335  0.00  0.00    +0.000 Cl
ENDBRANCH  10  12
BRANCH   1  27
ATOM     24  C   UNL     1       3.261   6.258  18.541  0.00  0.00    +0.000 A 
ATOM     25  C   UNL     1       2.608   6.315  19.766  0.00  0.00    +0.000 A 
ATOM     26  C   UNL     1       1.879   7.448  20.118  0.00  0.00    +0.000 A 
ATOM     27  C   UNL     1       1.809   8.549  19.249  0.00  0.00    +0.000 A 
ATOM     28  C   UNL     1       2.461   8.491  18.015  0.00  0.00    +0.000 A 
ATOM     29  C   UNL     1       3.188   7.349  17.665  0.00  0.00    +0.000 A 
BRANCH  24  31
ATOM     30  C   UNL     1       5.166   4.962  19.088  0.00  0.00    +0.000 C 
ATOM     31  O   UNL     1       3.981   5.114  18.332  0.00  0.00    +0.000 OA
ENDBRANCH  24  31
ENDBRANCH   1  27
TORSDOF 3
ENDMDL
MODEL 4
REMARK VINA RESULT:      -7.4      3.994      5.470
REMARK  Name = 
REMARK  4 active torsions:
REMARK  status: ('A' for Active; 'I' for Inactive)
REMARK    1  A    between atoms: C_1  and  O_2
REMARK    2  A    between atoms: O_2  and  C_3
REMARK    3  A    between atoms: C_6  and  C_7
REMARK    4  A    between atoms: C_16  and  C_17
REMARK                            x       y       z     vdW  Elec       q    Type
REMARK                         _______ _______ _______ _____ _____    ______ ____
ROOT
ATOM      1  C   UNL     1       0.839   9.959  19.830  0.00  0.00    +0.000 C 
ATOM      2  N   UNL     1       1.196  11.164  19.520  0.00  0.00    +0.000 NA
ATOM      3  N   UNL     1       0.336  12.040  20.119  0.00  0.00    +0.000 N 
ATOM      4  C   UNL     1       0.497  13.422  20.048  0.00  0.00    +0.000 C 
ATOM      5  N   UNL     1       0.087  14.290  20.921  0.00  0.00    +0.000 NA
ATOM      6  C   UNL     1       0.367  15.577  20.555  0.00  0.00    +0.000 C 
ATOM      7  O   UNL     1       0.125  16.552  21.251  0.00  0.00    +0.000 OA
ATOM      8  C   UNL     1       1.013  15.731  19.199  0.00  0.00    +0.000 C 
ATOM      9  S   UNL     1       1.257  14.058  18.613  0.00  0.00    +0.000 S 
ATOM     10  C   UNL     1      -0.615  11.363  21.002  0.00  0.00    +0.000 C 
ATOM     11  C   UNL     1      -0.411   9.868  20.656  0.00  0.00    +0.000 C 
ENDROOT
BRANCH  10  12
ATOM     12  C   UNL     1      -2.001  11.908  20.752  0.00  0.00    +0.000 A 
ATOM     13  C   UNL     1      -2.571  11.947  19.485  0.00  0.00    +0.000 A 
ATOM     14  C   UNL     1      -3.900  12.362  19.375  0.00  0.00    +0.000 A 
ATOM     15  C   UNL     1      -4.795  11.785  18.471  0.00  0.00    +0.000 A 
ATOM     16  C   UNL     1      -6.105  12.241  18.446  0.00  0.00    +0.000 A 
ATOM     17  F   UNL     1      -7.040  11.531  17.803  0.00  0.00    +0.000 F 
ATOM     18  C   UNL     1      -6.464  13.388  19.135  0.00  0.00    +0.000 A 
ATOM     19  C   UNL     1      -5.580  13.909  20.078  0.00  0.00    +0.000 A 
ATOM     20  C   UNL     1      -4.392  13.242  20.340  0.00  0.00    +0.000 A 
ATOM     21  N   UNL     1      -3.827  13.296  21.547  0.00  0.00    +0.000 NA
ATOM     22  C   UNL     1      -2.763  12.488  21.762  0.00  0.00    +0.000 A 
ATOM     23 CL   UNL     1      -2.672  11.932  23.392  0.00  0.00    +0.000 Cl
ENDBRANCH  10  12
BRANCH   1  27
ATOM     24  C   UNL     1       3.028   6.619  18.284  0.00  0.00    +0.000 A 
ATOM     25  C   UNL     1       2.830   7.764  17.522  0.00  0.00    +0.000 A 
ATOM     26  C   UNL     1       2.136   8.847  18.054  0.00  0.00    +0.000 A 
ATOM     27  C   UNL     1       1.614   8.790  19.355  0.00  0.00    +0.000 A 
ATOM     28  C   UNL     1       1.816   7.642  20.125  0.00  0.00    +0.000 A 
ATOM     29  C   UNL     1       2.518   6.558  19.587  0.00  0.00    +0.000 A 
BRANCH  24  31
ATOM     30  C   UNL     1       3.103   4.321  17.718  0.00  0.00    +0.000 C 
ATOM     31  O   UNL     1       3.682   5.608  17.635  0.00  0.00    +0.000 OA
ENDBRANCH  24  31
ENDBRANCH   1  27
TORSDOF 3
ENDMDL
MODEL 5
REMARK VINA RESULT:      -7.4      4.049      5.799
REMARK  Name = 
REMARK  4 active torsions:
REMARK  status: ('A' for Active; 'I' for Inactive)
REMARK    1  A    between atoms: C_1  and  O_2
REMARK    2  A    between atoms: O_2  and  C_3
REMARK    3  A    between atoms: C_6  and  C_7
REMARK    4  A    between atoms: C_16  and  C_17
REMARK                            x       y       z     vdW  Elec       q    Type
REMARK                         _______ _______ _______ _____ _____    ______ ____
ROOT
ATOM      1  C   UNL     1       0.692  10.292  20.542  0.00  0.00    +0.000 C 
ATOM      2  N   UNL     1       1.118  11.508  20.417  0.00  0.00    +0.000 NA
ATOM      3  N   UNL     1       0.417  12.305  21.276  0.00  0.00    +0.000 N 
ATOM      4  C   UNL     1       0.691  13.661  21.443  0.00  0.00    +0.000 C 
ATOM      5  N   UNL     1       0.466  14.365  22.508  0.00  0.00    +0.000 NA
ATOM      6  C   UNL     1       0.817  15.679  22.354  0.00  0.00    +0.000 C 
ATOM      7  O   UNL     1       0.746  16.512  23.245  0.00  0.00    +0.000 OA
ATOM      8  C   UNL     1       1.312  16.051  20.978  0.00  0.00    +0.000 C 
ATOM      9  S   UNL     1       1.334  14.513  20.064  0.00  0.00    +0.000 S 
ATOM     10  C   UNL     1      -0.483  11.533  22.135  0.00  0.00    +0.000 C 
ATOM     11  C   UNL     1      -0.456  10.124  21.493  0.00  0.00    +0.000 C 
ENDROOT
BRANCH  10  12
ATOM     12  C   UNL     1      -1.834  12.207  22.175  0.00  0.00    +0.000 A 
ATOM     13  C   UNL     1      -2.404  12.665  23.357  0.00  0.00    +0.000 A 
ATOM     14  C   UNL     1      -3.602  13.377  23.275  0.00  0.00    +0.000 A 
ATOM     15  C   UNL     1      -3.885  14.471  24.097  0.00  0.00    +0.000 A 
ATOM     16  C   UNL     1      -5.089  15.138  23.931  0.00  0.00    +0.000 A 
ATOM     17  F   UNL     1      -5.265  16.337  24.497  0.00  0.00    +0.000 F 
ATOM     18  C   UNL     1      -6.085  14.602  23.129  0.00  0.00    +0.000 A 
ATOM     19  C   UNL     1      -5.764  13.552  22.271  0.00  0.00    +0.000 A 
ATOM     20  C   UNL     1      -4.452  13.106  22.201  0.00  0.00    +0.000 A 
ATOM     21  N   UNL     1      -3.961  12.592  21.072  0.00  0.00    +0.000 NA
ATOM     22  C   UNL     1      -2.633  12.334  21.044  0.00  0.00    +0.000 A 
ATOM     23 CL   UNL     1      -1.949  12.560  19.477  0.00  0.00    +0.000 Cl
ENDBRANCH  10  12
BRANCH   1  27
ATOM     24  C   UNL     1       2.536   7.050  18.437  0.00  0.00    +0.000 A 
ATOM     25  C   UNL     1       2.258   6.960  19.795  0.00  0.00    +0.000 A 
ATOM     26  C   UNL     1       1.636   8.017  20.454  0.00  0.00    +0.000 A 
ATOM     27  C   UNL     1       1.299   9.190  19.761  0.00  0.00    +0.000 A 
ATOM     28  C   UNL     1       1.573   9.281  18.394  0.00  0.00    +0.000 A 
ATOM     29  C   UNL     1       2.194   8.214  17.736  0.00  0.00    +0.000 A 
BRANCH  24  31
ATOM     30  C   UNL     1       2.470   4.753  17.868  0.00  0.00    +0.000 C 
ATOM     31  O   UNL     1       3.190   5.968  17.915  0.00  0.00    +0.000 OA
ENDBRANCH  24  31
ENDBRANCH   1  27
TORSDOF 3
ENDMDL
MODEL 6
REMARK VINA RESULT:      -7.1      4.509      8.981
REMARK  Name = 
REMARK  4 active torsions:
REMARK  status: ('A' for Active; 'I' for Inactive)
REMARK    1  A    between atoms: C_1  and  O_2
REMARK    2  A    between atoms: O_2  and  C_3
REMARK    3  A    between atoms: C_6  and  C_7
REMARK    4  A    between atoms: C_16  and  C_17
REMARK                            x       y       z     vdW  Elec       q    Type
REMARK                         _______ _______ _______ _____ _____    ______ ____
ROOT
ATOM      1  C   UNL     1       2.366   7.744  18.764  0.00  0.00    +0.000 C 
ATOM      2  N   UNL     1       2.147   6.503  19.062  0.00  0.00    +0.000 NA
ATOM      3  N   UNL     1       3.292   5.792  18.835  0.00  0.00    +0.000 N 
ATOM      4  C   UNL     1       3.410   4.437  19.135  0.00  0.00    +0.000 C 
ATOM      5  N   UNL     1       4.507   3.807  19.426  0.00  0.00    +0.000 NA
ATOM      6  C   UNL     1       4.304   2.472  19.643  0.00  0.00    +0.000 C 
ATOM      7  O   UNL     1       5.183   1.696  19.987  0.00  0.00    +0.000 OA
ATOM      8  C   UNL     1       2.888   1.996  19.427  0.00  0.00    +0.000 C 
ATOM      9  S   UNL     1       1.959   3.476  19.040  0.00  0.00    +0.000 S 
ATOM     10  C   UNL     1       4.411   6.656  18.457  0.00  0.00    +0.000 C 
ATOM     11  C   UNL     1       3.729   8.022  18.200  0.00  0.00    +0.000 C 
ENDROOT
BRANCH  10  12
ATOM     12  C   UNL     1       5.129   6.052  17.274  0.00  0.00    +0.000 A 
ATOM     13  C   UNL     1       4.562   5.058  16.484  0.00  0.00    +0.000 A 
ATOM     14  C   UNL     1       5.257   4.647  15.346  0.00  0.00    +0.000 A 
ATOM     15  C   UNL     1       4.615   4.320  14.149  0.00  0.00    +0.000 A 
ATOM     16  C   UNL     1       5.385   3.946  13.058  0.00  0.00    +0.000 A 
ATOM     17  F   UNL     1       4.831   3.901  11.841  0.00  0.00    +0.000 F 
ATOM     18  C   UNL     1       6.738   3.683  13.209  0.00  0.00    +0.000 A 
ATOM     19  C   UNL     1       7.370   4.075  14.387  0.00  0.00    +0.000 A 
ATOM     20  C   UNL     1       6.649   4.762  15.352  0.00  0.00    +0.000 A 
ATOM     21  N   UNL     1       7.243   5.649  16.152  0.00  0.00    +0.000 NA
ATOM     22  C   UNL     1       6.439   6.389  16.950  0.00  0.00    +0.000 A 
ATOM     23 CL   UNL     1       7.055   7.977  17.218  0.00  0.00    +0.000 Cl
ENDBRANCH  10  12
BRANCH   1  27
ATOM     24  C   UNL     1      -0.731  10.619  19.455  0.00  0.00    +0.000 A 
ATOM     25  C   UNL     1      -0.095   9.979  20.512  0.00  0.00    +0.000 A 
ATOM     26  C   UNL     1       0.926   9.065  20.264  0.00  0.00    +0.000 A 
ATOM     27  C   UNL     1       1.313   8.768  18.949  0.00  0.00    +0.000 A 
ATOM     28  C   UNL     1       0.679   9.414  17.885  0.00  0.00    +0.000 A 
ATOM     29  C   UNL     1      -0.343  10.334  18.140  0.00  0.00    +0.000 A 
BRANCH  24  31
ATOM     30  C   UNL     1      -2.655  11.839  18.810  0.00  0.00    +0.000 C 
ATOM     31  O   UNL     1      -1.747  11.457  19.824  0.00  0.00    +0.000 OA
ENDBRANCH  24  31
ENDBRANCH   1  27
TORSDOF 3
ENDMDL
MODEL 7
REMARK VINA RESULT:      -7.1      2.417      3.136
REMARK  Name = 
REMARK  4 active torsions:
REMARK  status: ('A' for Active; 'I' for Inactive)
REMARK    1  A    between atoms: C_1  and  O_2
REMARK    2  A    between atoms: O_2  and  C_3
REMARK    3  A    between atoms: C_6  and  C_7
REMARK    4  A    between atoms: C_16  and  C_17
REMARK                            x       y       z     vdW  Elec       q    Type
REMARK                         _______ _______ _______ _____ _____    ______ ____
ROOT
ATOM      1  C   UNL     1       1.123   9.623  19.326  0.00  0.00    +0.000 C 
ATOM      2  N   UNL     1       0.371   9.875  20.349  0.00  0.00    +0.000 NA
ATOM      3  N   UNL     1      -0.225  11.091  20.163  0.00  0.00    +0.000 N 
ATOM      4  C   UNL     1      -1.161  11.616  21.050  0.00  0.00    +0.000 C 
ATOM      5  N   UNL     1      -2.108  12.454  20.760  0.00  0.00    +0.000 NA
ATOM      6  C   UNL     1      -2.849  12.809  21.855  0.00  0.00    +0.000 C 
ATOM      7  O   UNL     1      -3.827  13.541  21.807  0.00  0.00    +0.000 OA
ATOM      8  C   UNL     1      -2.375  12.227  23.164  0.00  0.00    +0.000 C 
ATOM      9  S   UNL     1      -1.005  11.163  22.726  0.00  0.00    +0.000 S 
ATOM     10  C   UNL     1       0.071  11.653  18.844  0.00  0.00    +0.000 C 
ATOM     11  C   UNL     1       1.190  10.726  18.311  0.00  0.00    +0.000 C 
ENDROOT
BRANCH  10  12
ATOM     12  C   UNL     1       0.443  13.108  18.994  0.00  0.00    +0.000 A 
ATOM     13  C   UNL     1      -0.333  14.136  18.470  0.00  0.00    +0.000 A 
ATOM     14  C   UNL     1       0.034  15.450  18.762  0.00  0.00    +0.000 A 
ATOM     15  C   UNL     1      -0.903  16.457  19.006  0.00  0.00    +0.000 A 
ATOM     16  C   UNL     1      -0.451  17.731  19.314  0.00  0.00    +0.000 A 
ATOM     17  F   UNL     1      -1.302  18.631  19.820  0.00  0.00    +0.000 F 
ATOM     18  C   UNL     1       0.888  18.058  19.163  0.00  0.00    +0.000 A 
ATOM     19  C   UNL     1       1.813  17.031  18.984  0.00  0.00    +0.000 A 
ATOM     20  C   UNL     1       1.383  15.713  19.012  0.00  0.00    +0.000 A 
ATOM     21  N   UNL     1       2.185  14.738  19.443  0.00  0.00    +0.000 NA
ATOM     22  C   UNL     1       1.633  13.511  19.591  0.00  0.00    +0.000 A 
ATOM     23 CL   UNL     1       2.336  12.623  20.892  0.00  0.00    +0.000 Cl
ENDBRANCH  10  12
BRANCH   1  27
ATOM     24  C   UNL     1       3.266   5.946  18.852  0.00  0.00    +0.000 A 
ATOM     25  C   UNL     1       3.328   6.944  17.888  0.00  0.00    +0.000 A 
ATOM     26  C   UNL     1       2.643   8.142  18.074  0.00  0.00    +0.000 A 
ATOM     27  C   UNL     1       1.869   8.348  19.227  0.00  0.00    +0.000 A 
ATOM     28  C   UNL     1       1.808   7.348  20.200  0.00  0.00    +0.000 A 
ATOM     29  C   UNL     1       2.503   6.149  20.010  0.00  0.00    +0.000 A 
BRANCH  24  31
ATOM     30  C   UNL     1       5.260   4.683  19.028  0.00  0.00    +0.000 C 
ATOM     31  O   UNL     1       3.942   4.801  18.533  0.00  0.00    +0.000 OA
ENDBRANCH  24  31
ENDBRANCH   1  27
TORSDOF 3
ENDMDL
MODEL 8
REMARK VINA RESULT:      -7.0      4.218      5.977
REMARK  Name = 
REMARK  4 active torsions:
REMARK  status: ('A' for Active; 'I' for Inactive)
REMARK    1  A    between atoms: C_1  and  O_2
REMARK    2  A    between atoms: O_2  and  C_3
REMARK    3  A    between atoms: C_6  and  C_7
REMARK    4  A    between atoms: C_16  and  C_17
REMARK                            x       y       z     vdW  Elec       q    Type
REMARK                         _______ _______ _______ _____ _____    ______ ____
ROOT
ATOM      1  C   UNL     1       0.511  10.424  20.908  0.00  0.00    +0.000 C 
ATOM      2  N   UNL     1       0.916  11.646  20.775  0.00  0.00    +0.000 NA
ATOM      3  N   UNL     1       0.149  12.448  21.572  0.00  0.00    +0.000 N 
ATOM      4  C   UNL     1       0.382  13.813  21.718  0.00  0.00    +0.000 C 
ATOM      5  N   UNL     1       0.081  14.539  22.751  0.00  0.00    +0.000 NA
ATOM      6  C   UNL     1       0.410  15.856  22.581  0.00  0.00    +0.000 C 
ATOM      7  O   UNL     1       0.270  16.709  23.445  0.00  0.00    +0.000 OA
ATOM      8  C   UNL     1       0.973  16.206  21.226  0.00  0.00    +0.000 C 
ATOM      9  S   UNL     1       1.082  14.646  20.355  0.00  0.00    +0.000 S 
ATOM     10  C   UNL     1      -0.781  11.676  22.399  0.00  0.00    +0.000 C 
ATOM     11  C   UNL     1      -0.685  10.253  21.797  0.00  0.00    +0.000 C 
ENDROOT
BRANCH  10  12
ATOM     12  C   UNL     1      -2.146  12.318  22.346  0.00  0.00    +0.000 A 
ATOM     13  C   UNL     1      -2.784  12.811  23.479  0.00  0.00    +0.000 A 
ATOM     14  C   UNL     1      -3.991  13.490  23.310  0.00  0.00    +0.000 A 
ATOM     15  C   UNL     1      -4.338  14.610  24.069  0.00  0.00    +0.000 A 
ATOM     16  C   UNL     1      -5.548  15.240  23.817  0.00  0.00    +0.000 A 
ATOM     17  F   UNL     1      -5.777  16.457  24.322  0.00  0.00    +0.000 F 
ATOM     18  C   UNL     1      -6.492  14.646  22.993  0.00  0.00    +0.000 A 
ATOM     19  C   UNL     1      -6.105  13.569  22.198  0.00  0.00    +0.000 A 
ATOM     20  C   UNL     1      -4.782  13.152  22.210  0.00  0.00    +0.000 A 
ATOM     21  N   UNL     1      -4.226  12.604  21.129  0.00  0.00    +0.000 NA
ATOM     22  C   UNL     1      -2.892  12.378  21.174  0.00  0.00    +0.000 A 
ATOM     23 CL   UNL     1      -2.139  12.553  19.633  0.00  0.00    +0.000 Cl
ENDBRANCH  10  12
BRANCH   1  27
ATOM     24  C   UNL     1       2.379   7.281  18.679  0.00  0.00    +0.000 A 
ATOM     25  C   UNL     1       2.049   8.489  18.079  0.00  0.00    +0.000 A 
ATOM     26  C   UNL     1       1.464   9.507  18.829  0.00  0.00    +0.000 A 
ATOM     27  C   UNL     1       1.186   9.318  20.191  0.00  0.00    +0.000 A 
ATOM     28  C   UNL     1       1.521   8.105  20.798  0.00  0.00    +0.000 A 
ATOM     29  C   UNL     1       2.112   7.088  20.040  0.00  0.00    +0.000 A 
BRANCH  24  31
ATOM     30  C   UNL     1       4.225   6.567  17.380  0.00  0.00    +0.000 C 
ATOM     31  O   UNL     1       2.903   6.346  17.828  0.00  0.00    +0.000 OA
ENDBRANCH  24  31
ENDBRANCH   1  27
TORSDOF 3
ENDMDL
MODEL 9
REMARK VINA RESULT:      -7.0      3.728      5.133
REMARK  Name = 
REMARK  4 active torsions:
REMARK  status: ('A' for Active; 'I' for Inactive)
REMARK    1  A    between atoms: C_1  and  O_2
REMARK    2  A    between atoms: O_2  and  C_3
REMARK    3  A    between atoms: C_6  and  C_7
REMARK    4  A    between atoms: C_16  and  C_17
REMARK                            x       y       z     vdW  Elec       q    Type
REMARK                         _______ _______ _______ _____ _____    ______ ____
ROOT
ATOM      1  C   UNL     1       1.028   9.784  19.602  0.00  0.00    +0.000 C 
ATOM      2  N   UNL     1       1.456  10.970  19.308  0.00  0.00    +0.000 NA
ATOM      3  N   UNL     1       0.609  11.889  19.861  0.00  0.00    +0.000 N 
ATOM      4  C   UNL     1       0.837  13.261  19.795  0.00  0.00    +0.000 C 
ATOM      5  N   UNL     1       0.424  14.151  20.644  0.00  0.00    +0.000 NA
ATOM      6  C   UNL     1       0.783  15.422  20.289  0.00  0.00    +0.000 C 
ATOM      7  O   UNL     1       0.551  16.410  20.970  0.00  0.00    +0.000 OA
ATOM      8  C   UNL     1       1.503  15.539  18.968  0.00  0.00    +0.000 C 
ATOM      9  S   UNL     1       1.698  13.854  18.399  0.00  0.00    +0.000 S 
ATOM     10  C   UNL     1      -0.417  11.261  20.695  0.00  0.00    +0.000 C 
ATOM     11  C   UNL     1      -0.266   9.756  20.363  0.00  0.00    +0.000 C 
ENDROOT
BRANCH  10  12
ATOM     12  C   UNL     1      -1.761  11.868  20.374  0.00  0.00    +0.000 A 
ATOM     13  C   UNL     1      -2.486  12.609  21.300  0.00  0.00    +0.000 A 
ATOM     14  C   UNL     1      -3.662  13.226  20.872  0.00  0.00    +0.000 A 
ATOM     15  C   UNL     1      -4.055  14.491  21.318  0.00  0.00    +0.000 A 
ATOM     16  C   UNL     1      -5.226  15.041  20.820  0.00  0.00    +0.000 A 
ATOM     17  F   UNL     1      -5.478  16.342  21.008  0.00  0.00    +0.000 F 
ATOM     18  C   UNL     1      -6.105  14.270  20.075  0.00  0.00    +0.000 A 
ATOM     19  C   UNL     1      -5.669  13.040  19.588  0.00  0.00    +0.000 A 
ATOM     20  C   UNL     1      -4.360  12.641  19.813  0.00  0.00    +0.000 A 
ATOM     21  N   UNL     1      -3.721  11.858  18.942  0.00  0.00    +0.000 NA
ATOM     22  C   UNL     1      -2.401  11.653  19.158  0.00  0.00    +0.000 A 
ATOM     23 CL   UNL     1      -1.513  11.469  17.691  0.00  0.00    +0.000 Cl
ENDBRANCH  10  12
BRANCH   1  27
ATOM     24  C   UNL     1       3.216   6.262  18.533  0.00  0.00    +0.000 A 
ATOM     25  C   UNL     1       2.559   6.357  19.753  0.00  0.00    +0.000 A 
ATOM     26  C   UNL     1       1.833   7.503  20.070  0.00  0.00    +0.000 A 
ATOM     27  C   UNL     1       1.771   8.579  19.171  0.00  0.00    +0.000 A 
ATOM     28  C   UNL     1       2.427   8.484  17.942  0.00  0.00    +0.000 A 
ATOM     29  C   UNL     1       3.151   7.328  17.627  0.00  0.00    +0.000 A 
BRANCH  24  31
ATOM     30  C   UNL     1       5.002   4.886  19.255  0.00  0.00    +0.000 C 
ATOM     31  O   UNL     1       3.932   5.110  18.359  0.00  0.00    +0.000 OA
ENDBRANCH  24  31
ENDBRANCH   1  27
TORSDOF 3
ENDMDL
