MODEL 1
REMARK VINA RESULT:      -8.3      0.000      0.000
REMARK  Name = 
REMARK  13 active torsions:
REMARK  status: ('A' for Active; 'I' for Inactive)
REMARK    1  A    between atoms: C_1  and  C_2
REMARK    2  A    between atoms: C_2  and  O_3
REMARK    3  A    between atoms: O_3  and  C_4
REMARK    4  A    between atoms: C_4  and  C_6
REMARK    5  A    between atoms: C_9  and  N_10
REMARK    6  A    between atoms: C_11  and  C_13
REMARK    7  A    between atoms: C_13  and  S_14
REMARK    8  A    between atoms: S_14  and  C_15
REMARK    9  A    between atoms: C_18  and  C_19
REMARK   10  A    between atoms: C_19  and  C_20
REMARK   11  A    between atoms: C_20  and  C_21
REMARK   12  A    between atoms: C_24  and  C_25
REMARK   13  A    between atoms: N_27  and  C_28
REMARK                            x       y       z     vdW  Elec       q    Type
REMARK                         _______ _______ _______ _____ _____    ______ ____
ROOT
ATOM      1  C   UNL     1       2.274   7.482  19.012  0.00  0.00    +0.000 A 
ATOM      2  N   UNL     1       2.730   8.303  18.097  0.00  0.00    +0.000 NA
ATOM      3  N   UNL     1       3.523   7.584  17.255  0.00  0.00    +0.000 NA
ATOM      4  C   UNL     1       3.543   6.321  17.656  0.00  0.00    +0.000 A 
ATOM      5  N   UNL     1       2.719   6.185  18.779  0.00  0.00    +0.000 N 
ENDROOT
BRANCH   5   6
ATOM      6  C   UNL     1       2.331   4.984  19.437  0.00  0.00    +0.000 A 
ATOM      7  C   UNL     1       1.403   4.112  18.858  0.00  0.00    +0.000 A 
ATOM      8  C   UNL     1       0.832   3.088  19.621  0.00  0.00    +0.000 A 
ATOM      9  C   UNL     1       1.232   2.893  20.941  0.00  0.00    +0.000 A 
ATOM     10  C   UNL     1       2.232   3.691  21.488  0.00  0.00    +0.000 A 
ATOM     11  C   UNL     1       2.779   4.737  20.743  0.00  0.00    +0.000 A 
ENDBRANCH   5   6
BRANCH   1  12
ATOM     12  S   UNL     1       1.401   8.014  20.417  0.00  0.00    +0.000 S 
BRANCH  12  13
ATOM     13  C   UNL     1       1.284   9.799  20.117  0.00  0.00    +0.000 C 
BRANCH  13  15
ATOM     14  N   UNL     1      -0.187  11.291  21.353  0.00  0.00    +0.000 N 
ATOM     15  C   UNL     1      -0.125  10.308  20.374  0.00  0.00    +0.000 C 
ATOM     16  O   UNL     1      -1.077   9.866  19.733  0.00  0.00    +0.000 OA
ATOM     17  H   UNL     1       0.694  11.749  21.589  0.00  0.00    +0.000 HD
BRANCH  14  21
ATOM     18  C   UNL     1      -3.819  13.037  22.626  0.00  0.00    +0.000 A 
ATOM     19  C   UNL     1      -3.131  12.172  23.482  0.00  0.00    +0.000 A 
ATOM     20  C   UNL     1      -1.909  11.614  23.096  0.00  0.00    +0.000 A 
ATOM     21  C   UNL     1      -1.356  11.905  21.846  0.00  0.00    +0.000 A 
ATOM     22  C   UNL     1      -2.017  12.823  21.013  0.00  0.00    +0.000 A 
ATOM     23  C   UNL     1      -3.247  13.376  21.394  0.00  0.00    +0.000 A 
BRANCH  18  24
ATOM     24  C   UNL     1      -5.178  13.482  23.037  0.00  0.00    +0.000 C 
ATOM     25  O   UNL     1      -5.617  14.599  22.817  0.00  0.00    +0.000 OA
BRANCH  24  26
ATOM     26  O   UNL     1      -5.785  12.518  23.772  0.00  0.00    +0.000 OA
BRANCH  26  28
ATOM     27  C   UNL     1      -7.800  11.974  22.597  0.00  0.00    +0.000 C 
ATOM     28  C   UNL     1      -7.216  12.610  23.846  0.00  0.00    +0.000 C 
ENDBRANCH  26  28
ENDBRANCH  24  26
ENDBRANCH  18  24
ENDBRANCH  14  21
ENDBRANCH  13  15
ENDBRANCH  12  13
ENDBRANCH   1  12
BRANCH   4  29
ATOM     29  C   UNL     1       4.332   5.267  16.933  0.00  0.00    +0.000 C 
BRANCH  29  30
ATOM     30  C   UNL     1       5.703   5.625  16.358  0.00  0.00    +0.000 C 
BRANCH  30  31
ATOM     31  C   UNL     1       6.651   6.274  17.291  0.00  0.00    +0.000 A 
ATOM     32  C   UNL     1       7.471   5.794  18.290  0.00  0.00    +0.000 A 
ATOM     33  C   UNL     1       8.249   6.894  18.728  0.00  0.00    +0.000 A 
ATOM     34  C   UNL     1       7.865   7.968  17.957  0.00  0.00    +0.000 A 
ATOM     35  C   UNL     1       8.289   9.375  17.876  0.00  0.00    +0.000 C 
ATOM     36  O   UNL     1       6.892   7.595  17.082  0.00  0.00    +0.000 OA
ENDBRANCH  30  31
ENDBRANCH  29  30
ENDBRANCH   4  29
TORSDOF 11
ENDMDL
MODEL 2
REMARK VINA RESULT:      -8.3      2.345      3.414
REMARK  Name = 
REMARK  13 active torsions:
REMARK  status: ('A' for Active; 'I' for Inactive)
REMARK    1  A    between atoms: C_1  and  C_2
REMARK    2  A    between atoms: C_2  and  O_3
REMARK    3  A    between atoms: O_3  and  C_4
REMARK    4  A    between atoms: C_4  and  C_6
REMARK    5  A    between atoms: C_9  and  N_10
REMARK    6  A    between atoms: C_11  and  C_13
REMARK    7  A    between atoms: C_13  and  S_14
REMARK    8  A    between atoms: S_14  and  C_15
REMARK    9  A    between atoms: C_18  and  C_19
REMARK   10  A    between atoms: C_19  and  C_20
REMARK   11  A    between atoms: C_20  and  C_21
REMARK   12  A    between atoms: C_24  and  C_25
REMARK   13  A    between atoms: N_27  and  C_28
REMARK                            x       y       z     vdW  Elec       q    Type
REMARK                         _______ _______ _______ _____ _____    ______ ____
ROOT
ATOM      1  C   UNL     1       3.253   6.940  17.907  0.00  0.00    +0.000 A 
ATOM      2  N   UNL     1       4.044   7.559  17.064  0.00  0.00    +0.000 NA
ATOM      3  N   UNL     1       4.896   6.634  16.542  0.00  0.00    +0.000 NA
ATOM      4  C   UNL     1       4.618   5.448  17.064  0.00  0.00    +0.000 A 
ATOM      5  N   UNL     1       3.532   5.578  17.938  0.00  0.00    +0.000 N 
ENDROOT
BRANCH   5   6
ATOM      6  C   UNL     1       2.810   4.540  18.593  0.00  0.00    +0.000 A 
ATOM      7  C   UNL     1       1.837   3.798  17.913  0.00  0.00    +0.000 A 
ATOM      8  C   UNL     1       0.957   2.978  18.625  0.00  0.00    +0.000 A 
ATOM      9  C   UNL     1       1.083   2.848  20.006  0.00  0.00    +0.000 A 
ATOM     10  C   UNL     1       2.115   3.502  20.673  0.00  0.00    +0.000 A 
ATOM     11  C   UNL     1       2.975   4.349  19.973  0.00  0.00    +0.000 A 
ENDBRANCH   5   6
BRANCH   1  12
ATOM     12  S   UNL     1       2.156   7.771  18.968  0.00  0.00    +0.000 S 
BRANCH  12  13
ATOM     13  C   UNL     1       1.668   9.189  17.946  0.00  0.00    +0.000 C 
BRANCH  13  15
ATOM     14  N   UNL     1       0.145   9.992  19.665  0.00  0.00    +0.000 N 
ATOM     15  C   UNL     1       1.179  10.343  18.806  0.00  0.00    +0.000 C 
ATOM     16  O   UNL     1       1.699  11.454  18.719  0.00  0.00    +0.000 OA
ATOM     17  H   UNL     1       0.014   8.993  19.828  0.00  0.00    +0.000 HD
BRANCH  14  21
ATOM     18  C   UNL     1      -1.708  12.639  22.390  0.00  0.00    +0.000 A 
ATOM     19  C   UNL     1      -1.837  12.859  21.015  0.00  0.00    +0.000 A 
ATOM     20  C   UNL     1      -1.265  11.975  20.097  0.00  0.00    +0.000 A 
ATOM     21  C   UNL     1      -0.548  10.858  20.535  0.00  0.00    +0.000 A 
ATOM     22  C   UNL     1      -0.472  10.604  21.914  0.00  0.00    +0.000 A 
ATOM     23  C   UNL     1      -1.037  11.493  22.837  0.00  0.00    +0.000 A 
BRANCH  18  24
ATOM     24  C   UNL     1      -2.216  13.690  23.311  0.00  0.00    +0.000 C 
ATOM     25  O   UNL     1      -1.540  14.201  24.189  0.00  0.00    +0.000 OA
BRANCH  24  26
ATOM     26  O   UNL     1      -3.539  13.899  23.101  0.00  0.00    +0.000 OA
BRANCH  26  28
ATOM     27  C   UNL     1      -4.445  12.485  24.809  0.00  0.00    +0.000 C 
ATOM     28  C   UNL     1      -4.384  12.759  23.317  0.00  0.00    +0.000 C 
ENDBRANCH  26  28
ENDBRANCH  24  26
ENDBRANCH  18  24
ENDBRANCH  14  21
ENDBRANCH  13  15
ENDBRANCH  12  13
ENDBRANCH   1  12
BRANCH   4  29
ATOM     29  C   UNL     1       5.384   4.212  16.690  0.00  0.00    +0.000 C 
BRANCH  29  30
ATOM     30  C   UNL     1       6.750   4.356  16.019  0.00  0.00    +0.000 C 
BRANCH  30  31
ATOM     31  C   UNL     1       6.751   4.362  14.538  0.00  0.00    +0.000 A 
ATOM     32  C   UNL     1       7.544   4.983  13.597  0.00  0.00    +0.000 A 
ATOM     33  C   UNL     1       7.134   4.479  12.338  0.00  0.00    +0.000 A 
ATOM     34  C   UNL     1       6.131   3.573  12.595  0.00  0.00    +0.000 A 
ATOM     35  C   UNL     1       5.310   2.688  11.753  0.00  0.00    +0.000 C 
ATOM     36  O   UNL     1       5.894   3.499  13.932  0.00  0.00    +0.000 OA
ENDBRANCH  30  31
ENDBRANCH  29  30
ENDBRANCH   4  29
TORSDOF 11
ENDMDL
MODEL 3
REMARK VINA RESULT:      -8.2      2.704      3.857
REMARK  Name = 
REMARK  13 active torsions:
REMARK  status: ('A' for Active; 'I' for Inactive)
REMARK    1  A    between atoms: C_1  and  C_2
REMARK    2  A    between atoms: C_2  and  O_3
REMARK    3  A    between atoms: O_3  and  C_4
REMARK    4  A    between atoms: C_4  and  C_6
REMARK    5  A    between atoms: C_9  and  N_10
REMARK    6  A    between atoms: C_11  and  C_13
REMARK    7  A    between atoms: C_13  and  S_14
REMARK    8  A    between atoms: S_14  and  C_15
REMARK    9  A    between atoms: C_18  and  C_19
REMARK   10  A    between atoms: C_19  and  C_20
REMARK   11  A    between atoms: C_20  and  C_21
REMARK   12  A    between atoms: C_24  and  C_25
REMARK   13  A    between atoms: N_27  and  C_28
REMARK                            x       y       z     vdW  Elec       q    Type
REMARK                         _______ _______ _______ _____ _____    ______ ____
ROOT
ATOM      1  C   UNL     1       3.308   6.904  17.873  0.00  0.00    +0.000 A 
ATOM      2  N   UNL     1       4.092   7.540  17.034  0.00  0.00    +0.000 NA
ATOM      3  N   UNL     1       4.949   6.627  16.498  0.00  0.00    +0.000 NA
ATOM      4  C   UNL     1       4.681   5.433  17.007  0.00  0.00    +0.000 A 
ATOM      5  N   UNL     1       3.598   5.544  17.885  0.00  0.00    +0.000 N 
ENDROOT
BRANCH   5   6
ATOM      6  C   UNL     1       2.885   4.493  18.530  0.00  0.00    +0.000 A 
ATOM      7  C   UNL     1       1.835   3.831  17.884  0.00  0.00    +0.000 A 
ATOM      8  C   UNL     1       0.978   2.999  18.610  0.00  0.00    +0.000 A 
ATOM      9  C   UNL     1       1.202   2.777  19.967  0.00  0.00    +0.000 A 
ATOM     10  C   UNL     1       2.307   3.350  20.590  0.00  0.00    +0.000 A 
ATOM     11  C   UNL     1       3.146   4.209  19.879  0.00  0.00    +0.000 A 
ENDBRANCH   5   6
BRANCH   1  12
ATOM     12  S   UNL     1       2.209   7.714  18.947  0.00  0.00    +0.000 S 
BRANCH  12  13
ATOM     13  C   UNL     1       1.790   9.196  17.987  0.00  0.00    +0.000 C 
BRANCH  13  15
ATOM     14  N   UNL     1       1.104  10.656  19.809  0.00  0.00    +0.000 N 
ATOM     15  C   UNL     1       0.685   9.992  18.662  0.00  0.00    +0.000 C 
ATOM     16  O   UNL     1      -0.448  10.024  18.184  0.00  0.00    +0.000 OA
ATOM     17  H   UNL     1       2.112  10.767  19.921  0.00  0.00    +0.000 HD
BRANCH  14  21
ATOM     18  C   UNL     1      -1.166  12.872  22.600  0.00  0.00    +0.000 A 
ATOM     19  C   UNL     1      -0.620  13.517  21.486  0.00  0.00    +0.000 A 
ATOM     20  C   UNL     1       0.101  12.795  20.531  0.00  0.00    +0.000 A 
ATOM     21  C   UNL     1       0.295  11.419  20.674  0.00  0.00    +0.000 A 
ATOM     22  C   UNL     1      -0.306  10.763  21.761  0.00  0.00    +0.000 A 
ATOM     23  C   UNL     1      -1.022  11.484  22.724  0.00  0.00    +0.000 A 
BRANCH  18  24
ATOM     24  C   UNL     1      -1.798  13.716  23.649  0.00  0.00    +0.000 C 
ATOM     25  O   UNL     1      -3.004  13.787  23.823  0.00  0.00    +0.000 OA
BRANCH  24  26
ATOM     26  O   UNL     1      -0.857  14.459  24.283  0.00  0.00    +0.000 OA
BRANCH  26  28
ATOM     27  C   UNL     1      -1.462  16.088  25.932  0.00  0.00    +0.000 C 
ATOM     28  C   UNL     1      -1.183  15.846  24.460  0.00  0.00    +0.000 C 
ENDBRANCH  26  28
ENDBRANCH  24  26
ENDBRANCH  18  24
ENDBRANCH  14  21
ENDBRANCH  13  15
ENDBRANCH  12  13
ENDBRANCH   1  12
BRANCH   4  29
ATOM     29  C   UNL     1       5.456   4.207  16.615  0.00  0.00    +0.000 C 
BRANCH  29  30
ATOM     30  C   UNL     1       6.802   4.369  15.910  0.00  0.00    +0.000 C 
BRANCH  30  31
ATOM     31  C   UNL     1       6.768   4.366  14.430  0.00  0.00    +0.000 A 
ATOM     32  C   UNL     1       7.557   4.956  13.466  0.00  0.00    +0.000 A 
ATOM     33  C   UNL     1       7.101   4.459  12.221  0.00  0.00    +0.000 A 
ATOM     34  C   UNL     1       6.076   3.587  12.507  0.00  0.00    +0.000 A 
ATOM     35  C   UNL     1       5.207   2.725  11.690  0.00  0.00    +0.000 C 
ATOM     36  O   UNL     1       5.869   3.528  13.850  0.00  0.00    +0.000 OA
ENDBRANCH  30  31
ENDBRANCH  29  30
ENDBRANCH   4  29
TORSDOF 11
ENDMDL
MODEL 4
REMARK VINA RESULT:      -8.2      2.748      3.417
REMARK  Name = 
REMARK  13 active torsions:
REMARK  status: ('A' for Active; 'I' for Inactive)
REMARK    1  A    between atoms: C_1  and  C_2
REMARK    2  A    between atoms: C_2  and  O_3
REMARK    3  A    between atoms: O_3  and  C_4
REMARK    4  A    between atoms: C_4  and  C_6
REMARK    5  A    between atoms: C_9  and  N_10
REMARK    6  A    between atoms: C_11  and  C_13
REMARK    7  A    between atoms: C_13  and  S_14
REMARK    8  A    between atoms: S_14  and  C_15
REMARK    9  A    between atoms: C_18  and  C_19
REMARK   10  A    between atoms: C_19  and  C_20
REMARK   11  A    between atoms: C_20  and  C_21
REMARK   12  A    between atoms: C_24  and  C_25
REMARK   13  A    between atoms: N_27  and  C_28
REMARK                            x       y       z     vdW  Elec       q    Type
REMARK                         _______ _______ _______ _____ _____    ______ ____
ROOT
ATOM      1  C   UNL     1       3.040   7.035  18.282  0.00  0.00    +0.000 A 
ATOM      2  N   UNL     1       3.772   7.647  17.382  0.00  0.00    +0.000 NA
ATOM      3  N   UNL     1       4.609   6.723  16.833  0.00  0.00    +0.000 NA
ATOM      4  C   UNL     1       4.379   5.546  17.395  0.00  0.00    +0.000 A 
ATOM      5  N   UNL     1       3.342   5.678  18.325  0.00  0.00    +0.000 N 
ENDROOT
BRANCH   5   6
ATOM      6  C   UNL     1       2.673   4.645  19.041  0.00  0.00    +0.000 A 
ATOM      7  C   UNL     1       1.753   3.805  18.404  0.00  0.00    +0.000 A 
ATOM      8  C   UNL     1       0.913   2.983  19.162  0.00  0.00    +0.000 A 
ATOM      9  C   UNL     1       1.032   2.950  20.549  0.00  0.00    +0.000 A 
ATOM     10  C   UNL     1       2.017   3.705  21.179  0.00  0.00    +0.000 A 
ATOM     11  C   UNL     1       2.834   4.553  20.432  0.00  0.00    +0.000 A 
ENDBRANCH   5   6
BRANCH   1  12
ATOM     12  S   UNL     1       1.990   7.873  19.384  0.00  0.00    +0.000 S 
BRANCH  12  13
ATOM     13  C   UNL     1       1.433   9.268  18.366  0.00  0.00    +0.000 C 
BRANCH  13  15
ATOM     14  N   UNL     1      -0.761  10.154  17.800  0.00  0.00    +0.000 N 
ATOM     15  C   UNL     1       0.086   9.789  18.839  0.00  0.00    +0.000 C 
ATOM     16  O   UNL     1      -0.178   9.845  20.039  0.00  0.00    +0.000 OA
ATOM     17  H   UNL     1      -0.521   9.793  16.876  0.00  0.00    +0.000 HD
BRANCH  14  21
ATOM     18  C   UNL     1      -4.694  11.631  18.262  0.00  0.00    +0.000 A 
ATOM     19  C   UNL     1      -3.642  12.232  18.961  0.00  0.00    +0.000 A 
ATOM     20  C   UNL     1      -2.329  11.784  18.793  0.00  0.00    +0.000 A 
ATOM     21  C   UNL     1      -2.043  10.724  17.930  0.00  0.00    +0.000 A 
ATOM     22  C   UNL     1      -3.091  10.162  17.181  0.00  0.00    +0.000 A 
ATOM     23  C   UNL     1      -4.409  10.603  17.355  0.00  0.00    +0.000 A 
BRANCH  18  24
ATOM     24  C   UNL     1      -6.079  12.058  18.592  0.00  0.00    +0.000 C 
ATOM     25  O   UNL     1      -7.051  11.783  17.907  0.00  0.00    +0.000 OA
BRANCH  24  26
ATOM     26  O   UNL     1      -6.074  12.872  19.677  0.00  0.00    +0.000 OA
BRANCH  26  28
ATOM     27  C   UNL     1      -7.777  12.387  21.290  0.00  0.00    +0.000 C 
ATOM     28  C   UNL     1      -6.310  12.222  20.935  0.00  0.00    +0.000 C 
ENDBRANCH  26  28
ENDBRANCH  24  26
ENDBRANCH  18  24
ENDBRANCH  14  21
ENDBRANCH  13  15
ENDBRANCH  12  13
ENDBRANCH   1  12
BRANCH   4  29
ATOM     29  C   UNL     1       5.143   4.312  17.005  0.00  0.00    +0.000 C 
BRANCH  29  30
ATOM     30  C   UNL     1       6.581   4.453  16.505  0.00  0.00    +0.000 C 
BRANCH  30  31
ATOM     31  C   UNL     1       6.766   4.420  15.036  0.00  0.00    +0.000 A 
ATOM     32  C   UNL     1       6.096   3.783  14.014  0.00  0.00    +0.000 A 
ATOM     33  C   UNL     1       6.664   4.261  12.808  0.00  0.00    +0.000 A 
ATOM     34  C   UNL     1       7.631   5.171  13.173  0.00  0.00    +0.000 A 
ATOM     35  C   UNL     1       8.556   6.037  12.425  0.00  0.00    +0.000 C 
ATOM     36  O   UNL     1       7.697   5.270  14.527  0.00  0.00    +0.000 OA
ENDBRANCH  30  31
ENDBRANCH  29  30
ENDBRANCH   4  29
TORSDOF 11
ENDMDL
MODEL 5
REMARK VINA RESULT:      -8.1      2.664      3.668
REMARK  Name = 
REMARK  13 active torsions:
REMARK  status: ('A' for Active; 'I' for Inactive)
REMARK    1  A    between atoms: C_1  and  C_2
REMARK    2  A    between atoms: C_2  and  O_3
REMARK    3  A    between atoms: O_3  and  C_4
REMARK    4  A    between atoms: C_4  and  C_6
REMARK    5  A    between atoms: C_9  and  N_10
REMARK    6  A    between atoms: C_11  and  C_13
REMARK    7  A    between atoms: C_13  and  S_14
REMARK    8  A    between atoms: S_14  and  C_15
REMARK    9  A    between atoms: C_18  and  C_19
REMARK   10  A    between atoms: C_19  and  C_20
REMARK   11  A    between atoms: C_20  and  C_21
REMARK   12  A    between atoms: C_24  and  C_25
REMARK   13  A    between atoms: N_27  and  C_28
REMARK                            x       y       z     vdW  Elec       q    Type
REMARK                         _______ _______ _______ _____ _____    ______ ____
ROOT
ATOM      1  C   UNL     1       2.689   7.287  18.605  0.00  0.00    +0.000 A 
ATOM      2  N   UNL     1       3.504   7.831  17.733  0.00  0.00    +0.000 NA
ATOM      3  N   UNL     1       4.400   6.878  17.355  0.00  0.00    +0.000 NA
ATOM      4  C   UNL     1       4.126   5.750  17.995  0.00  0.00    +0.000 A 
ATOM      5  N   UNL     1       2.997   5.945  18.799  0.00  0.00    +0.000 N 
ENDROOT
BRANCH   5   6
ATOM      6  C   UNL     1       2.269   4.966  19.533  0.00  0.00    +0.000 A 
ATOM      7  C   UNL     1       2.489   4.780  20.903  0.00  0.00    +0.000 A 
ATOM      8  C   UNL     1       1.973   3.652  21.548  0.00  0.00    +0.000 A 
ATOM      9  C   UNL     1       1.187   2.742  20.846  0.00  0.00    +0.000 A 
ATOM     10  C   UNL     1       0.878   2.979  19.509  0.00  0.00    +0.000 A 
ATOM     11  C   UNL     1       1.418   4.084  18.851  0.00  0.00    +0.000 A 
ENDBRANCH   5   6
BRANCH   1  12
ATOM     12  S   UNL     1       1.524   8.199  19.516  0.00  0.00    +0.000 S 
BRANCH  12  13
ATOM     13  C   UNL     1       1.332   9.678  18.482  0.00  0.00    +0.000 C 
BRANCH  13  15
ATOM     14  N   UNL     1       0.782  11.050  20.415  0.00  0.00    +0.000 N 
ATOM     15  C   UNL     1       0.395  10.684  19.132  0.00  0.00    +0.000 C 
ATOM     16  O   UNL     1      -0.585  11.110  18.524  0.00  0.00    +0.000 OA
ATOM     17  H   UNL     1       1.746  10.839  20.672  0.00  0.00    +0.000 HD
BRANCH  14  21
ATOM     18  C   UNL     1      -1.244  13.482  23.215  0.00  0.00    +0.000 A 
ATOM     19  C   UNL     1      -0.266  14.046  22.389  0.00  0.00    +0.000 A 
ATOM     20  C   UNL     1       0.389  13.267  21.430  0.00  0.00    +0.000 A 
ATOM     21  C   UNL     1       0.083  11.913  21.283  0.00  0.00    +0.000 A 
ATOM     22  C   UNL     1      -0.944  11.363  22.069  0.00  0.00    +0.000 A 
ATOM     23  C   UNL     1      -1.595  12.138  23.037  0.00  0.00    +0.000 A 
BRANCH  18  24
ATOM     24  C   UNL     1      -1.799  14.326  24.306  0.00  0.00    +0.000 C 
ATOM     25  O   UNL     1      -2.980  14.341  24.614  0.00  0.00    +0.000 OA
BRANCH  24  26
ATOM     26  O   UNL     1      -0.834  15.134  24.812  0.00  0.00    +0.000 OA
BRANCH  26  28
ATOM     27  C   UNL     1      -0.752  17.238  25.952  0.00  0.00    +0.000 C 
ATOM     28  C   UNL     1      -1.158  15.779  26.052  0.00  0.00    +0.000 C 
ENDBRANCH  26  28
ENDBRANCH  24  26
ENDBRANCH  18  24
ENDBRANCH  14  21
ENDBRANCH  13  15
ENDBRANCH  12  13
ENDBRANCH   1  12
BRANCH   4  29
ATOM     29  C   UNL     1       4.937   4.502  17.795  0.00  0.00    +0.000 C 
BRANCH  29  30
ATOM     30  C   UNL     1       4.801   3.726  16.485  0.00  0.00    +0.000 C 
BRANCH  30  31
ATOM     31  C   UNL     1       5.683   4.158  15.377  0.00  0.00    +0.000 A 
ATOM     32  C   UNL     1       6.768   5.005  15.309  0.00  0.00    +0.000 A 
ATOM     33  C   UNL     1       7.275   4.896  13.991  0.00  0.00    +0.000 A 
ATOM     34  C   UNL     1       6.477   3.979  13.347  0.00  0.00    +0.000 A 
ATOM     35  C   UNL     1       6.472   3.396  11.996  0.00  0.00    +0.000 C 
ATOM     36  O   UNL     1       5.506   3.528  14.185  0.00  0.00    +0.000 OA
ENDBRANCH  30  31
ENDBRANCH  29  30
ENDBRANCH   4  29
TORSDOF 11
ENDMDL
MODEL 6
REMARK VINA RESULT:      -8.1      1.899      2.646
REMARK  Name = 
REMARK  13 active torsions:
REMARK  status: ('A' for Active; 'I' for Inactive)
REMARK    1  A    between atoms: C_1  and  C_2
REMARK    2  A    between atoms: C_2  and  O_3
REMARK    3  A    between atoms: O_3  and  C_4
REMARK    4  A    between atoms: C_4  and  C_6
REMARK    5  A    between atoms: C_9  and  N_10
REMARK    6  A    between atoms: C_11  and  C_13
REMARK    7  A    between atoms: C_13  and  S_14
REMARK    8  A    between atoms: S_14  and  C_15
REMARK    9  A    between atoms: C_18  and  C_19
REMARK   10  A    between atoms: C_19  and  C_20
REMARK   11  A    between atoms: C_20  and  C_21
REMARK   12  A    between atoms: C_24  and  C_25
REMARK   13  A    between atoms: N_27  and  C_28
REMARK                            x       y       z     vdW  Elec       q    Type
REMARK                         _______ _______ _______ _____ _____    ______ ____
ROOT
ATOM      1  C   UNL     1       2.738   7.547  18.053  0.00  0.00    +0.000 A 
ATOM      2  N   UNL     1       3.748   8.126  17.447  0.00  0.00    +0.000 NA
ATOM      3  N   UNL     1       4.770   7.228  17.399  0.00  0.00    +0.000 NA
ATOM      4  C   UNL     1       4.380   6.099  17.972  0.00  0.00    +0.000 A 
ATOM      5  N   UNL     1       3.050   6.235  18.388  0.00  0.00    +0.000 N 
ENDROOT
BRANCH   5   6
ATOM      6  C   UNL     1       2.191   5.225  18.908  0.00  0.00    +0.000 A 
ATOM      7  C   UNL     1       2.011   5.070  20.287  0.00  0.00    +0.000 A 
ATOM      8  C   UNL     1       1.388   3.923  20.788  0.00  0.00    +0.000 A 
ATOM      9  C   UNL     1       0.889   2.960  19.915  0.00  0.00    +0.000 A 
ATOM     10  C   UNL     1       0.972   3.160  18.540  0.00  0.00    +0.000 A 
ATOM     11  C   UNL     1       1.623   4.286  18.034  0.00  0.00    +0.000 A 
ENDBRANCH   5   6
BRANCH   1  12
ATOM     12  S   UNL     1       1.301   8.399  18.529  0.00  0.00    +0.000 S 
BRANCH  12  13
ATOM     13  C   UNL     1       1.556   8.569  20.317  0.00  0.00    +0.000 C 
BRANCH  13  15
ATOM     14  N   UNL     1       0.150  10.470  20.890  0.00  0.00    +0.000 N 
ATOM     15  C   UNL     1       0.305   9.094  21.003  0.00  0.00    +0.000 C 
ATOM     16  O   UNL     1      -0.468   8.325  21.572  0.00  0.00    +0.000 OA
ATOM     17  H   UNL     1       0.704  10.928  20.165  0.00  0.00    +0.000 HD
BRANCH  14  21
ATOM     18  C   UNL     1      -3.088  12.681  22.468  0.00  0.00    +0.000 A 
ATOM     19  C   UNL     1      -2.307  11.895  23.320  0.00  0.00    +0.000 A 
ATOM     20  C   UNL     1      -1.208  11.186  22.826  0.00  0.00    +0.000 A 
ATOM     21  C   UNL     1      -0.874  11.245  21.471  0.00  0.00    +0.000 A 
ATOM     22  C   UNL     1      -1.621  12.085  20.628  0.00  0.00    +0.000 A 
ATOM     23  C   UNL     1      -2.728  12.788  21.118  0.00  0.00    +0.000 A 
BRANCH  18  24
ATOM     24  C   UNL     1      -4.322  13.293  23.027  0.00  0.00    +0.000 C 
ATOM     25  O   UNL     1      -4.356  14.403  23.533  0.00  0.00    +0.000 OA
BRANCH  24  26
ATOM     26  O   UNL     1      -5.346  12.404  22.990  0.00  0.00    +0.000 OA
BRANCH  26  28
ATOM     27  C   UNL     1      -7.672  12.034  22.553  0.00  0.00    +0.000 C 
ATOM     28  C   UNL     1      -6.405  12.722  22.075  0.00  0.00    +0.000 C 
ENDBRANCH  26  28
ENDBRANCH  24  26
ENDBRANCH  18  24
ENDBRANCH  14  21
ENDBRANCH  13  15
ENDBRANCH  12  13
ENDBRANCH   1  12
BRANCH   4  29
ATOM     29  C   UNL     1       5.284   4.904  18.080  0.00  0.00    +0.000 C 
BRANCH  29  30
ATOM     30  C   UNL     1       5.256   3.845  16.978  0.00  0.00    +0.000 C 
BRANCH  30  31
ATOM     31  C   UNL     1       5.909   4.215  15.702  0.00  0.00    +0.000 A 
ATOM     32  C   UNL     1       6.976   5.030  15.388  0.00  0.00    +0.000 A 
ATOM     33  C   UNL     1       7.209   4.861  14.002  0.00  0.00    +0.000 A 
ATOM     34  C   UNL     1       6.281   3.944  13.564  0.00  0.00    +0.000 A 
ATOM     35  C   UNL     1       5.999   3.314  12.264  0.00  0.00    +0.000 C 
ATOM     36  O   UNL     1       5.488   3.549  14.595  0.00  0.00    +0.000 OA
ENDBRANCH  30  31
ENDBRANCH  29  30
ENDBRANCH   4  29
TORSDOF 11
ENDMDL
MODEL 7
REMARK VINA RESULT:      -8.0      2.162      2.943
REMARK  Name = 
REMARK  13 active torsions:
REMARK  status: ('A' for Active; 'I' for Inactive)
REMARK    1  A    between atoms: C_1  and  C_2
REMARK    2  A    between atoms: C_2  and  O_3
REMARK    3  A    between atoms: O_3  and  C_4
REMARK    4  A    between atoms: C_4  and  C_6
REMARK    5  A    between atoms: C_9  and  N_10
REMARK    6  A    between atoms: C_11  and  C_13
REMARK    7  A    between atoms: C_13  and  S_14
REMARK    8  A    between atoms: S_14  and  C_15
REMARK    9  A    between atoms: C_18  and  C_19
REMARK   10  A    between atoms: C_19  and  C_20
REMARK   11  A    between atoms: C_20  and  C_21
REMARK   12  A    between atoms: C_24  and  C_25
REMARK   13  A    between atoms: N_27  and  C_28
REMARK                            x       y       z     vdW  Elec       q    Type
REMARK                         _______ _______ _______ _____ _____    ______ ____
ROOT
ATOM      1  C   UNL     1       3.268   7.002  18.117  0.00  0.00    +0.000 A 
ATOM      2  N   UNL     1       4.248   7.635  17.517  0.00  0.00    +0.000 NA
ATOM      3  N   UNL     1       5.339   6.821  17.540  0.00  0.00    +0.000 NA
ATOM      4  C   UNL     1       5.020   5.689  18.150  0.00  0.00    +0.000 A 
ATOM      5  N   UNL     1       3.671   5.734  18.519  0.00  0.00    +0.000 N 
ENDROOT
BRANCH   5   6
ATOM      6  C   UNL     1       2.877   4.681  19.057  0.00  0.00    +0.000 A 
ATOM      7  C   UNL     1       2.127   3.845  18.222  0.00  0.00    +0.000 A 
ATOM      8  C   UNL     1       1.155   3.001  18.767  0.00  0.00    +0.000 A 
ATOM      9  C   UNL     1       0.971   2.943  20.146  0.00  0.00    +0.000 A 
ATOM     10  C   UNL     1       1.787   3.694  20.987  0.00  0.00    +0.000 A 
ATOM     11  C   UNL     1       2.735   4.565  20.448  0.00  0.00    +0.000 A 
ENDBRANCH   5   6
BRANCH   1  12
ATOM     12  S   UNL     1       1.752   7.754  18.512  0.00  0.00    +0.000 S 
BRANCH  12  13
ATOM     13  C   UNL     1       1.914   9.357  17.678  0.00  0.00    +0.000 C 
BRANCH  13  15
ATOM     14  N   UNL     1       0.220  10.129  19.245  0.00  0.00    +0.000 N 
ATOM     15  C   UNL     1       1.364  10.482  18.541  0.00  0.00    +0.000 C 
ATOM     16  O   UNL     1       1.930  11.573  18.583  0.00  0.00    +0.000 OA
ATOM     17  H   UNL     1       0.035   9.130  19.331  0.00  0.00    +0.000 HD
BRANCH  14  21
ATOM     18  C   UNL     1      -2.281  12.529  21.664  0.00  0.00    +0.000 A 
ATOM     19  C   UNL     1      -1.180  11.883  22.235  0.00  0.00    +0.000 A 
ATOM     20  C   UNL     1      -0.318  11.116  21.446  0.00  0.00    +0.000 A 
ATOM     21  C   UNL     1      -0.544  10.976  20.075  0.00  0.00    +0.000 A 
ATOM     22  C   UNL     1      -1.614  11.675  19.491  0.00  0.00    +0.000 A 
ATOM     23  C   UNL     1      -2.484  12.437  20.281  0.00  0.00    +0.000 A 
BRANCH  18  24
ATOM     24  C   UNL     1      -3.236  13.210  22.578  0.00  0.00    +0.000 C 
ATOM     25  O   UNL     1      -4.433  12.972  22.603  0.00  0.00    +0.000 OA
BRANCH  24  26
ATOM     26  O   UNL     1      -2.603  14.186  23.276  0.00  0.00    +0.000 OA
BRANCH  26  28
ATOM     27  C   UNL     1      -3.621  15.715  24.813  0.00  0.00    +0.000 C 
ATOM     28  C   UNL     1      -3.017  14.333  24.642  0.00  0.00    +0.000 C 
ENDBRANCH  26  28
ENDBRANCH  24  26
ENDBRANCH  18  24
ENDBRANCH  14  21
ENDBRANCH  13  15
ENDBRANCH  12  13
ENDBRANCH   1  12
BRANCH   4  29
ATOM     29  C   UNL     1       6.013   4.577  18.338  0.00  0.00    +0.000 C 
BRANCH  29  30
ATOM     30  C   UNL     1       7.222   4.492  17.407  0.00  0.00    +0.000 C 
BRANCH  30  31
ATOM     31  C   UNL     1       6.925   4.341  15.965  0.00  0.00    +0.000 A 
ATOM     32  C   UNL     1       5.891   3.751  15.270  0.00  0.00    +0.000 A 
ATOM     33  C   UNL     1       6.101   4.064  13.905  0.00  0.00    +0.000 A 
ATOM     34  C   UNL     1       7.238   4.838  13.858  0.00  0.00    +0.000 A 
ATOM     35  C   UNL     1       7.976   5.508  12.775  0.00  0.00    +0.000 C 
ATOM     36  O   UNL     1       7.743   5.008  15.108  0.00  0.00    +0.000 OA
ENDBRANCH  30  31
ENDBRANCH  29  30
ENDBRANCH   4  29
TORSDOF 11
ENDMDL
MODEL 8
REMARK VINA RESULT:      -8.0      2.144      2.656
REMARK  Name = 
REMARK  13 active torsions:
REMARK  status: ('A' for Active; 'I' for Inactive)
REMARK    1  A    between atoms: C_1  and  C_2
REMARK    2  A    between atoms: C_2  and  O_3
REMARK    3  A    between atoms: O_3  and  C_4
REMARK    4  A    between atoms: C_4  and  C_6
REMARK    5  A    between atoms: C_9  and  N_10
REMARK    6  A    between atoms: C_11  and  C_13
REMARK    7  A    between atoms: C_13  and  S_14
REMARK    8  A    between atoms: S_14  and  C_15
REMARK    9  A    between atoms: C_18  and  C_19
REMARK   10  A    between atoms: C_19  and  C_20
REMARK   11  A    between atoms: C_20  and  C_21
REMARK   12  A    between atoms: C_24  and  C_25
REMARK   13  A    between atoms: N_27  and  C_28
REMARK                            x       y       z     vdW  Elec       q    Type
REMARK                         _______ _______ _______ _____ _____    ______ ____
ROOT
ATOM      1  C   UNL     1       2.211   7.307  19.233  0.00  0.00    +0.000 A 
ATOM      2  N   UNL     1       2.677   8.243  18.442  0.00  0.00    +0.000 NA
ATOM      3  N   UNL     1       3.461   7.640  17.506  0.00  0.00    +0.000 NA
ATOM      4  C   UNL     1       3.467   6.334  17.725  0.00  0.00    +0.000 A 
ATOM      5  N   UNL     1       2.641   6.051  18.819  0.00  0.00    +0.000 N 
ENDROOT
BRANCH   5   6
ATOM      6  C   UNL     1       2.238   4.773  19.302  0.00  0.00    +0.000 A 
ATOM      7  C   UNL     1       2.804   4.228  20.460  0.00  0.00    +0.000 A 
ATOM      8  C   UNL     1       2.604   2.880  20.770  0.00  0.00    +0.000 A 
ATOM      9  C   UNL     1       1.789   2.089  19.963  0.00  0.00    +0.000 A 
ATOM     10  C   UNL     1       1.139   2.654  18.869  0.00  0.00    +0.000 A 
ATOM     11  C   UNL     1       1.364   3.990  18.534  0.00  0.00    +0.000 A 
ENDBRANCH   5   6
BRANCH   1  12
ATOM     12  S   UNL     1       1.344   7.646  20.701  0.00  0.00    +0.000 S 
BRANCH  12  13
ATOM     13  C   UNL     1       1.312   9.460  20.692  0.00  0.00    +0.000 C 
BRANCH  13  15
ATOM     14  N   UNL     1      -0.519  10.292  19.323  0.00  0.00    +0.000 N 
ATOM     15  C   UNL     1      -0.113   9.983  20.615  0.00  0.00    +0.000 C 
ATOM     16  O   UNL     1      -0.798  10.085  21.631  0.00  0.00    +0.000 OA
ATOM     17  H   UNL     1       0.042   9.896  18.568  0.00  0.00    +0.000 HD
BRANCH  14  21
ATOM     18  C   UNL     1      -4.344  11.736  18.254  0.00  0.00    +0.000 A 
ATOM     19  C   UNL     1      -3.602  12.403  19.235  0.00  0.00    +0.000 A 
ATOM     20  C   UNL     1      -2.320  11.964  19.575  0.00  0.00    +0.000 A 
ATOM     21  C   UNL     1      -1.758  10.850  18.949  0.00  0.00    +0.000 A 
ATOM     22  C   UNL     1      -2.478  10.219  17.921  0.00  0.00    +0.000 A 
ATOM     23  C   UNL     1      -3.768  10.650  17.583  0.00  0.00    +0.000 A 
BRANCH  18  24
ATOM     24  C   UNL     1      -5.752  12.164  18.040  0.00  0.00    +0.000 C 
ATOM     25  O   UNL     1      -6.283  12.216  16.942  0.00  0.00    +0.000 OA
BRANCH  24  26
ATOM     26  O   UNL     1      -6.298  12.584  19.209  0.00  0.00    +0.000 OA
BRANCH  26  28
ATOM     27  C   UNL     1      -7.263  11.793  21.254  0.00  0.00    +0.000 C 
ATOM     28  C   UNL     1      -7.338  11.749  19.738  0.00  0.00    +0.000 C 
ENDBRANCH  26  28
ENDBRANCH  24  26
ENDBRANCH  18  24
ENDBRANCH  14  21
ENDBRANCH  13  15
ENDBRANCH  12  13
ENDBRANCH   1  12
BRANCH   4  29
ATOM     29  C   UNL     1       4.243   5.382  16.859  0.00  0.00    +0.000 C 
BRANCH  29  30
ATOM     30  C   UNL     1       5.576   5.835  16.264  0.00  0.00    +0.000 C 
BRANCH  30  31
ATOM     31  C   UNL     1       6.564   6.383  17.220  0.00  0.00    +0.000 A 
ATOM     32  C   UNL     1       7.371   5.808  18.178  0.00  0.00    +0.000 A 
ATOM     33  C   UNL     1       8.205   6.842  18.668  0.00  0.00    +0.000 A 
ATOM     34  C   UNL     1       7.864   7.976  17.967  0.00  0.00    +0.000 A 
ATOM     35  C   UNL     1       8.355   9.364  17.963  0.00  0.00    +0.000 C 
ATOM     36  O   UNL     1       6.866   7.702  17.085  0.00  0.00    +0.000 OA
ENDBRANCH  30  31
ENDBRANCH  29  30
ENDBRANCH   4  29
TORSDOF 11
ENDMDL
MODEL 9
REMARK VINA RESULT:      -8.0      2.012      2.869
REMARK  Name = 
REMARK  13 active torsions:
REMARK  status: ('A' for Active; 'I' for Inactive)
REMARK    1  A    between atoms: C_1  and  C_2
REMARK    2  A    between atoms: C_2  and  O_3
REMARK    3  A    between atoms: O_3  and  C_4
REMARK    4  A    between atoms: C_4  and  C_6
REMARK    5  A    between atoms: C_9  and  N_10
REMARK    6  A    between atoms: C_11  and  C_13
REMARK    7  A    between atoms: C_13  and  S_14
REMARK    8  A    between atoms: S_14  and  C_15
REMARK    9  A    between atoms: C_18  and  C_19
REMARK   10  A    between atoms: C_19  and  C_20
REMARK   11  A    between atoms: C_20  and  C_21
REMARK   12  A    between atoms: C_24  and  C_25
REMARK   13  A    between atoms: N_27  and  C_28
REMARK                            x       y       z     vdW  Elec       q    Type
REMARK                         _______ _______ _______ _____ _____    ______ ____
ROOT
ATOM      1  C   UNL     1       2.836   7.318  17.850  0.00  0.00    +0.000 A 
ATOM      2  N   UNL     1       3.866   7.902  17.285  0.00  0.00    +0.000 NA
ATOM      3  N   UNL     1       4.931   7.062  17.400  0.00  0.00    +0.000 NA
ATOM      4  C   UNL     1       4.547   5.962  18.031  0.00  0.00    +0.000 A 
ATOM      5  N   UNL     1       3.181   6.056  18.321  0.00  0.00    +0.000 N 
ENDROOT
BRANCH   5   6
ATOM      6  C   UNL     1       2.329   5.044  18.849  0.00  0.00    +0.000 A 
ATOM      7  C   UNL     1       2.078   4.958  20.223  0.00  0.00    +0.000 A 
ATOM      8  C   UNL     1       1.469   3.817  20.754  0.00  0.00    +0.000 A 
ATOM      9  C   UNL     1       1.052   2.790  19.911  0.00  0.00    +0.000 A 
ATOM     10  C   UNL     1       1.203   2.919  18.533  0.00  0.00    +0.000 A 
ATOM     11  C   UNL     1       1.843   4.039  18.001  0.00  0.00    +0.000 A 
ENDBRANCH   5   6
BRANCH   1  12
ATOM     12  S   UNL     1       1.321   8.123  18.130  0.00  0.00    +0.000 S 
BRANCH  12  13
ATOM     13  C   UNL     1       1.819   9.866  18.060  0.00  0.00    +0.000 C 
BRANCH  13  15
ATOM     14  N   UNL     1       1.237  10.960  20.154  0.00  0.00    +0.000 N 
ATOM     15  C   UNL     1       0.852  10.744  18.837  0.00  0.00    +0.000 C 
ATOM     16  O   UNL     1      -0.151  11.206  18.293  0.00  0.00    +0.000 OA
ATOM     17  H   UNL     1       2.211  10.756  20.377  0.00  0.00    +0.000 HD
BRANCH  14  21
ATOM     18  C   UNL     1      -1.038  13.251  22.882  0.00  0.00    +0.000 A 
ATOM     19  C   UNL     1      -1.143  11.856  22.893  0.00  0.00    +0.000 A 
ATOM     20  C   UNL     1      -0.371  11.078  22.026  0.00  0.00    +0.000 A 
ATOM     21  C   UNL     1       0.514  11.678  21.128  0.00  0.00    +0.000 A 
ATOM     22  C   UNL     1       0.665  13.075  21.160  0.00  0.00    +0.000 A 
ATOM     23  C   UNL     1      -0.114  13.858  22.022  0.00  0.00    +0.000 A 
BRANCH  18  24
ATOM     24  C   UNL     1      -1.987  14.024  23.726  0.00  0.00    +0.000 C 
ATOM     25  O   UNL     1      -1.636  14.766  24.629  0.00  0.00    +0.000 OA
BRANCH  24  26
ATOM     26  O   UNL     1      -3.266  13.695  23.416  0.00  0.00    +0.000 OA
BRANCH  26  28
ATOM     27  C   UNL     1      -5.447  12.886  23.988  0.00  0.00    +0.000 C 
ATOM     28  C   UNL     1      -4.045  13.169  24.500  0.00  0.00    +0.000 C 
ENDBRANCH  26  28
ENDBRANCH  24  26
ENDBRANCH  18  24
ENDBRANCH  14  21
ENDBRANCH  13  15
ENDBRANCH  12  13
ENDBRANCH   1  12
BRANCH   4  29
ATOM     29  C   UNL     1       5.496   4.832  18.316  0.00  0.00    +0.000 C 
BRANCH  29  30
ATOM     30  C   UNL     1       6.809   4.749  17.539  0.00  0.00    +0.000 C 
BRANCH  30  31
ATOM     31  C   UNL     1       6.693   4.474  16.089  0.00  0.00    +0.000 A 
ATOM     32  C   UNL     1       5.787   3.761  15.333  0.00  0.00    +0.000 A 
ATOM     33  C   UNL     1       6.133   3.990  13.979  0.00  0.00    +0.000 A 
ATOM     34  C   UNL     1       7.217   4.839  13.997  0.00  0.00    +0.000 A 
ATOM     35  C   UNL     1       8.032   5.482  12.954  0.00  0.00    +0.000 C 
ATOM     36  O   UNL     1       7.561   5.135  15.279  0.00  0.00    +0.000 OA
ENDBRANCH  30  31
ENDBRANCH  29  30
ENDBRANCH   4  29
TORSDOF 11
ENDMDL
