MODEL 1
REMARK VINA RESULT:      -6.7      0.000      0.000
REMARK  Name = 
REMARK  5 active torsions:
REMARK  status: ('A' for Active; 'I' for Inactive)
REMARK    1  A    between atoms: C_1  and  O_2
REMARK    2  A    between atoms: O_2  and  C_3
REMARK    3  A    between atoms: C_6  and  C_7
REMARK    4  A    between atoms: C_13  and  C_14
REMARK    5  A    between atoms: C_16  and  O_17
REMARK                            x       y       z     vdW  Elec       q    Type
REMARK                         _______ _______ _______ _____ _____    ______ ____
ROOT
ATOM      1  C   UNL     1       6.951   5.143  15.459  0.00  0.00    +0.000 A 
ATOM      2  C   UNL     1       6.013   4.292  14.887  0.00  0.00    +0.000 A 
ATOM      3  C   UNL     1       4.937   3.791  15.633  0.00  0.00    +0.000 A 
ATOM      4  C   UNL     1       4.768   4.115  16.991  0.00  0.00    +0.000 A 
ATOM      5  C   UNL     1       5.745   4.956  17.573  0.00  0.00    +0.000 A 
ATOM      6  C   UNL     1       6.819   5.481  16.813  0.00  0.00    +0.000 A 
ENDROOT
BRANCH   4   7
ATOM      7  C   UNL     1       3.571   3.606  17.707  0.00  0.00    +0.000 A 
ATOM      8  C   UNL     1       3.530   2.364  18.326  0.00  0.00    +0.000 A 
ATOM      9  N   UNL     1       2.447   1.842  18.941  0.00  0.00    +0.000 NA
ATOM     10  C   UNL     1       1.353   2.615  18.950  0.00  0.00    +0.000 A 
ATOM     11  N   UNL     1       1.255   3.833  18.410  0.00  0.00    +0.000 NA
ATOM     12  C   UNL     1       2.360   4.284  17.785  0.00  0.00    +0.000 A 
ENDBRANCH   4   7
BRANCH   1  14
ATOM     13  C   UNL     1       7.758   5.177  13.208  0.00  0.00    +0.000 C 
ATOM     14  O   UNL     1       7.916   5.538  14.571  0.00  0.00    +0.000 OA
ENDBRANCH   1  14
BRANCH   5  15
ATOM     15  C   UNL     1       5.712   5.290  19.016  0.00  0.00    +0.000 C 
ATOM     16  O   UNL     1       6.717   5.169  19.712  0.00  0.00    +0.000 OA
ENDBRANCH   5  15
BRANCH   6  17
ATOM     17  O   UNL     1       7.748   6.300  17.404  0.00  0.00    +0.000 OA
ATOM     18  H   UNL     1       7.902   7.089  16.839  0.00  0.00    +0.000 HD
ENDBRANCH   6  17
TORSDOF 4
ENDMDL
MODEL 2
REMARK VINA RESULT:      -6.6      0.051      1.139
REMARK  Name = 
REMARK  5 active torsions:
REMARK  status: ('A' for Active; 'I' for Inactive)
REMARK    1  A    between atoms: C_1  and  O_2
REMARK    2  A    between atoms: O_2  and  C_3
REMARK    3  A    between atoms: C_6  and  C_7
REMARK    4  A    between atoms: C_13  and  C_14
REMARK    5  A    between atoms: C_16  and  O_17
REMARK                            x       y       z     vdW  Elec       q    Type
REMARK                         _______ _______ _______ _____ _____    ______ ____
ROOT
ATOM      1  C   UNL     1       6.958   5.126  15.442  0.00  0.00    +0.000 A 
ATOM      2  C   UNL     1       6.034   4.265  14.859  0.00  0.00    +0.000 A 
ATOM      3  C   UNL     1       4.955   3.754  15.592  0.00  0.00    +0.000 A 
ATOM      4  C   UNL     1       4.767   4.077  16.949  0.00  0.00    +0.000 A 
ATOM      5  C   UNL     1       5.730   4.927  17.541  0.00  0.00    +0.000 A 
ATOM      6  C   UNL     1       6.806   5.462  16.794  0.00  0.00    +0.000 A 
ENDROOT
BRANCH   4   7
ATOM      7  C   UNL     1       3.567   3.555  17.650  0.00  0.00    +0.000 A 
ATOM      8  C   UNL     1       2.372   4.256  17.729  0.00  0.00    +0.000 A 
ATOM      9  N   UNL     1       1.275   3.842  18.400  0.00  0.00    +0.000 NA
ATOM     10  C   UNL     1       1.379   2.654  19.011  0.00  0.00    +0.000 A 
ATOM     11  N   UNL     1       2.459   1.867  19.004  0.00  0.00    +0.000 NA
ATOM     12  C   UNL     1       3.529   2.351  18.344  0.00  0.00    +0.000 A 
ENDBRANCH   4   7
BRANCH   1  14
ATOM     13  C   UNL     1       7.782   5.182  13.197  0.00  0.00    +0.000 C 
ATOM     14  O   UNL     1       7.929   5.530  14.565  0.00  0.00    +0.000 OA
ENDBRANCH   1  14
BRANCH   5  15
ATOM     15  C   UNL     1       5.677   5.260  18.985  0.00  0.00    +0.000 C 
ATOM     16  O   UNL     1       6.668   5.124  19.697  0.00  0.00    +0.000 OA
ENDBRANCH   5  15
BRANCH   6  17
ATOM     17  O   UNL     1       7.721   6.290  17.396  0.00  0.00    +0.000 OA
ATOM     18  H   UNL     1       7.283   6.804  18.109  0.00  0.00    +0.000 HD
ENDBRANCH   6  17
TORSDOF 4
ENDMDL
MODEL 3
REMARK VINA RESULT:      -6.4      1.494      1.915
REMARK  Name = 
REMARK  5 active torsions:
REMARK  status: ('A' for Active; 'I' for Inactive)
REMARK    1  A    between atoms: C_1  and  O_2
REMARK    2  A    between atoms: O_2  and  C_3
REMARK    3  A    between atoms: C_6  and  C_7
REMARK    4  A    between atoms: C_13  and  C_14
REMARK    5  A    between atoms: C_16  and  O_17
REMARK                            x       y       z     vdW  Elec       q    Type
REMARK                         _______ _______ _______ _____ _____    ______ ____
ROOT
ATOM      1  C   UNL     1       6.287   4.935  15.776  0.00  0.00    +0.000 A 
ATOM      2  C   UNL     1       5.129   4.171  15.677  0.00  0.00    +0.000 A 
ATOM      3  C   UNL     1       4.343   3.897  16.803  0.00  0.00    +0.000 A 
ATOM      4  C   UNL     1       4.694   4.369  18.081  0.00  0.00    +0.000 A 
ATOM      5  C   UNL     1       5.890   5.119  18.177  0.00  0.00    +0.000 A 
ATOM      6  C   UNL     1       6.672   5.416  17.034  0.00  0.00    +0.000 A 
ENDROOT
BRANCH   4   7
ATOM      7  C   UNL     1       3.782   4.100  19.222  0.00  0.00    +0.000 A 
ATOM      8  C   UNL     1       2.897   5.044  19.723  0.00  0.00    +0.000 A 
ATOM      9  N   UNL     1       2.090   4.858  20.789  0.00  0.00    +0.000 NA
ATOM     10  C   UNL     1       2.163   3.654  21.373  0.00  0.00    +0.000 A 
ATOM     11  N   UNL     1       2.955   2.649  20.988  0.00  0.00    +0.000 NA
ATOM     12  C   UNL     1       3.757   2.909  19.938  0.00  0.00    +0.000 A 
ENDBRANCH   4   7
BRANCH   1  14
ATOM     13  C   UNL     1       6.583   4.216  13.514  0.00  0.00    +0.000 C 
ATOM     14  O   UNL     1       6.910   5.107  14.569  0.00  0.00    +0.000 OA
ENDBRANCH   1  14
BRANCH   5  15
ATOM     15  C   UNL     1       6.399   5.590  19.486  0.00  0.00    +0.000 C 
ATOM     16  O   UNL     1       7.458   5.162  19.939  0.00  0.00    +0.000 OA
ENDBRANCH   5  15
BRANCH   6  17
ATOM     17  O   UNL     1       7.824   6.151  17.159  0.00  0.00    +0.000 OA
ATOM     18  H   UNL     1       8.140   6.425  16.270  0.00  0.00    +0.000 HD
ENDBRANCH   6  17
TORSDOF 4
ENDMDL
MODEL 4
REMARK VINA RESULT:      -6.4      1.543      1.611
REMARK  Name = 
REMARK  5 active torsions:
REMARK  status: ('A' for Active; 'I' for Inactive)
REMARK    1  A    between atoms: C_1  and  O_2
REMARK    2  A    between atoms: O_2  and  C_3
REMARK    3  A    between atoms: C_6  and  C_7
REMARK    4  A    between atoms: C_13  and  C_14
REMARK    5  A    between atoms: C_16  and  O_17
REMARK                            x       y       z     vdW  Elec       q    Type
REMARK                         _______ _______ _______ _____ _____    ______ ____
ROOT
ATOM      1  C   UNL     1       6.205   4.938  15.744  0.00  0.00    +0.000 A 
ATOM      2  C   UNL     1       5.057   4.153  15.704  0.00  0.00    +0.000 A 
ATOM      3  C   UNL     1       4.333   3.866  16.869  0.00  0.00    +0.000 A 
ATOM      4  C   UNL     1       4.741   4.345  18.127  0.00  0.00    +0.000 A 
ATOM      5  C   UNL     1       5.927   5.115  18.162  0.00  0.00    +0.000 A 
ATOM      6  C   UNL     1       6.645   5.425  16.982  0.00  0.00    +0.000 A 
ENDROOT
BRANCH   4   7
ATOM      7  C   UNL     1       3.893   4.061  19.313  0.00  0.00    +0.000 A 
ATOM      8  C   UNL     1       3.879   2.832  19.956  0.00  0.00    +0.000 A 
ATOM      9  N   UNL     1       3.086   2.516  21.003  0.00  0.00    +0.000 NA
ATOM     10  C   UNL     1       2.278   3.492  21.437  0.00  0.00    +0.000 A 
ATOM     11  N   UNL     1       2.199   4.724  20.925  0.00  0.00    +0.000 NA
ATOM     12  C   UNL     1       2.993   4.965  19.864  0.00  0.00    +0.000 A 
ENDBRANCH   4   7
BRANCH   1  14
ATOM     13  C   UNL     1       6.473   4.167  13.496  0.00  0.00    +0.000 C 
ATOM     14  O   UNL     1       6.763   5.119  14.507  0.00  0.00    +0.000 OA
ENDBRANCH   1  14
BRANCH   5  15
ATOM     15  C   UNL     1       6.495   5.596  19.445  0.00  0.00    +0.000 C 
ATOM     16  O   UNL     1       7.622   5.260  19.797  0.00  0.00    +0.000 OA
ENDBRANCH   5  15
BRANCH   6  17
ATOM     17  O   UNL     1       7.789   6.181  17.048  0.00  0.00    +0.000 OA
ATOM     18  H   UNL     1       7.606   7.089  16.723  0.00  0.00    +0.000 HD
ENDBRANCH   6  17
TORSDOF 4
ENDMDL
MODEL 5
REMARK VINA RESULT:      -6.2      3.361      5.695
REMARK  Name = 
REMARK  5 active torsions:
REMARK  status: ('A' for Active; 'I' for Inactive)
REMARK    1  A    between atoms: C_1  and  O_2
REMARK    2  A    between atoms: O_2  and  C_3
REMARK    3  A    between atoms: C_6  and  C_7
REMARK    4  A    between atoms: C_13  and  C_14
REMARK    5  A    between atoms: C_16  and  O_17
REMARK                            x       y       z     vdW  Elec       q    Type
REMARK                         _______ _______ _______ _____ _____    ______ ____
ROOT
ATOM      1  C   UNL     1       2.883   4.320  20.236  0.00  0.00    +0.000 A 
ATOM      2  C   UNL     1       3.481   3.199  19.670  0.00  0.00    +0.000 A 
ATOM      3  C   UNL     1       4.284   3.304  18.527  0.00  0.00    +0.000 A 
ATOM      4  C   UNL     1       4.510   4.541  17.896  0.00  0.00    +0.000 A 
ATOM      5  C   UNL     1       3.872   5.670  18.460  0.00  0.00    +0.000 A 
ATOM      6  C   UNL     1       3.080   5.568  19.629  0.00  0.00    +0.000 A 
ENDROOT
BRANCH   4   7
ATOM      7  C   UNL     1       5.425   4.595  16.727  0.00  0.00    +0.000 A 
ATOM      8  C   UNL     1       6.623   5.293  16.736  0.00  0.00    +0.000 A 
ATOM      9  N   UNL     1       7.458   5.410  15.680  0.00  0.00    +0.000 NA
ATOM     10  C   UNL     1       7.077   4.778  14.563  0.00  0.00    +0.000 A 
ATOM     11  N   UNL     1       5.961   4.057  14.418  0.00  0.00    +0.000 NA
ATOM     12  C   UNL     1       5.157   4.005  15.497  0.00  0.00    +0.000 A 
ENDBRANCH   4   7
BRANCH   1  14
ATOM     13  C   UNL     1       1.471   2.775  21.393  0.00  0.00    +0.000 C 
ATOM     14  O   UNL     1       2.151   4.020  21.353  0.00  0.00    +0.000 OA
ENDBRANCH   1  14
BRANCH   5  15
ATOM     15  C   UNL     1       3.971   7.006  17.825  0.00  0.00    +0.000 C 
ATOM     16  O   UNL     1       2.965   7.682  17.626  0.00  0.00    +0.000 OA
ENDBRANCH   5  15
BRANCH   6  17
ATOM     17  O   UNL     1       2.479   6.684  20.156  0.00  0.00    +0.000 OA
ATOM     18  H   UNL     1       2.850   6.870  21.047  0.00  0.00    +0.000 HD
ENDBRANCH   6  17
TORSDOF 4
ENDMDL
MODEL 6
REMARK VINA RESULT:      -6.2      3.368      5.744
REMARK  Name = 
REMARK  5 active torsions:
REMARK  status: ('A' for Active; 'I' for Inactive)
REMARK    1  A    between atoms: C_1  and  O_2
REMARK    2  A    between atoms: O_2  and  C_3
REMARK    3  A    between atoms: C_6  and  C_7
REMARK    4  A    between atoms: C_13  and  C_14
REMARK    5  A    between atoms: C_16  and  O_17
REMARK                            x       y       z     vdW  Elec       q    Type
REMARK                         _______ _______ _______ _____ _____    ______ ____
ROOT
ATOM      1  C   UNL     1       2.630   4.407  20.240  0.00  0.00    +0.000 A 
ATOM      2  C   UNL     1       3.180   3.271  19.655  0.00  0.00    +0.000 A 
ATOM      3  C   UNL     1       4.034   3.366  18.549  0.00  0.00    +0.000 A 
ATOM      4  C   UNL     1       4.361   4.608  17.974  0.00  0.00    +0.000 A 
ATOM      5  C   UNL     1       3.772   5.754  18.556  0.00  0.00    +0.000 A 
ATOM      6  C   UNL     1       2.928   5.660  19.689  0.00  0.00    +0.000 A 
ENDROOT
BRANCH   4   7
ATOM      7  C   UNL     1       5.325   4.644  16.845  0.00  0.00    +0.000 A 
ATOM      8  C   UNL     1       4.945   4.488  15.520  0.00  0.00    +0.000 A 
ATOM      9  N   UNL     1       5.793   4.462  14.469  0.00  0.00    +0.000 NA
ATOM     10  C   UNL     1       7.091   4.620  14.764  0.00  0.00    +0.000 A 
ATOM     11  N   UNL     1       7.595   4.797  15.989  0.00  0.00    +0.000 NA
ATOM     12  C   UNL     1       6.700   4.781  16.995  0.00  0.00    +0.000 A 
ENDBRANCH   4   7
BRANCH   1  14
ATOM     13  C   UNL     1       1.727   2.758  21.718  0.00  0.00    +0.000 C 
ATOM     14  O   UNL     1       1.836   4.114  21.316  0.00  0.00    +0.000 OA
ENDBRANCH   1  14
BRANCH   5  15
ATOM     15  C   UNL     1       3.979   7.103  17.977  0.00  0.00    +0.000 C 
ATOM     16  O   UNL     1       3.041   7.726  17.486  0.00  0.00    +0.000 OA
ENDBRANCH   5  15
BRANCH   6  17
ATOM     17  O   UNL     1       2.376   6.793  20.235  0.00  0.00    +0.000 OA
ATOM     18  H   UNL     1       2.882   7.054  21.035  0.00  0.00    +0.000 HD
ENDBRANCH   6  17
TORSDOF 4
ENDMDL
MODEL 7
REMARK VINA RESULT:      -6.2      3.587      5.723
REMARK  Name = 
REMARK  5 active torsions:
REMARK  status: ('A' for Active; 'I' for Inactive)
REMARK    1  A    between atoms: C_1  and  O_2
REMARK    2  A    between atoms: O_2  and  C_3
REMARK    3  A    between atoms: C_6  and  C_7
REMARK    4  A    between atoms: C_13  and  C_14
REMARK    5  A    between atoms: C_16  and  O_17
REMARK                            x       y       z     vdW  Elec       q    Type
REMARK                         _______ _______ _______ _____ _____    ______ ____
ROOT
ATOM      1  C   UNL     1       2.324   6.438  19.818  0.00  0.00    +0.000 A 
ATOM      2  C   UNL     1       2.635   7.273  18.750  0.00  0.00    +0.000 A 
ATOM      3  C   UNL     1       3.598   6.909  17.800  0.00  0.00    +0.000 A 
ATOM      4  C   UNL     1       4.301   5.693  17.892  0.00  0.00    +0.000 A 
ATOM      5  C   UNL     1       4.001   4.866  18.999  0.00  0.00    +0.000 A 
ATOM      6  C   UNL     1       3.010   5.223  19.945  0.00  0.00    +0.000 A 
ENDROOT
BRANCH   4   7
ATOM      7  C   UNL     1       5.260   5.336  16.817  0.00  0.00    +0.000 A 
ATOM      8  C   UNL     1       6.501   5.943  16.676  0.00  0.00    +0.000 A 
ATOM      9  N   UNL     1       7.380   5.685  15.684  0.00  0.00    +0.000 NA
ATOM     10  C   UNL     1       7.001   4.757  14.796  0.00  0.00    +0.000 A 
ATOM     11  N   UNL     1       5.847   4.084  14.818  0.00  0.00    +0.000 NA
ATOM     12  C   UNL     1       5.001   4.409  15.814  0.00  0.00    +0.000 A 
ENDBRANCH   4   7
BRANCH   1  14
ATOM     13  C   UNL     1       1.357   8.357  20.868  0.00  0.00    +0.000 C 
ATOM     14  O   UNL     1       1.351   6.958  20.628  0.00  0.00    +0.000 OA
ENDBRANCH   1  14
BRANCH   5  15
ATOM     15  C   UNL     1       4.743   3.605  19.240  0.00  0.00    +0.000 C 
ATOM     16  O   UNL     1       4.163   2.523  19.226  0.00  0.00    +0.000 OA
ENDBRANCH   5  15
BRANCH   6  17
ATOM     17  O   UNL     1       2.737   4.395  21.005  0.00  0.00    +0.000 OA
ATOM     18  H   UNL     1       2.890   3.461  20.743  0.00  0.00    +0.000 HD
ENDBRANCH   6  17
TORSDOF 4
ENDMDL
MODEL 8
REMARK VINA RESULT:      -6.2      3.481      5.644
REMARK  Name = 
REMARK  5 active torsions:
REMARK  status: ('A' for Active; 'I' for Inactive)
REMARK    1  A    between atoms: C_1  and  O_2
REMARK    2  A    between atoms: O_2  and  C_3
REMARK    3  A    between atoms: C_6  and  C_7
REMARK    4  A    between atoms: C_13  and  C_14
REMARK    5  A    between atoms: C_16  and  O_17
REMARK                            x       y       z     vdW  Elec       q    Type
REMARK                         _______ _______ _______ _____ _____    ______ ____
ROOT
ATOM      1  C   UNL     1       2.446   6.287  19.696  0.00  0.00    +0.000 A 
ATOM      2  C   UNL     1       2.813   7.217  18.729  0.00  0.00    +0.000 A 
ATOM      3  C   UNL     1       3.745   6.898  17.733  0.00  0.00    +0.000 A 
ATOM      4  C   UNL     1       4.360   5.634  17.676  0.00  0.00    +0.000 A 
ATOM      5  C   UNL     1       4.006   4.707  18.683  0.00  0.00    +0.000 A 
ATOM      6  C   UNL     1       3.045   5.021  19.675  0.00  0.00    +0.000 A 
ENDROOT
BRANCH   4   7
ATOM      7  C   UNL     1       5.290   5.338  16.557  0.00  0.00    +0.000 A 
ATOM      8  C   UNL     1       4.942   4.545  15.473  0.00  0.00    +0.000 A 
ATOM      9  N   UNL     1       5.772   4.208  14.461  0.00  0.00    +0.000 NA
ATOM     10  C   UNL     1       7.012   4.710  14.535  0.00  0.00    +0.000 A 
ATOM     11  N   UNL     1       7.477   5.498  15.508  0.00  0.00    +0.000 NA
ATOM     12  C   UNL     1       6.610   5.771  16.502  0.00  0.00    +0.000 A 
ENDBRANCH   4   7
BRANCH   1  14
ATOM     13  C   UNL     1       1.439   8.182  20.752  0.00  0.00    +0.000 C 
ATOM     14  O   UNL     1       1.514   6.777  20.571  0.00  0.00    +0.000 OA
ENDBRANCH   1  14
BRANCH   5  15
ATOM     15  C   UNL     1       4.658   3.378  18.770  0.00  0.00    +0.000 C 
ATOM     16  O   UNL     1       5.274   3.046  19.779  0.00  0.00    +0.000 OA
ENDBRANCH   5  15
BRANCH   6  17
ATOM     17  O   UNL     1       2.717   4.097  20.636  0.00  0.00    +0.000 OA
ATOM     18  H   UNL     1       3.405   3.396  20.670  0.00  0.00    +0.000 HD
ENDBRANCH   6  17
TORSDOF 4
ENDMDL
MODEL 9
REMARK VINA RESULT:      -6.1      1.407      3.071
REMARK  Name = 
REMARK  5 active torsions:
REMARK  status: ('A' for Active; 'I' for Inactive)
REMARK    1  A    between atoms: C_1  and  O_2
REMARK    2  A    between atoms: O_2  and  C_3
REMARK    3  A    between atoms: C_6  and  C_7
REMARK    4  A    between atoms: C_13  and  C_14
REMARK    5  A    between atoms: C_16  and  O_17
REMARK                            x       y       z     vdW  Elec       q    Type
REMARK                         _______ _______ _______ _____ _____    ______ ____
ROOT
ATOM      1  C   UNL     1       7.084   6.540  16.935  0.00  0.00    +0.000 A 
ATOM      2  C   UNL     1       6.275   6.668  18.059  0.00  0.00    +0.000 A 
ATOM      3  C   UNL     1       5.194   5.803  18.277  0.00  0.00    +0.000 A 
ATOM      4  C   UNL     1       4.873   4.780  17.366  0.00  0.00    +0.000 A 
ATOM      5  C   UNL     1       5.682   4.679  16.210  0.00  0.00    +0.000 A 
ATOM      6  C   UNL     1       6.788   5.538  16.001  0.00  0.00    +0.000 A 
ENDROOT
BRANCH   4   7
ATOM      7  C   UNL     1       3.757   3.856  17.689  0.00  0.00    +0.000 A 
ATOM      8  C   UNL     1       2.424   4.170  17.466  0.00  0.00    +0.000 A 
ATOM      9  N   UNL     1       1.377   3.382  17.793  0.00  0.00    +0.000 NA
ATOM     10  C   UNL     1       1.687   2.207  18.358  0.00  0.00    +0.000 A 
ATOM     11  N   UNL     1       2.923   1.769  18.616  0.00  0.00    +0.000 NA
ATOM     12  C   UNL     1       3.920   2.615  18.294  0.00  0.00    +0.000 A 
ENDBRANCH   4   7
BRANCH   1  14
ATOM     13  C   UNL     1       8.002   8.585  17.769  0.00  0.00    +0.000 C 
ATOM     14  O   UNL     1       8.094   7.464  16.904  0.00  0.00    +0.000 OA
ENDBRANCH   1  14
BRANCH   5  15
ATOM     15  C   UNL     1       5.379   3.695  15.144  0.00  0.00    +0.000 C 
ATOM     16  O   UNL     1       5.363   4.033  13.963  0.00  0.00    +0.000 OA
ENDBRANCH   5  15
BRANCH   6  17
ATOM     17  O   UNL     1       7.558   5.410  14.872  0.00  0.00    +0.000 OA
ATOM     18  H   UNL     1       7.190   5.971  14.155  0.00  0.00    +0.000 HD
ENDBRANCH   6  17
TORSDOF 4
ENDMDL
