MODEL 1
REMARK VINA RESULT:      -8.3      0.000      0.000
REMARK  Name = 
REMARK  12 active torsions:
REMARK  status: ('A' for Active; 'I' for Inactive)
REMARK    1  A    between atoms: C_1  and  O_2
REMARK    2  A    between atoms: O_2  and  C_3
REMARK    3  A    between atoms: C_8  and  O_9
REMARK    4  A    between atoms: O_9  and  C_10
REMARK    5  A    between atoms: C_10  and  C_11
REMARK    6  A    between atoms: C_11  and  N_12
REMARK    7  A    between atoms: N_12  and  C_13
REMARK    8  A    between atoms: C_13  and  C_14
REMARK    9  A    between atoms: C_14  and  O_15
REMARK   10  A    between atoms: C_14  and  C_16
REMARK   11  A    between atoms: C_16  and  O_17
REMARK   12  A    between atoms: O_17  and  C_18
REMARK                            x       y       z     vdW  Elec       q    Type
REMARK                         _______ _______ _______ _____ _____    ______ ____
ROOT
ATOM      1  C   UNL     1       1.927   3.722  20.815  0.00  0.00    +0.000 C 
ENDROOT
BRANCH   1   2
ATOM      2  O   UNL     1       0.548   3.666  20.417  0.00  0.00    +0.000 OA
ATOM      3  H   UNL     1       0.519   3.572  19.451  0.00  0.00    +0.000 HD
ENDBRANCH   1   2
BRANCH   1   4
ATOM      4  C   UNL     1       2.674   2.583  20.086  0.00  0.00    +0.000 C 
BRANCH   4   5
ATOM      5  N   UNL     1       1.996   2.042  18.899  0.00  0.00    +0.000 NA
ATOM      6  H   UNL     1       1.951   1.025  18.992  0.00  0.00    +0.000 HD
BRANCH   5   7
ATOM      7  C   UNL     1       2.701   2.362  17.642  0.00  0.00    +0.000 C 
BRANCH   7   8
ATOM      8  C   UNL     1       4.052   3.033  17.898  0.00  0.00    +0.000 C 
BRANCH   8   9
ATOM      9  O   UNL     1       4.250   4.186  17.103  0.00  0.00    +0.000 OA
BRANCH   9  15
ATOM     10  C   UNL     1       6.187   5.702  16.562  0.00  0.00    +0.000 A 
ATOM     11  C   UNL     1       7.239   6.454  17.103  0.00  0.00    +0.000 A 
ATOM     12  C   UNL     1       7.571   6.337  18.451  0.00  0.00    +0.000 A 
ATOM     13  C   UNL     1       6.835   5.493  19.273  0.00  0.00    +0.000 A 
ATOM     14  C   UNL     1       5.740   4.800  18.759  0.00  0.00    +0.000 A 
ATOM     15  C   UNL     1       5.384   4.915  17.413  0.00  0.00    +0.000 A 
BRANCH  10  17
ATOM     16  C   UNL     1       6.537   4.809  14.393  0.00  0.00    +0.000 C 
ATOM     17  O   UNL     1       5.926   5.805  15.218  0.00  0.00    +0.000 OA
ENDBRANCH  10  17
ENDBRANCH   9  15
ENDBRANCH   8   9
ENDBRANCH   7   8
ENDBRANCH   5   7
ENDBRANCH   4   5
ENDBRANCH   1   4
BRANCH   1  18
ATOM     18  C   UNL     1       2.579   5.060  20.444  0.00  0.00    +0.000 C 
BRANCH  18  19
ATOM     19  O   UNL     1       1.776   6.170  20.836  0.00  0.00    +0.000 OA
BRANCH  19  20
ATOM     20  C   UNL     1       1.853   7.247  19.952  0.00  0.00    +0.000 A 
ATOM     21  C   UNL     1       2.528   6.934  18.755  0.00  0.00    +0.000 A 
ATOM     22  C   UNL     1       2.721   7.888  17.763  0.00  0.00    +0.000 A 
ATOM     23  C   UNL     1       2.195   9.167  17.904  0.00  0.00    +0.000 A 
ATOM     24  C   UNL     1       1.472   9.453  19.069  0.00  0.00    +0.000 A 
ATOM     25  N   UNL     1       0.757  10.580  19.375  0.00  0.00    +0.000 N 
ATOM     26  C   UNL     1       0.170  10.477  20.606  0.00  0.00    +0.000 A 
ATOM     27  C   UNL     1      -0.737  11.334  21.242  0.00  0.00    +0.000 A 
ATOM     28  C   UNL     1      -1.089  11.047  22.561  0.00  0.00    +0.000 A 
ATOM     29  C   UNL     1      -0.476  10.002  23.240  0.00  0.00    +0.000 A 
ATOM     30  C   UNL     1       0.434   9.165  22.585  0.00  0.00    +0.000 A 
ATOM     31  C   UNL     1       0.691   9.329  21.201  0.00  0.00    +0.000 A 
ATOM     32  C   UNL     1       1.344   8.566  20.150  0.00  0.00    +0.000 A 
ATOM     33  H   UNL     1       0.654  11.374  18.760  0.00  0.00    +0.000 HD
ENDBRANCH  19  20
ENDBRANCH  18  19
ENDBRANCH   1  18
TORSDOF 11
ENDMDL
MODEL 2
REMARK VINA RESULT:      -7.7      1.966      7.564
REMARK  Name = 
REMARK  12 active torsions:
REMARK  status: ('A' for Active; 'I' for Inactive)
REMARK    1  A    between atoms: C_1  and  O_2
REMARK    2  A    between atoms: O_2  and  C_3
REMARK    3  A    between atoms: C_8  and  O_9
REMARK    4  A    between atoms: O_9  and  C_10
REMARK    5  A    between atoms: C_10  and  C_11
REMARK    6  A    between atoms: C_11  and  N_12
REMARK    7  A    between atoms: N_12  and  C_13
REMARK    8  A    between atoms: C_13  and  C_14
REMARK    9  A    between atoms: C_14  and  O_15
REMARK   10  A    between atoms: C_14  and  C_16
REMARK   11  A    between atoms: C_16  and  O_17
REMARK   12  A    between atoms: O_17  and  C_18
REMARK                            x       y       z     vdW  Elec       q    Type
REMARK                         _______ _______ _______ _____ _____    ______ ____
ROOT
ATOM      1  C   UNL     1       3.856   1.900  19.139  0.00  0.00    +0.000 C 
ENDROOT
BRANCH   1   2
ATOM      2  O   UNL     1       5.097   1.580  19.790  0.00  0.00    +0.000 OA
ATOM      3  H   UNL     1       5.814   1.703  19.146  0.00  0.00    +0.000 HD
ENDBRANCH   1   2
BRANCH   1   4
ATOM      4  C   UNL     1       3.122   2.942  20.012  0.00  0.00    +0.000 C 
BRANCH   4   5
ATOM      5  N   UNL     1       1.668   3.025  19.807  0.00  0.00    +0.000 NA
ATOM      6  H   UNL     1       1.482   2.944  18.806  0.00  0.00    +0.000 HD
BRANCH   5   7
ATOM      7  C   UNL     1       1.095   4.298  20.286  0.00  0.00    +0.000 C 
BRANCH   7   8
ATOM      8  C   UNL     1       2.155   5.397  20.399  0.00  0.00    +0.000 C 
BRANCH   8   9
ATOM      9  O   UNL     1       1.623   6.624  20.859  0.00  0.00    +0.000 OA
BRANCH   9  15
ATOM     10  C   UNL     1       0.960   8.881  19.960  0.00  0.00    +0.000 A 
ATOM     11  C   UNL     1       1.210   9.835  18.963  0.00  0.00    +0.000 A 
ATOM     12  C   UNL     1       2.034   9.530  17.883  0.00  0.00    +0.000 A 
ATOM     13  C   UNL     1       2.642   8.282  17.808  0.00  0.00    +0.000 A 
ATOM     14  C   UNL     1       2.459   7.355  18.834  0.00  0.00    +0.000 A 
ATOM     15  C   UNL     1       1.646   7.649  19.931  0.00  0.00    +0.000 A 
BRANCH  10  17
ATOM     16  C   UNL     1       0.704   9.756  22.149  0.00  0.00    +0.000 C 
ATOM     17  O   UNL     1       0.098   9.201  20.979  0.00  0.00    +0.000 OA
ENDBRANCH  10  17
ENDBRANCH   9  15
ENDBRANCH   8   9
ENDBRANCH   7   8
ENDBRANCH   5   7
ENDBRANCH   4   5
ENDBRANCH   1   4
BRANCH   1  18
ATOM     18  C   UNL     1       4.076   2.490  17.740  0.00  0.00    +0.000 C 
BRANCH  18  19
ATOM     19  O   UNL     1       3.866   3.899  17.719  0.00  0.00    +0.000 OA
BRANCH  19  20
ATOM     20  C   UNL     1       5.044   4.631  17.569  0.00  0.00    +0.000 A 
ATOM     21  C   UNL     1       5.489   5.218  18.771  0.00  0.00    +0.000 A 
ATOM     22  C   UNL     1       6.637   6.001  18.813  0.00  0.00    +0.000 A 
ATOM     23  C   UNL     1       7.410   6.177  17.672  0.00  0.00    +0.000 A 
ATOM     24  C   UNL     1       6.996   5.541  16.495  0.00  0.00    +0.000 A 
ATOM     25  N   UNL     1       7.651   5.455  15.294  0.00  0.00    +0.000 N 
ATOM     26  C   UNL     1       6.929   4.730  14.386  0.00  0.00    +0.000 A 
ATOM     27  C   UNL     1       7.281   4.299  13.101  0.00  0.00    +0.000 A 
ATOM     28  C   UNL     1       6.300   3.669  12.335  0.00  0.00    +0.000 A 
ATOM     29  C   UNL     1       4.997   3.570  12.805  0.00  0.00    +0.000 A 
ATOM     30  C   UNL     1       4.669   4.017  14.090  0.00  0.00    +0.000 A 
ATOM     31  C   UNL     1       5.675   4.513  14.955  0.00  0.00    +0.000 A 
ATOM     32  C   UNL     1       5.790   4.834  16.368  0.00  0.00    +0.000 A 
ATOM     33  H   UNL     1       8.560   5.853  15.112  0.00  0.00    +0.000 HD
ENDBRANCH  19  20
ENDBRANCH  18  19
ENDBRANCH   1  18
TORSDOF 11
ENDMDL
MODEL 3
REMARK VINA RESULT:      -7.4      2.645      8.245
REMARK  Name = 
REMARK  12 active torsions:
REMARK  status: ('A' for Active; 'I' for Inactive)
REMARK    1  A    between atoms: C_1  and  O_2
REMARK    2  A    between atoms: O_2  and  C_3
REMARK    3  A    between atoms: C_8  and  O_9
REMARK    4  A    between atoms: O_9  and  C_10
REMARK    5  A    between atoms: C_10  and  C_11
REMARK    6  A    between atoms: C_11  and  N_12
REMARK    7  A    between atoms: N_12  and  C_13
REMARK    8  A    between atoms: C_13  and  C_14
REMARK    9  A    between atoms: C_14  and  O_15
REMARK   10  A    between atoms: C_14  and  C_16
REMARK   11  A    between atoms: C_16  and  O_17
REMARK   12  A    between atoms: O_17  and  C_18
REMARK                            x       y       z     vdW  Elec       q    Type
REMARK                         _______ _______ _______ _____ _____    ______ ____
ROOT
ATOM      1  C   UNL     1       2.148   3.929  18.220  0.00  0.00    +0.000 C 
ENDROOT
BRANCH   1   2
ATOM      2  O   UNL     1       1.018   3.073  17.986  0.00  0.00    +0.000 OA
ATOM      3  H   UNL     1       0.355   3.258  18.673  0.00  0.00    +0.000 HD
ENDBRANCH   1   2
BRANCH   1   4
ATOM      4  C   UNL     1       1.891   4.699  19.535  0.00  0.00    +0.000 C 
BRANCH   4   5
ATOM      5  N   UNL     1       2.313   6.107  19.535  0.00  0.00    +0.000 NA
ATOM      6  H   UNL     1       1.656   6.637  20.112  0.00  0.00    +0.000 HD
BRANCH   5   7
ATOM      7  C   UNL     1       2.328   6.700  18.183  0.00  0.00    +0.000 C 
BRANCH   7   8
ATOM      8  C   UNL     1       2.425   8.227  18.228  0.00  0.00    +0.000 C 
BRANCH   8   9
ATOM      9  O   UNL     1       1.344   8.863  17.575  0.00  0.00    +0.000 OA
BRANCH   9  15
ATOM     10  C   UNL     1      -0.740  10.141  18.179  0.00  0.00    +0.000 A 
ATOM     11  C   UNL     1      -1.383  10.873  19.187  0.00  0.00    +0.000 A 
ATOM     12  C   UNL     1      -0.694  11.246  20.338  0.00  0.00    +0.000 A 
ATOM     13  C   UNL     1       0.631  10.863  20.506  0.00  0.00    +0.000 A 
ATOM     14  C   UNL     1       1.255  10.071  19.542  0.00  0.00    +0.000 A 
ATOM     15  C   UNL     1       0.575   9.676  18.387  0.00  0.00    +0.000 A 
BRANCH  10  17
ATOM     16  C   UNL     1      -2.862   9.868  17.155  0.00  0.00    +0.000 C 
ATOM     17  O   UNL     1      -1.437   9.840  17.035  0.00  0.00    +0.000 OA
ENDBRANCH  10  17
ENDBRANCH   9  15
ENDBRANCH   8   9
ENDBRANCH   7   8
ENDBRANCH   5   7
ENDBRANCH   4   5
ENDBRANCH   1   4
BRANCH   1  18
ATOM     18  C   UNL     1       3.453   3.135  18.357  0.00  0.00    +0.000 C 
BRANCH  18  19
ATOM     19  O   UNL     1       4.203   3.131  17.145  0.00  0.00    +0.000 OA
BRANCH  19  20
ATOM     20  C   UNL     1       5.205   4.102  17.112  0.00  0.00    +0.000 A 
ATOM     21  C   UNL     1       5.472   4.666  18.377  0.00  0.00    +0.000 A 
ATOM     22  C   UNL     1       6.425   5.664  18.537  0.00  0.00    +0.000 A 
ATOM     23  C   UNL     1       7.185   6.092  17.455  0.00  0.00    +0.000 A 
ATOM     24  C   UNL     1       6.957   5.485  16.213  0.00  0.00    +0.000 A 
ATOM     25  N   UNL     1       7.658   5.639  15.046  0.00  0.00    +0.000 N 
ATOM     26  C   UNL     1       7.139   4.858  14.050  0.00  0.00    +0.000 A 
ATOM     27  C   UNL     1       7.620   4.620  12.757  0.00  0.00    +0.000 A 
ATOM     28  C   UNL     1       6.823   3.866  11.895  0.00  0.00    +0.000 A 
ATOM     29  C   UNL     1       5.554   3.459  12.287  0.00  0.00    +0.000 A 
ATOM     30  C   UNL     1       5.093   3.719  13.583  0.00  0.00    +0.000 A 
ATOM     31  C   UNL     1       5.940   4.339  14.534  0.00  0.00    +0.000 A 
ATOM     32  C   UNL     1       5.933   4.556  15.971  0.00  0.00    +0.000 A 
ATOM     33  H   UNL     1       8.468   6.231  14.943  0.00  0.00    +0.000 HD
ENDBRANCH  19  20
ENDBRANCH  18  19
ENDBRANCH   1  18
TORSDOF 11
ENDMDL
MODEL 4
REMARK VINA RESULT:      -7.3      1.009      1.870
REMARK  Name = 
REMARK  12 active torsions:
REMARK  status: ('A' for Active; 'I' for Inactive)
REMARK    1  A    between atoms: C_1  and  O_2
REMARK    2  A    between atoms: O_2  and  C_3
REMARK    3  A    between atoms: C_8  and  O_9
REMARK    4  A    between atoms: O_9  and  C_10
REMARK    5  A    between atoms: C_10  and  C_11
REMARK    6  A    between atoms: C_11  and  N_12
REMARK    7  A    between atoms: N_12  and  C_13
REMARK    8  A    between atoms: C_13  and  C_14
REMARK    9  A    between atoms: C_14  and  O_15
REMARK   10  A    between atoms: C_14  and  C_16
REMARK   11  A    between atoms: C_16  and  O_17
REMARK   12  A    between atoms: O_17  and  C_18
REMARK                            x       y       z     vdW  Elec       q    Type
REMARK                         _______ _______ _______ _____ _____    ______ ____
ROOT
ATOM      1  C   UNL     1       2.004   3.698  21.609  0.00  0.00    +0.000 C 
ENDROOT
BRANCH   1   2
ATOM      2  O   UNL     1       0.936   2.765  21.843  0.00  0.00    +0.000 OA
ATOM      3  H   UNL     1       1.218   2.158  22.549  0.00  0.00    +0.000 HD
ENDBRANCH   1   2
BRANCH   1   4
ATOM      4  C   UNL     1       3.187   2.916  20.996  0.00  0.00    +0.000 C 
BRANCH   4   5
ATOM      5  N   UNL     1       3.602   3.349  19.654  0.00  0.00    +0.000 NA
ATOM      6  H   UNL     1       2.874   3.958  19.276  0.00  0.00    +0.000 HD
BRANCH   5   7
ATOM      7  C   UNL     1       3.793   2.220  18.722  0.00  0.00    +0.000 C 
BRANCH   7   8
ATOM      8  C   UNL     1       3.653   2.653  17.261  0.00  0.00    +0.000 C 
BRANCH   8   9
ATOM      9  O   UNL     1       3.761   4.054  17.093  0.00  0.00    +0.000 OA
BRANCH   9  15
ATOM     10  C   UNL     1       5.951   5.296  17.031  0.00  0.00    +0.000 A 
ATOM     11  C   UNL     1       7.122   5.517  16.293  0.00  0.00    +0.000 A 
ATOM     12  C   UNL     1       7.239   5.033  14.993  0.00  0.00    +0.000 A 
ATOM     13  C   UNL     1       6.202   4.299  14.432  0.00  0.00    +0.000 A 
ATOM     14  C   UNL     1       5.065   4.011  15.187  0.00  0.00    +0.000 A 
ATOM     15  C   UNL     1       4.935   4.476  16.497  0.00  0.00    +0.000 A 
BRANCH  10  17
ATOM     16  C   UNL     1       6.680   5.233  19.287  0.00  0.00    +0.000 C 
ATOM     17  O   UNL     1       5.852   5.836  18.290  0.00  0.00    +0.000 OA
ENDBRANCH  10  17
ENDBRANCH   9  15
ENDBRANCH   8   9
ENDBRANCH   7   8
ENDBRANCH   5   7
ENDBRANCH   4   5
ENDBRANCH   1   4
BRANCH   1  18
ATOM     18  C   UNL     1       1.591   4.813  20.640  0.00  0.00    +0.000 C 
BRANCH  18  19
ATOM     19  O   UNL     1       1.967   6.101  21.121  0.00  0.00    +0.000 OA
BRANCH  19  20
ATOM     20  C   UNL     1       1.987   7.078  20.125  0.00  0.00    +0.000 A 
ATOM     21  C   UNL     1       2.657   6.664  18.956  0.00  0.00    +0.000 A 
ATOM     22  C   UNL     1       2.795   7.511  17.863  0.00  0.00    +0.000 A 
ATOM     23  C   UNL     1       2.221   8.777  17.876  0.00  0.00    +0.000 A 
ATOM     24  C   UNL     1       1.504   9.159  19.017  0.00  0.00    +0.000 A 
ATOM     25  N   UNL     1       0.748  10.284  19.213  0.00  0.00    +0.000 N 
ATOM     26  C   UNL     1       0.185  10.292  20.460  0.00  0.00    +0.000 A 
ATOM     27  C   UNL     1      -0.747  11.178  21.016  0.00  0.00    +0.000 A 
ATOM     28  C   UNL     1      -1.067  11.021  22.365  0.00  0.00    +0.000 A 
ATOM     29  C   UNL     1      -0.402  10.081  23.141  0.00  0.00    +0.000 A 
ATOM     30  C   UNL     1       0.532   9.214  22.562  0.00  0.00    +0.000 A 
ATOM     31  C   UNL     1       0.761   9.237  21.164  0.00  0.00    +0.000 A 
ATOM     32  C   UNL     1       1.429   8.391  20.190  0.00  0.00    +0.000 A 
ATOM     33  H   UNL     1       0.603  11.002  18.518  0.00  0.00    +0.000 HD
ENDBRANCH  19  20
ENDBRANCH  18  19
ENDBRANCH   1  18
TORSDOF 11
ENDMDL
MODEL 5
REMARK VINA RESULT:      -7.3      2.046      8.035
REMARK  Name = 
REMARK  12 active torsions:
REMARK  status: ('A' for Active; 'I' for Inactive)
REMARK    1  A    between atoms: C_1  and  O_2
REMARK    2  A    between atoms: O_2  and  C_3
REMARK    3  A    between atoms: C_8  and  O_9
REMARK    4  A    between atoms: O_9  and  C_10
REMARK    5  A    between atoms: C_10  and  C_11
REMARK    6  A    between atoms: C_11  and  N_12
REMARK    7  A    between atoms: N_12  and  C_13
REMARK    8  A    between atoms: C_13  and  C_14
REMARK    9  A    between atoms: C_14  and  O_15
REMARK   10  A    between atoms: C_14  and  C_16
REMARK   11  A    between atoms: C_16  and  O_17
REMARK   12  A    between atoms: O_17  and  C_18
REMARK                            x       y       z     vdW  Elec       q    Type
REMARK                         _______ _______ _______ _____ _____    ______ ____
ROOT
ATOM      1  C   UNL     1       2.221   2.347  18.001  0.00  0.00    +0.000 C 
ENDROOT
BRANCH   1   2
ATOM      2  O   UNL     1       1.533   1.646  19.050  0.00  0.00    +0.000 OA
ATOM      3  H   UNL     1       1.637   0.693  18.891  0.00  0.00    +0.000 HD
ENDBRANCH   1   2
BRANCH   1   4
ATOM      4  C   UNL     1       1.604   3.761  17.899  0.00  0.00    +0.000 C 
BRANCH   4   5
ATOM      5  N   UNL     1       1.201   4.367  19.176  0.00  0.00    +0.000 NA
ATOM      6  H   UNL     1       0.552   5.131  18.975  0.00  0.00    +0.000 HD
BRANCH   5   7
ATOM      7  C   UNL     1       2.343   4.915  19.935  0.00  0.00    +0.000 C 
BRANCH   7   8
ATOM      8  C   UNL     1       2.577   6.396  19.628  0.00  0.00    +0.000 C 
BRANCH   8   9
ATOM      9  O   UNL     1       2.007   7.252  20.599  0.00  0.00    +0.000 OA
BRANCH   9  15
ATOM     10  C   UNL     1       0.847   9.479  20.789  0.00  0.00    +0.000 A 
ATOM     11  C   UNL     1       0.498  10.651  20.103  0.00  0.00    +0.000 A 
ATOM     12  C   UNL     1       0.677  10.743  18.725  0.00  0.00    +0.000 A 
ATOM     13  C   UNL     1       1.235   9.679  18.028  0.00  0.00    +0.000 A 
ATOM     14  C   UNL     1       1.654   8.539  18.714  0.00  0.00    +0.000 A 
ATOM     15  C   UNL     1       1.495   8.434  20.098  0.00  0.00    +0.000 A 
BRANCH  10  17
ATOM     16  C   UNL     1      -0.423  10.273  22.628  0.00  0.00    +0.000 C 
ATOM     17  O   UNL     1       0.604   9.407  22.138  0.00  0.00    +0.000 OA
ENDBRANCH  10  17
ENDBRANCH   9  15
ENDBRANCH   8   9
ENDBRANCH   7   8
ENDBRANCH   5   7
ENDBRANCH   4   5
ENDBRANCH   1   4
BRANCH   1  18
ATOM     18  C   UNL     1       3.722   2.480  18.285  0.00  0.00    +0.000 C 
BRANCH  18  19
ATOM     19  O   UNL     1       4.471   2.700  17.092  0.00  0.00    +0.000 OA
BRANCH  19  20
ATOM     20  C   UNL     1       5.331   3.796  17.175  0.00  0.00    +0.000 A 
ATOM     21  C   UNL     1       5.476   4.289  18.487  0.00  0.00    +0.000 A 
ATOM     22  C   UNL     1       6.278   5.391  18.762  0.00  0.00    +0.000 A 
ATOM     23  C   UNL     1       7.007   6.000  17.748  0.00  0.00    +0.000 A 
ATOM     24  C   UNL     1       6.907   5.468  16.457  0.00  0.00    +0.000 A 
ATOM     25  N   UNL     1       7.618   5.804  15.336  0.00  0.00    +0.000 N 
ATOM     26  C   UNL     1       7.245   5.042  14.263  0.00  0.00    +0.000 A 
ATOM     27  C   UNL     1       7.797   4.972  12.978  0.00  0.00    +0.000 A 
ATOM     28  C   UNL     1       7.139   4.188  12.030  0.00  0.00    +0.000 A 
ATOM     29  C   UNL     1       5.926   3.585  12.335  0.00  0.00    +0.000 A 
ATOM     30  C   UNL     1       5.391   3.678  13.625  0.00  0.00    +0.000 A 
ATOM     31  C   UNL     1       6.112   4.330  14.655  0.00  0.00    +0.000 A 
ATOM     32  C   UNL     1       6.028   4.431  16.102  0.00  0.00    +0.000 A 
ATOM     33  H   UNL     1       8.343   6.506  15.311  0.00  0.00    +0.000 HD
ENDBRANCH  19  20
ENDBRANCH  18  19
ENDBRANCH   1  18
TORSDOF 11
ENDMDL
MODEL 6
REMARK VINA RESULT:      -7.3      2.113      7.634
REMARK  Name = 
REMARK  12 active torsions:
REMARK  status: ('A' for Active; 'I' for Inactive)
REMARK    1  A    between atoms: C_1  and  O_2
REMARK    2  A    between atoms: O_2  and  C_3
REMARK    3  A    between atoms: C_8  and  O_9
REMARK    4  A    between atoms: O_9  and  C_10
REMARK    5  A    between atoms: C_10  and  C_11
REMARK    6  A    between atoms: C_11  and  N_12
REMARK    7  A    between atoms: N_12  and  C_13
REMARK    8  A    between atoms: C_13  and  C_14
REMARK    9  A    between atoms: C_14  and  O_15
REMARK   10  A    between atoms: C_14  and  C_16
REMARK   11  A    between atoms: C_16  and  O_17
REMARK   12  A    between atoms: O_17  and  C_18
REMARK                            x       y       z     vdW  Elec       q    Type
REMARK                         _______ _______ _______ _____ _____    ______ ____
ROOT
ATOM      1  C   UNL     1       2.395   2.630  18.731  0.00  0.00    +0.000 C 
ENDROOT
BRANCH   1   2
ATOM      2  O   UNL     1       1.740   1.554  18.040  0.00  0.00    +0.000 OA
ATOM      3  H   UNL     1       0.788   1.751  18.014  0.00  0.00    +0.000 HD
ENDBRANCH   1   2
BRANCH   1   4
ATOM      4  C   UNL     1       2.373   2.301  20.241  0.00  0.00    +0.000 C 
BRANCH   4   5
ATOM      5  N   UNL     1       1.568   3.208  21.073  0.00  0.00    +0.000 NA
ATOM      6  H   UNL     1       0.665   3.346  20.613  0.00  0.00    +0.000 HD
BRANCH   5   7
ATOM      7  C   UNL     1       2.202   4.529  21.257  0.00  0.00    +0.000 C 
BRANCH   7   8
ATOM      8  C   UNL     1       1.473   5.627  20.480  0.00  0.00    +0.000 C 
BRANCH   8   9
ATOM      9  O   UNL     1       2.323   6.700  20.121  0.00  0.00    +0.000 OA
BRANCH   9  15
ATOM     10  C   UNL     1       1.465   8.803  19.034  0.00  0.00    +0.000 A 
ATOM     11  C   UNL     1       0.735   9.982  19.239  0.00  0.00    +0.000 A 
ATOM     12  C   UNL     1       0.362  10.369  20.524  0.00  0.00    +0.000 A 
ATOM     13  C   UNL     1       0.688   9.565  21.609  0.00  0.00    +0.000 A 
ATOM     14  C   UNL     1       1.348   8.354  21.406  0.00  0.00    +0.000 A 
ATOM     15  C   UNL     1       1.718   7.943  20.123  0.00  0.00    +0.000 A 
BRANCH  10  17
ATOM     16  C   UNL     1       3.222   8.068  17.620  0.00  0.00    +0.000 C 
ATOM     17  O   UNL     1       1.861   8.485  17.759  0.00  0.00    +0.000 OA
ENDBRANCH  10  17
ENDBRANCH   9  15
ENDBRANCH   8   9
ENDBRANCH   7   8
ENDBRANCH   5   7
ENDBRANCH   4   5
ENDBRANCH   1   4
BRANCH   1  18
ATOM     18  C   UNL     1       3.852   2.800  18.282  0.00  0.00    +0.000 C 
BRANCH  18  19
ATOM     19  O   UNL     1       3.946   3.477  17.031  0.00  0.00    +0.000 OA
BRANCH  19  20
ATOM     20  C   UNL     1       5.018   4.368  16.965  0.00  0.00    +0.000 A 
ATOM     21  C   UNL     1       5.290   4.999  18.195  0.00  0.00    +0.000 A 
ATOM     22  C   UNL     1       6.311   5.935  18.318  0.00  0.00    +0.000 A 
ATOM     23  C   UNL     1       7.131   6.229  17.234  0.00  0.00    +0.000 A 
ATOM     24  C   UNL     1       6.894   5.552  16.031  0.00  0.00    +0.000 A 
ATOM     25  N   UNL     1       7.637   5.570  14.880  0.00  0.00    +0.000 N 
ATOM     26  C   UNL     1       7.090   4.760  13.924  0.00  0.00    +0.000 A 
ATOM     27  C   UNL     1       7.589   4.395  12.667  0.00  0.00    +0.000 A 
ATOM     28  C   UNL     1       6.762   3.641  11.834  0.00  0.00    +0.000 A 
ATOM     29  C   UNL     1       5.456   3.356  12.210  0.00  0.00    +0.000 A 
ATOM     30  C   UNL     1       4.978   3.741  13.468  0.00  0.00    +0.000 A 
ATOM     31  C   UNL     1       5.842   4.364  14.402  0.00  0.00    +0.000 A 
ATOM     32  C   UNL     1       5.810   4.684  15.820  0.00  0.00    +0.000 A 
ATOM     33  H   UNL     1       8.492   6.093  14.763  0.00  0.00    +0.000 HD
ENDBRANCH  19  20
ENDBRANCH  18  19
ENDBRANCH   1  18
TORSDOF 11
ENDMDL
MODEL 7
REMARK VINA RESULT:      -7.2      1.026      1.876
REMARK  Name = 
REMARK  12 active torsions:
REMARK  status: ('A' for Active; 'I' for Inactive)
REMARK    1  A    between atoms: C_1  and  O_2
REMARK    2  A    between atoms: O_2  and  C_3
REMARK    3  A    between atoms: C_8  and  O_9
REMARK    4  A    between atoms: O_9  and  C_10
REMARK    5  A    between atoms: C_10  and  C_11
REMARK    6  A    between atoms: C_11  and  N_12
REMARK    7  A    between atoms: N_12  and  C_13
REMARK    8  A    between atoms: C_13  and  C_14
REMARK    9  A    between atoms: C_14  and  O_15
REMARK   10  A    between atoms: C_14  and  C_16
REMARK   11  A    between atoms: C_16  and  O_17
REMARK   12  A    between atoms: O_17  and  C_18
REMARK                            x       y       z     vdW  Elec       q    Type
REMARK                         _______ _______ _______ _____ _____    ______ ____
ROOT
ATOM      1  C   UNL     1       1.513   3.937  20.558  0.00  0.00    +0.000 C 
ENDROOT
BRANCH   1   2
ATOM      2  O   UNL     1       0.224   3.412  20.202  0.00  0.00    +0.000 OA
ATOM      3  H   UNL     1       0.345   2.803  19.454  0.00  0.00    +0.000 HD
ENDBRANCH   1   2
BRANCH   1   4
ATOM      4  C   UNL     1       2.560   2.831  20.297  0.00  0.00    +0.000 C 
BRANCH   4   5
ATOM      5  N   UNL     1       3.440   3.055  19.140  0.00  0.00    +0.000 NA
ATOM      6  H   UNL     1       3.338   2.260  18.505  0.00  0.00    +0.000 HD
BRANCH   5   7
ATOM      7  C   UNL     1       4.862   3.169  19.517  0.00  0.00    +0.000 C 
BRANCH   7   8
ATOM      8  C   UNL     1       5.453   4.523  19.117  0.00  0.00    +0.000 C 
BRANCH   8   9
ATOM      9  O   UNL     1       4.801   5.097  18.001  0.00  0.00    +0.000 OA
BRANCH   9  15
ATOM     10  C   UNL     1       6.449   6.007  16.329  0.00  0.00    +0.000 A 
ATOM     11  C   UNL     1       7.165   5.725  15.157  0.00  0.00    +0.000 A 
ATOM     12  C   UNL     1       6.887   4.579  14.417  0.00  0.00    +0.000 A 
ATOM     13  C   UNL     1       5.915   3.689  14.859  0.00  0.00    +0.000 A 
ATOM     14  C   UNL     1       5.252   3.924  16.063  0.00  0.00    +0.000 A 
ATOM     15  C   UNL     1       5.527   5.062  16.825  0.00  0.00    +0.000 A 
BRANCH  10  17
ATOM     16  C   UNL     1       7.743   7.098  17.990  0.00  0.00    +0.000 C 
ATOM     17  O   UNL     1       6.714   7.175  17.000  0.00  0.00    +0.000 OA
ENDBRANCH  10  17
ENDBRANCH   9  15
ENDBRANCH   8   9
ENDBRANCH   7   8
ENDBRANCH   5   7
ENDBRANCH   4   5
ENDBRANCH   1   4
BRANCH   1  18
ATOM     18  C   UNL     1       1.880   5.174  19.727  0.00  0.00    +0.000 C 
BRANCH  18  19
ATOM     19  O   UNL     1       1.885   6.361  20.516  0.00  0.00    +0.000 OA
BRANCH  19  20
ATOM     20  C   UNL     1       1.835   7.530  19.754  0.00  0.00    +0.000 A 
ATOM     21  C   UNL     1       2.434   7.390  18.486  0.00  0.00    +0.000 A 
ATOM     22  C   UNL     1       2.498   8.455  17.595  0.00  0.00    +0.000 A 
ATOM     23  C   UNL     1       1.915   9.676  17.915  0.00  0.00    +0.000 A 
ATOM     24  C   UNL     1       1.268   9.790  19.151  0.00  0.00    +0.000 A 
ATOM     25  N   UNL     1       0.517  10.830  19.630  0.00  0.00    +0.000 N 
ATOM     26  C   UNL     1       0.032  10.558  20.880  0.00  0.00    +0.000 A 
ATOM     27  C   UNL     1      -0.870  11.284  21.668  0.00  0.00    +0.000 A 
ATOM     28  C   UNL     1      -1.104  10.835  22.968  0.00  0.00    +0.000 A 
ATOM     29  C   UNL     1      -0.385   9.764  23.483  0.00  0.00    +0.000 A 
ATOM     30  C   UNL     1       0.518   9.061  22.676  0.00  0.00    +0.000 A 
ATOM     31  C   UNL     1       0.659   9.389  21.305  0.00  0.00    +0.000 A 
ATOM     32  C   UNL     1       1.272   8.786  20.133  0.00  0.00    +0.000 A 
ATOM     33  H   UNL     1       0.324  11.677  19.116  0.00  0.00    +0.000 HD
ENDBRANCH  19  20
ENDBRANCH  18  19
ENDBRANCH   1  18
TORSDOF 11
ENDMDL
MODEL 8
REMARK VINA RESULT:      -7.2      2.546      8.629
REMARK  Name = 
REMARK  12 active torsions:
REMARK  status: ('A' for Active; 'I' for Inactive)
REMARK    1  A    between atoms: C_1  and  O_2
REMARK    2  A    between atoms: O_2  and  C_3
REMARK    3  A    between atoms: C_8  and  O_9
REMARK    4  A    between atoms: O_9  and  C_10
REMARK    5  A    between atoms: C_10  and  C_11
REMARK    6  A    between atoms: C_11  and  N_12
REMARK    7  A    between atoms: N_12  and  C_13
REMARK    8  A    between atoms: C_13  and  C_14
REMARK    9  A    between atoms: C_14  and  O_15
REMARK   10  A    between atoms: C_14  and  C_16
REMARK   11  A    between atoms: C_16  and  O_17
REMARK   12  A    between atoms: O_17  and  C_18
REMARK                            x       y       z     vdW  Elec       q    Type
REMARK                         _______ _______ _______ _____ _____    ______ ____
ROOT
ATOM      1  C   UNL     1       2.000   9.507  18.286  0.00  0.00    +0.000 C 
ENDROOT
BRANCH   1   2
ATOM      2  O   UNL     1       2.258  10.561  17.345  0.00  0.00    +0.000 OA
ATOM      3  H   UNL     1       1.837  11.371  17.679  0.00  0.00    +0.000 HD
ENDBRANCH   1   2
BRANCH   1   4
ATOM      4  C   UNL     1       0.499   9.559  18.651  0.00  0.00    +0.000 C 
BRANCH   4   5
ATOM      5  N   UNL     1      -0.354  10.297  17.708  0.00  0.00    +0.000 NA
ATOM      6  H   UNL     1       0.184  11.084  17.339  0.00  0.00    +0.000 HD
BRANCH   5   7
ATOM      7  C   UNL     1      -1.578  10.828  18.339  0.00  0.00    +0.000 C 
BRANCH   7   8
ATOM      8  C   UNL     1      -1.440  12.309  18.701  0.00  0.00    +0.000 C 
BRANCH   8   9
ATOM      9  O   UNL     1      -0.683  12.517  19.877  0.00  0.00    +0.000 OA
BRANCH   9  15
ATOM     10  C   UNL     1      -1.141  11.395  22.085  0.00  0.00    +0.000 A 
ATOM     11  C   UNL     1      -1.909  11.444  23.257  0.00  0.00    +0.000 A 
ATOM     12  C   UNL     1      -2.981  12.326  23.363  0.00  0.00    +0.000 A 
ATOM     13  C   UNL     1      -3.275  13.187  22.313  0.00  0.00    +0.000 A 
ATOM     14  C   UNL     1      -2.469  13.197  21.174  0.00  0.00    +0.000 A 
ATOM     15  C   UNL     1      -1.381  12.329  21.056  0.00  0.00    +0.000 A 
BRANCH  10  17
ATOM     16  C   UNL     1       0.008   9.597  23.120  0.00  0.00    +0.000 C 
ATOM     17  O   UNL     1      -0.127  10.474  21.998  0.00  0.00    +0.000 OA
ENDBRANCH  10  17
ENDBRANCH   9  15
ENDBRANCH   8   9
ENDBRANCH   7   8
ENDBRANCH   5   7
ENDBRANCH   4   5
ENDBRANCH   1   4
BRANCH   1  18
ATOM     18  C   UNL     1       2.321   8.124  17.705  0.00  0.00    +0.000 C 
BRANCH  18  19
ATOM     19  O   UNL     1       3.619   7.676  18.085  0.00  0.00    +0.000 OA
BRANCH  19  20
ATOM     20  C   UNL     1       4.003   6.494  17.452  0.00  0.00    +0.000 A 
ATOM     21  C   UNL     1       4.915   6.701  16.397  0.00  0.00    +0.000 A 
ATOM     22  C   UNL     1       5.394   5.641  15.636  0.00  0.00    +0.000 A 
ATOM     23  C   UNL     1       5.027   4.335  15.939  0.00  0.00    +0.000 A 
ATOM     24  C   UNL     1       4.170   4.130  17.027  0.00  0.00    +0.000 A 
ATOM     25  N   UNL     1       3.778   2.948  17.595  0.00  0.00    +0.000 N 
ATOM     26  C   UNL     1       2.944   3.160  18.659  0.00  0.00    +0.000 A 
ATOM     27  C   UNL     1       2.423   2.248  19.585  0.00  0.00    +0.000 A 
ATOM     28  C   UNL     1       1.492   2.721  20.509  0.00  0.00    +0.000 A 
ATOM     29  C   UNL     1       1.032   4.029  20.438  0.00  0.00    +0.000 A 
ATOM     30  C   UNL     1       1.563   4.919  19.497  0.00  0.00    +0.000 A 
ATOM     31  C   UNL     1       2.625   4.517  18.651  0.00  0.00    +0.000 A 
ATOM     32  C   UNL     1       3.568   5.168  17.757  0.00  0.00    +0.000 A 
ATOM     33  H   UNL     1       4.086   2.038  17.286  0.00  0.00    +0.000 HD
ENDBRANCH  19  20
ENDBRANCH  18  19
ENDBRANCH   1  18
TORSDOF 11
ENDMDL
MODEL 9
REMARK VINA RESULT:      -7.2      3.484      8.817
REMARK  Name = 
REMARK  12 active torsions:
REMARK  status: ('A' for Active; 'I' for Inactive)
REMARK    1  A    between atoms: C_1  and  O_2
REMARK    2  A    between atoms: O_2  and  C_3
REMARK    3  A    between atoms: C_8  and  O_9
REMARK    4  A    between atoms: O_9  and  C_10
REMARK    5  A    between atoms: C_10  and  C_11
REMARK    6  A    between atoms: C_11  and  N_12
REMARK    7  A    between atoms: N_12  and  C_13
REMARK    8  A    between atoms: C_13  and  C_14
REMARK    9  A    between atoms: C_14  and  O_15
REMARK   10  A    between atoms: C_14  and  C_16
REMARK   11  A    between atoms: C_16  and  O_17
REMARK   12  A    between atoms: O_17  and  C_18
REMARK                            x       y       z     vdW  Elec       q    Type
REMARK                         _______ _______ _______ _____ _____    ______ ____
ROOT
ATOM      1  C   UNL     1       2.295   9.100  18.446  0.00  0.00    +0.000 C 
ENDROOT
BRANCH   1   2
ATOM      2  O   UNL     1       2.182   9.808  17.200  0.00  0.00    +0.000 OA
ATOM      3  H   UNL     1       2.691   9.320  16.532  0.00  0.00    +0.000 HD
ENDBRANCH   1   2
BRANCH   1   4
ATOM      4  C   UNL     1       0.930   9.192  19.165  0.00  0.00    +0.000 C 
BRANCH   4   5
ATOM      5  N   UNL     1       0.900  10.054  20.356  0.00  0.00    +0.000 NA
ATOM      6  H   UNL     1       0.072   9.812  20.904  0.00  0.00    +0.000 HD
BRANCH   5   7
ATOM      7  C   UNL     1       0.832  11.490  20.021  0.00  0.00    +0.000 C 
BRANCH   7   8
ATOM      8  C   UNL     1      -0.261  11.787  18.991  0.00  0.00    +0.000 C 
BRANCH   8   9
ATOM      9  O   UNL     1      -1.515  11.241  19.352  0.00  0.00    +0.000 OA
BRANCH   9  15
ATOM     10  C   UNL     1      -3.718  11.557  18.174  0.00  0.00    +0.000 A 
ATOM     11  C   UNL     1      -4.409  11.369  16.969  0.00  0.00    +0.000 A 
ATOM     12  C   UNL     1      -3.850  10.610  15.944  0.00  0.00    +0.000 A 
ATOM     13  C   UNL     1      -2.584  10.060  16.103  0.00  0.00    +0.000 A 
ATOM     14  C   UNL     1      -1.859  10.306  17.268  0.00  0.00    +0.000 A 
ATOM     15  C   UNL     1      -2.398  11.077  18.301  0.00  0.00    +0.000 A 
BRANCH  10  17
ATOM     16  C   UNL     1      -5.681  11.905  19.458  0.00  0.00    +0.000 C 
ATOM     17  O   UNL     1      -4.326  12.266  19.180  0.00  0.00    +0.000 OA
ENDBRANCH  10  17
ENDBRANCH   9  15
ENDBRANCH   8   9
ENDBRANCH   7   8
ENDBRANCH   5   7
ENDBRANCH   4   5
ENDBRANCH   1   4
BRANCH   1  18
ATOM     18  C   UNL     1       2.648   7.622  18.239  0.00  0.00    +0.000 C 
BRANCH  18  19
ATOM     19  O   UNL     1       3.554   7.439  17.153  0.00  0.00    +0.000 OA
BRANCH  19  20
ATOM     20  C   UNL     1       4.600   6.564  17.448  0.00  0.00    +0.000 A 
ATOM     21  C   UNL     1       5.873   7.150  17.295  0.00  0.00    +0.000 A 
ATOM     22  C   UNL     1       7.036   6.424  17.525  0.00  0.00    +0.000 A 
ATOM     23  C   UNL     1       6.968   5.110  17.972  0.00  0.00    +0.000 A 
ATOM     24  C   UNL     1       5.700   4.553  18.181  0.00  0.00    +0.000 A 
ATOM     25  N   UNL     1       5.380   3.342  18.735  0.00  0.00    +0.000 N 
ATOM     26  C   UNL     1       4.025   3.162  18.786  0.00  0.00    +0.000 A 
ATOM     27  C   UNL     1       3.279   2.138  19.382  0.00  0.00    +0.000 A 
ATOM     28  C   UNL     1       1.899   2.137  19.180  0.00  0.00    +0.000 A 
ATOM     29  C   UNL     1       1.311   3.067  18.333  0.00  0.00    +0.000 A 
ATOM     30  C   UNL     1       2.081   4.076  17.742  0.00  0.00    +0.000 A 
ATOM     31  C   UNL     1       3.457   4.204  18.055  0.00  0.00    +0.000 A 
ATOM     32  C   UNL     1       4.497   5.200  17.858  0.00  0.00    +0.000 A 
ATOM     33  H   UNL     1       6.056   2.680  19.085  0.00  0.00    +0.000 HD
ENDBRANCH  19  20
ENDBRANCH  18  19
ENDBRANCH   1  18
TORSDOF 11
ENDMDL
