MODEL 1
REMARK VINA RESULT:      -6.9      0.000      0.000
REMARK  Name = 
REMARK  6 active torsions:
REMARK  status: ('A' for Active; 'I' for Inactive)
REMARK    1  A    between atoms: C_1  and  C_2
REMARK    2  A    between atoms: C_2  and  C_4
REMARK    3  A    between atoms: C_7  and  C_8
REMARK    4  A    between atoms: C_9  and  C_10
REMARK    5  A    between atoms: C_12  and  C_13
REMARK    6  A    between atoms: N_26  and  C_27
REMARK                            x       y       z     vdW  Elec       q    Type
REMARK                         _______ _______ _______ _____ _____    ______ ____
ROOT
ATOM      1  C   UNL     1       0.034  11.080  18.500  0.00  0.00    +0.000 A 
ATOM      2  C   UNL     1       0.275  12.451  18.528  0.00  0.00    +0.000 A 
ATOM      3  C   UNL     1      -0.892  13.032  18.005  0.00  0.00    +0.000 A 
ATOM      4  N   UNL     1      -1.880  12.145  17.864  0.00  0.00    +0.000 NA
ATOM      5  N   UNL     1      -1.317  10.979  18.261  0.00  0.00    +0.000 N 
ATOM      6  C   UNL     1      -2.153   9.803  18.318  0.00  0.00    +0.000 C 
ENDROOT
BRANCH   2   7
ATOM      7  C   UNL     1       1.476  13.175  18.943  0.00  0.00    +0.000 A 
ATOM      8  N   UNL     1       2.514  13.282  18.055  0.00  0.00    +0.000 NA
ATOM      9  C   UNL     1       3.482  13.911  18.680  0.00  0.00    +0.000 A 
ATOM     10  C   UNL     1       4.801  14.240  18.091  0.00  0.00    +0.000 C 
ATOM     11  N   UNL     1       3.095  14.228  19.961  0.00  0.00    +0.000 N 
ATOM     12  N   UNL     1       3.812  14.875  20.893  0.00  0.00    +0.000 NA
ATOM     13  C   UNL     1       3.166  15.044  22.006  0.00  0.00    +0.000 A 
ATOM     14  N   UNL     1       1.887  14.638  22.292  0.00  0.00    +0.000 NA
ATOM     15  C   UNL     1       1.180  14.000  21.401  0.00  0.00    +0.000 A 
ATOM     16  N   UNL     1      -0.140  13.630  21.628  0.00  0.00    +0.000 N 
ATOM     17  C   UNL     1      -0.822  14.111  22.794  0.00  0.00    +0.000 C 
ATOM     18  C   UNL     1      -1.245  12.684  23.116  0.00  0.00    +0.000 C 
ATOM     19  C   UNL     1      -0.418  12.247  21.921  0.00  0.00    +0.000 C 
ATOM     20  C   UNL     1       1.817  13.771  20.136  0.00  0.00    +0.000 A 
ENDBRANCH   2   7
BRANCH   1  24
ATOM     21  C   UNL     1       2.467   7.672  18.875  0.00  0.00    +0.000 A 
ATOM     22  C   UNL     1       1.745   8.109  19.976  0.00  0.00    +0.000 A 
ATOM     23  C   UNL     1       1.032   9.294  19.880  0.00  0.00    +0.000 A 
ATOM     24  C   UNL     1       0.949   9.955  18.660  0.00  0.00    +0.000 A 
ATOM     25  N   UNL     1       1.673   9.580  17.584  0.00  0.00    +0.000 NA
ATOM     26  C   UNL     1       2.431   8.455  17.724  0.00  0.00    +0.000 A 
BRANCH  21  28
ATOM     27  C   UNL     1       4.206   6.128  17.785  0.00  0.00    +0.000 C 
ATOM     28  C   UNL     1       3.244   6.422  18.910  0.00  0.00    +0.000 C 
ATOM     29  O   UNL     1       3.111   5.649  19.847  0.00  0.00    +0.000 OA
ENDBRANCH  21  28
ENDBRANCH   1  24
TORSDOF 3
ENDMDL
MODEL 2
REMARK VINA RESULT:      -6.7      5.897      9.557
REMARK  Name = 
REMARK  6 active torsions:
REMARK  status: ('A' for Active; 'I' for Inactive)
REMARK    1  A    between atoms: C_1  and  C_2
REMARK    2  A    between atoms: C_2  and  C_4
REMARK    3  A    between atoms: C_7  and  C_8
REMARK    4  A    between atoms: C_9  and  C_10
REMARK    5  A    between atoms: C_12  and  C_13
REMARK    6  A    between atoms: N_26  and  C_27
REMARK                            x       y       z     vdW  Elec       q    Type
REMARK                         _______ _______ _______ _____ _____    ______ ____
ROOT
ATOM      1  C   UNL     1       6.456   5.477  17.434  0.00  0.00    +0.000 A 
ATOM      2  C   UNL     1       5.951   4.978  18.632  0.00  0.00    +0.000 A 
ATOM      3  C   UNL     1       6.729   5.586  19.631  0.00  0.00    +0.000 A 
ATOM      4  N   UNL     1       7.508   6.555  19.147  0.00  0.00    +0.000 NA
ATOM      5  N   UNL     1       7.254   6.530  17.817  0.00  0.00    +0.000 N 
ATOM      6  C   UNL     1       7.880   7.530  16.984  0.00  0.00    +0.000 C 
ENDROOT
BRANCH   2   7
ATOM      7  C   UNL     1       4.891   3.996  18.856  0.00  0.00    +0.000 A 
ATOM      8  N   UNL     1       5.223   2.667  18.869  0.00  0.00    +0.000 NA
ATOM      9  C   UNL     1       4.102   2.000  19.021  0.00  0.00    +0.000 A 
ATOM     10  C   UNL     1       3.995   0.523  19.087  0.00  0.00    +0.000 C 
ATOM     11  N   UNL     1       3.040   2.868  19.117  0.00  0.00    +0.000 N 
ATOM     12  N   UNL     1       1.745   2.557  19.284  0.00  0.00    +0.000 NA
ATOM     13  C   UNL     1       0.976   3.599  19.359  0.00  0.00    +0.000 A 
ATOM     14  N   UNL     1       1.355   4.916  19.284  0.00  0.00    +0.000 NA
ATOM     15  C   UNL     1       2.608   5.235  19.111  0.00  0.00    +0.000 A 
ATOM     16  N   UNL     1       3.041   6.555  19.095  0.00  0.00    +0.000 N 
ATOM     17  C   UNL     1       2.133   7.606  19.456  0.00  0.00    +0.000 C 
ATOM     18  C   UNL     1       2.506   8.346  18.178  0.00  0.00    +0.000 C 
ATOM     19  C   UNL     1       3.368   7.149  17.824  0.00  0.00    +0.000 C 
ATOM     20  C   UNL     1       3.531   4.141  19.020  0.00  0.00    +0.000 A 
ENDBRANCH   2   7
BRANCH   1  24
ATOM     21  C   UNL     1       5.918   3.932  13.561  0.00  0.00    +0.000 A 
ATOM     22  C   UNL     1       7.166   4.414  13.927  0.00  0.00    +0.000 A 
ATOM     23  C   UNL     1       7.311   5.022  15.164  0.00  0.00    +0.000 A 
ATOM     24  C   UNL     1       6.249   5.030  16.061  0.00  0.00    +0.000 A 
ATOM     25  N   UNL     1       5.012   4.610  15.720  0.00  0.00    +0.000 NA
ATOM     26  C   UNL     1       4.872   4.087  14.468  0.00  0.00    +0.000 A 
BRANCH  21  28
ATOM     27  C   UNL     1       4.334   3.372  11.618  0.00  0.00    +0.000 C 
ATOM     28  C   UNL     1       5.696   3.275  12.262  0.00  0.00    +0.000 C 
ATOM     29  O   UNL     1       6.611   2.674  11.721  0.00  0.00    +0.000 OA
ENDBRANCH  21  28
ENDBRANCH   1  24
TORSDOF 3
ENDMDL
MODEL 3
REMARK VINA RESULT:      -6.6      3.242      7.063
REMARK  Name = 
REMARK  6 active torsions:
REMARK  status: ('A' for Active; 'I' for Inactive)
REMARK    1  A    between atoms: C_1  and  C_2
REMARK    2  A    between atoms: C_2  and  C_4
REMARK    3  A    between atoms: C_7  and  C_8
REMARK    4  A    between atoms: C_9  and  C_10
REMARK    5  A    between atoms: C_12  and  C_13
REMARK    6  A    between atoms: N_26  and  C_27
REMARK                            x       y       z     vdW  Elec       q    Type
REMARK                         _______ _______ _______ _____ _____    ______ ____
ROOT
ATOM      1  C   UNL     1      -1.452  13.650  21.286  0.00  0.00    +0.000 A 
ATOM      2  C   UNL     1      -2.466  12.725  21.051  0.00  0.00    +0.000 A 
ATOM      3  C   UNL     1      -2.791  12.217  22.320  0.00  0.00    +0.000 A 
ATOM      4  N   UNL     1      -2.209  12.905  23.305  0.00  0.00    +0.000 NA
ATOM      5  N   UNL     1      -1.470  13.831  22.650  0.00  0.00    +0.000 N 
ATOM      6  C   UNL     1      -0.765  14.819  23.433  0.00  0.00    +0.000 C 
ENDROOT
BRANCH   2   7
ATOM      7  C   UNL     1      -3.057  12.297  19.784  0.00  0.00    +0.000 A 
ATOM      8  N   UNL     1      -4.310  12.749  19.462  0.00  0.00    +0.000 NA
ATOM      9  C   UNL     1      -4.635  12.179  18.324  0.00  0.00    +0.000 A 
ATOM     10  C   UNL     1      -5.915  12.384  17.607  0.00  0.00    +0.000 C 
ATOM     11  N   UNL     1      -3.614  11.367  17.888  0.00  0.00    +0.000 N 
ATOM     12  N   UNL     1      -3.580  10.630  16.768  0.00  0.00    +0.000 NA
ATOM     13  C   UNL     1      -2.466   9.980  16.619  0.00  0.00    +0.000 A 
ATOM     14  N   UNL     1      -1.385   9.983  17.464  0.00  0.00    +0.000 NA
ATOM     15  C   UNL     1      -1.406  10.687  18.563  0.00  0.00    +0.000 A 
ATOM     16  N   UNL     1      -0.309  10.768  19.412  0.00  0.00    +0.000 N 
ATOM     17  C   UNL     1       0.951  10.221  18.999  0.00  0.00    +0.000 C 
ATOM     18  C   UNL     1       1.040   9.470  20.321  0.00  0.00    +0.000 C 
ATOM     19  C   UNL     1      -0.341  10.014  20.639  0.00  0.00    +0.000 C 
ATOM     20  C   UNL     1      -2.602  11.441  18.807  0.00  0.00    +0.000 A 
ENDBRANCH   2   7
BRANCH   1  24
ATOM     21  C   UNL     1       1.286  15.685  18.829  0.00  0.00    +0.000 A 
ATOM     22  C   UNL     1      -0.014  16.159  18.927  0.00  0.00    +0.000 A 
ATOM     23  C   UNL     1      -0.941  15.424  19.649  0.00  0.00    +0.000 A 
ATOM     24  C   UNL     1      -0.533  14.302  20.360  0.00  0.00    +0.000 A 
ATOM     25  N   UNL     1       0.712  13.790  20.251  0.00  0.00    +0.000 NA
ATOM     26  C   UNL     1       1.588  14.486  19.471  0.00  0.00    +0.000 A 
BRANCH  21  28
ATOM     27  C   UNL     1       3.447  15.642  17.442  0.00  0.00    +0.000 C 
ATOM     28  C   UNL     1       2.319  16.417  18.078  0.00  0.00    +0.000 C 
ATOM     29  O   UNL     1       2.247  17.632  17.971  0.00  0.00    +0.000 OA
ENDBRANCH  21  28
ENDBRANCH   1  24
TORSDOF 3
ENDMDL
MODEL 4
REMARK VINA RESULT:      -6.5      3.672      7.676
REMARK  Name = 
REMARK  6 active torsions:
REMARK  status: ('A' for Active; 'I' for Inactive)
REMARK    1  A    between atoms: C_1  and  C_2
REMARK    2  A    between atoms: C_2  and  C_4
REMARK    3  A    between atoms: C_7  and  C_8
REMARK    4  A    between atoms: C_9  and  C_10
REMARK    5  A    between atoms: C_12  and  C_13
REMARK    6  A    between atoms: N_26  and  C_27
REMARK                            x       y       z     vdW  Elec       q    Type
REMARK                         _______ _______ _______ _____ _____    ______ ____
ROOT
ATOM      1  C   UNL     1      -1.745  14.114  21.328  0.00  0.00    +0.000 A 
ATOM      2  C   UNL     1      -2.598  13.021  21.198  0.00  0.00    +0.000 A 
ATOM      3  C   UNL     1      -2.549  12.376  22.445  0.00  0.00    +0.000 A 
ATOM      4  N   UNL     1      -1.909  13.101  23.365  0.00  0.00    +0.000 NA
ATOM      5  N   UNL     1      -1.508  14.198  22.681  0.00  0.00    +0.000 N 
ATOM      6  C   UNL     1      -0.847  15.254  23.412  0.00  0.00    +0.000 C 
ENDROOT
BRANCH   2   7
ATOM      7  C   UNL     1      -3.354  12.567  20.032  0.00  0.00    +0.000 A 
ATOM      8  N   UNL     1      -4.663  12.953  19.911  0.00  0.00    +0.000 NA
ATOM      9  C   UNL     1      -5.130  12.371  18.830  0.00  0.00    +0.000 A 
ATOM     10  C   UNL     1      -6.514  12.511  18.320  0.00  0.00    +0.000 C 
ATOM     11  N   UNL     1      -4.147  11.616  18.233  0.00  0.00    +0.000 N 
ATOM     12  N   UNL     1      -4.248  10.886  17.112  0.00  0.00    +0.000 NA
ATOM     13  C   UNL     1      -3.139  10.296  16.786  0.00  0.00    +0.000 A 
ATOM     14  N   UNL     1      -1.942  10.354  17.456  0.00  0.00    +0.000 NA
ATOM     15  C   UNL     1      -1.830  11.051  18.553  0.00  0.00    +0.000 A 
ATOM     16  N   UNL     1      -0.621  11.187  19.224  0.00  0.00    +0.000 N 
ATOM     17  C   UNL     1       0.587  10.709  18.617  0.00  0.00    +0.000 C 
ATOM     18  C   UNL     1       0.917   9.959  19.901  0.00  0.00    +0.000 C 
ATOM     19  C   UNL     1      -0.425  10.428  20.432  0.00  0.00    +0.000 C 
ATOM     20  C   UNL     1      -3.011  11.740  18.986  0.00  0.00    +0.000 A 
ENDBRANCH   2   7
BRANCH   1  24
ATOM     21  C   UNL     1       0.047  16.774  18.609  0.00  0.00    +0.000 A 
ATOM     22  C   UNL     1      -1.141  17.139  19.226  0.00  0.00    +0.000 A 
ATOM     23  C   UNL     1      -1.784  16.216  20.036  0.00  0.00    +0.000 A 
ATOM     24  C   UNL     1      -1.177  14.997  20.315  0.00  0.00    +0.000 A 
ATOM     25  N   UNL     1      -0.046  14.595  19.698  0.00  0.00    +0.000 NA
ATOM     26  C   UNL     1       0.530  15.489  18.843  0.00  0.00    +0.000 A 
BRANCH  21  28
ATOM     27  C   UNL     1       0.024  18.457  16.670  0.00  0.00    +0.000 C 
ATOM     28  C   UNL     1       0.781  17.706  17.738  0.00  0.00    +0.000 C 
ATOM     29  O   UNL     1       1.982  17.868  17.894  0.00  0.00    +0.000 OA
ENDBRANCH  21  28
ENDBRANCH   1  24
TORSDOF 3
ENDMDL
MODEL 5
REMARK VINA RESULT:      -6.5      2.348      5.097
REMARK  Name = 
REMARK  6 active torsions:
REMARK  status: ('A' for Active; 'I' for Inactive)
REMARK    1  A    between atoms: C_1  and  C_2
REMARK    2  A    between atoms: C_2  and  C_4
REMARK    3  A    between atoms: C_7  and  C_8
REMARK    4  A    between atoms: C_9  and  C_10
REMARK    5  A    between atoms: C_12  and  C_13
REMARK    6  A    between atoms: N_26  and  C_27
REMARK                            x       y       z     vdW  Elec       q    Type
REMARK                         _______ _______ _______ _____ _____    ______ ____
ROOT
ATOM      1  C   UNL     1       0.378  12.047  19.128  0.00  0.00    +0.000 A 
ATOM      2  C   UNL     1      -0.844  12.612  18.774  0.00  0.00    +0.000 A 
ATOM      3  C   UNL     1      -0.755  13.950  19.190  0.00  0.00    +0.000 A 
ATOM      4  N   UNL     1       0.481  14.283  19.568  0.00  0.00    +0.000 NA
ATOM      5  N   UNL     1       1.173  13.127  19.434  0.00  0.00    +0.000 N 
ATOM      6  C   UNL     1       2.596  13.151  19.682  0.00  0.00    +0.000 C 
ENDROOT
BRANCH   2   7
ATOM      7  C   UNL     1      -2.013  11.985  18.158  0.00  0.00    +0.000 A 
ATOM      8  N   UNL     1      -1.889  11.468  16.895  0.00  0.00    +0.000 NA
ATOM      9  C   UNL     1      -3.077  11.028  16.550  0.00  0.00    +0.000 A 
ATOM     10  C   UNL     1      -3.402  10.389  15.253  0.00  0.00    +0.000 C 
ATOM     11  N   UNL     1      -3.978  11.237  17.568  0.00  0.00    +0.000 N 
ATOM     12  N   UNL     1      -5.280  10.915  17.583  0.00  0.00    +0.000 NA
ATOM     13  C   UNL     1      -5.869  11.224  18.698  0.00  0.00    +0.000 A 
ATOM     14  N   UNL     1      -5.302  11.819  19.797  0.00  0.00    +0.000 NA
ATOM     15  C   UNL     1      -4.040  12.148  19.795  0.00  0.00    +0.000 A 
ATOM     16  N   UNL     1      -3.414  12.692  20.909  0.00  0.00    +0.000 N 
ATOM     17  C   UNL     1      -4.107  12.734  22.164  0.00  0.00    +0.000 C 
ATOM     18  C   UNL     1      -3.761  14.212  22.288  0.00  0.00    +0.000 C 
ATOM     19  C   UNL     1      -3.133  14.105  20.910  0.00  0.00    +0.000 C 
ATOM     20  C   UNL     1      -3.310  11.840  18.599  0.00  0.00    +0.000 A 
ENDBRANCH   2   7
BRANCH   1  24
ATOM     21  C   UNL     1       1.814   8.105  19.413  0.00  0.00    +0.000 A 
ATOM     22  C   UNL     1       1.864   8.754  18.188  0.00  0.00    +0.000 A 
ATOM     23  C   UNL     1       1.290  10.011  18.073  0.00  0.00    +0.000 A 
ATOM     24  C   UNL     1       0.789  10.648  19.202  0.00  0.00    +0.000 A 
ATOM     25  N   UNL     1       0.685  10.028  20.397  0.00  0.00    +0.000 NA
ATOM     26  C   UNL     1       1.185   8.762  20.468  0.00  0.00    +0.000 A 
BRANCH  21  28
ATOM     27  C   UNL     1       1.774   5.826  20.597  0.00  0.00    +0.000 C 
ATOM     28  C   UNL     1       2.405   6.770  19.603  0.00  0.00    +0.000 C 
ATOM     29  O   UNL     1       3.384   6.440  18.951  0.00  0.00    +0.000 OA
ENDBRANCH  21  28
ENDBRANCH   1  24
TORSDOF 3
ENDMDL
MODEL 6
REMARK VINA RESULT:      -6.5      5.871      8.060
REMARK  Name = 
REMARK  6 active torsions:
REMARK  status: ('A' for Active; 'I' for Inactive)
REMARK    1  A    between atoms: C_1  and  C_2
REMARK    2  A    between atoms: C_2  and  C_4
REMARK    3  A    between atoms: C_7  and  C_8
REMARK    4  A    between atoms: C_9  and  C_10
REMARK    5  A    between atoms: C_12  and  C_13
REMARK    6  A    between atoms: N_26  and  C_27
REMARK                            x       y       z     vdW  Elec       q    Type
REMARK                         _______ _______ _______ _____ _____    ______ ____
ROOT
ATOM      1  C   UNL     1       9.789  13.303  19.457  0.00  0.00    +0.000 A 
ATOM      2  C   UNL     1       9.441  13.977  20.625  0.00  0.00    +0.000 A 
ATOM      3  C   UNL     1      10.340  15.054  20.699  0.00  0.00    +0.000 A 
ATOM      4  N   UNL     1      11.050  15.201  19.579  0.00  0.00    +0.000 NA
ATOM      5  N   UNL     1      10.628  14.174  18.802  0.00  0.00    +0.000 N 
ATOM      6  C   UNL     1      11.140  14.084  17.455  0.00  0.00    +0.000 C 
ENDROOT
BRANCH   2   7
ATOM      7  C   UNL     1       8.420  13.648  21.618  0.00  0.00    +0.000 A 
ATOM      8  N   UNL     1       8.659  12.615  22.485  0.00  0.00    +0.000 NA
ATOM      9  C   UNL     1       7.580  12.482  23.221  0.00  0.00    +0.000 A 
ATOM     10  C   UNL     1       7.402  11.475  24.293  0.00  0.00    +0.000 C 
ATOM     11  N   UNL     1       6.638  13.416  22.859  0.00  0.00    +0.000 N 
ATOM     12  N   UNL     1       5.418  13.592  23.389  0.00  0.00    +0.000 NA
ATOM     13  C   UNL     1       4.763  14.573  22.848  0.00  0.00    +0.000 A 
ATOM     14  N   UNL     1       5.190  15.396  21.837  0.00  0.00    +0.000 NA
ATOM     15  C   UNL     1       6.370  15.232  21.303  0.00  0.00    +0.000 A 
ATOM     16  N   UNL     1       6.864  16.084  20.323  0.00  0.00    +0.000 N 
ATOM     17  C   UNL     1       6.153  17.288  20.003  0.00  0.00    +0.000 C 
ATOM     18  C   UNL     1       6.218  16.914  18.528  0.00  0.00    +0.000 C 
ATOM     19  C   UNL     1       6.878  15.618  18.960  0.00  0.00    +0.000 C 
ATOM     20  C   UNL     1       7.165  14.169  21.844  0.00  0.00    +0.000 A 
ENDBRANCH   2   7
BRANCH   1  24
ATOM     21  C   UNL     1       8.465   9.503  18.240  0.00  0.00    +0.000 A 
ATOM     22  C   UNL     1       9.308   9.604  19.337  0.00  0.00    +0.000 A 
ATOM     23  C   UNL     1       9.830  10.845  19.667  0.00  0.00    +0.000 A 
ATOM     24  C   UNL     1       9.409  11.978  18.981  0.00  0.00    +0.000 A 
ATOM     25  N   UNL     1       8.625  11.909  17.883  0.00  0.00    +0.000 NA
ATOM     26  C   UNL     1       8.187  10.667  17.528  0.00  0.00    +0.000 A 
BRANCH  21  28
ATOM     27  C   UNL     1       8.176   6.985  18.657  0.00  0.00    +0.000 C 
ATOM     28  C   UNL     1       7.877   8.215  17.835  0.00  0.00    +0.000 C 
ATOM     29  O   UNL     1       7.150   8.160  16.855  0.00  0.00    +0.000 OA
ENDBRANCH  21  28
ENDBRANCH   1  24
TORSDOF 3
ENDMDL
MODEL 7
REMARK VINA RESULT:      -6.4      4.009      7.816
REMARK  Name = 
REMARK  6 active torsions:
REMARK  status: ('A' for Active; 'I' for Inactive)
REMARK    1  A    between atoms: C_1  and  C_2
REMARK    2  A    between atoms: C_2  and  C_4
REMARK    3  A    between atoms: C_7  and  C_8
REMARK    4  A    between atoms: C_9  and  C_10
REMARK    5  A    between atoms: C_12  and  C_13
REMARK    6  A    between atoms: N_26  and  C_27
REMARK                            x       y       z     vdW  Elec       q    Type
REMARK                         _______ _______ _______ _____ _____    ______ ____
ROOT
ATOM      1  C   UNL     1      -1.884  14.057  21.433  0.00  0.00    +0.000 A 
ATOM      2  C   UNL     1      -2.650  12.919  21.190  0.00  0.00    +0.000 A 
ATOM      3  C   UNL     1      -2.548  12.159  22.366  0.00  0.00    +0.000 A 
ATOM      4  N   UNL     1      -1.965  12.836  23.358  0.00  0.00    +0.000 NA
ATOM      5  N   UNL     1      -1.653  14.024  22.789  0.00  0.00    +0.000 N 
ATOM      6  C   UNL     1      -1.076  15.050  23.625  0.00  0.00    +0.000 C 
ENDROOT
BRANCH   2   7
ATOM      7  C   UNL     1      -3.370  12.526  19.979  0.00  0.00    +0.000 A 
ATOM      8  N   UNL     1      -4.676  12.915  19.841  0.00  0.00    +0.000 NA
ATOM      9  C   UNL     1      -5.109  12.390  18.718  0.00  0.00    +0.000 A 
ATOM     10  C   UNL     1      -6.478  12.554  18.175  0.00  0.00    +0.000 C 
ATOM     11  N   UNL     1      -4.107  11.670  18.111  0.00  0.00    +0.000 N 
ATOM     12  N   UNL     1      -4.172  11.000  16.950  0.00  0.00    +0.000 NA
ATOM     13  C   UNL     1      -3.052  10.430  16.627  0.00  0.00    +0.000 A 
ATOM     14  N   UNL     1      -1.876  10.454  17.333  0.00  0.00    +0.000 NA
ATOM     15  C   UNL     1      -1.798  11.093  18.468  0.00  0.00    +0.000 A 
ATOM     16  N   UNL     1      -0.610  11.196  19.181  0.00  0.00    +0.000 N 
ATOM     17  C   UNL     1       0.618  10.752  18.585  0.00  0.00    +0.000 C 
ATOM     18  C   UNL     1       0.912   9.937  19.837  0.00  0.00    +0.000 C 
ATOM     19  C   UNL     1      -0.446  10.374  20.353  0.00  0.00    +0.000 C 
ATOM     20  C   UNL     1      -2.993  11.755  18.902  0.00  0.00    +0.000 A 
ENDBRANCH   2   7
BRANCH   1  24
ATOM     21  C   UNL     1      -0.646  16.913  18.608  0.00  0.00    +0.000 A 
ATOM     22  C   UNL     1      -0.006  15.684  18.647  0.00  0.00    +0.000 A 
ATOM     23  C   UNL     1      -0.342  14.788  19.650  0.00  0.00    +0.000 A 
ATOM     24  C   UNL     1      -1.390  15.079  20.516  0.00  0.00    +0.000 A 
ATOM     25  N   UNL     1      -2.002  16.282  20.532  0.00  0.00    +0.000 NA
ATOM     26  C   UNL     1      -1.601  17.179  19.586  0.00  0.00    +0.000 A 
BRANCH  21  28
ATOM     27  C   UNL     1       1.087  18.047  17.089  0.00  0.00    +0.000 C 
ATOM     28  C   UNL     1      -0.337  17.910  17.568  0.00  0.00    +0.000 C 
ATOM     29  O   UNL     1      -1.231  18.600  17.102  0.00  0.00    +0.000 OA
ENDBRANCH  21  28
ENDBRANCH   1  24
TORSDOF 3
ENDMDL
MODEL 8
REMARK VINA RESULT:      -6.3      4.840      8.208
REMARK  Name = 
REMARK  6 active torsions:
REMARK  status: ('A' for Active; 'I' for Inactive)
REMARK    1  A    between atoms: C_1  and  C_2
REMARK    2  A    between atoms: C_2  and  C_4
REMARK    3  A    between atoms: C_7  and  C_8
REMARK    4  A    between atoms: C_9  and  C_10
REMARK    5  A    between atoms: C_12  and  C_13
REMARK    6  A    between atoms: N_26  and  C_27
REMARK                            x       y       z     vdW  Elec       q    Type
REMARK                         _______ _______ _______ _____ _____    ______ ____
ROOT
ATOM      1  C   UNL     1      -4.632  13.523  22.740  0.00  0.00    +0.000 A 
ATOM      2  C   UNL     1      -5.904  13.452  22.177  0.00  0.00    +0.000 A 
ATOM      3  C   UNL     1      -6.737  14.127  23.083  0.00  0.00    +0.000 A 
ATOM      4  N   UNL     1      -6.045  14.771  24.025  0.00  0.00    +0.000 NA
ATOM      5  N   UNL     1      -4.758  14.461  23.738  0.00  0.00    +0.000 N 
ATOM      6  C   UNL     1      -3.716  15.077  24.527  0.00  0.00    +0.000 C 
ENDROOT
BRANCH   2   7
ATOM      7  C   UNL     1      -6.340  12.785  20.950  0.00  0.00    +0.000 A 
ATOM      8  N   UNL     1      -6.529  11.428  20.975  0.00  0.00    +0.000 NA
ATOM      9  C   UNL     1      -6.852  11.070  19.754  0.00  0.00    +0.000 A 
ATOM     10  C   UNL     1      -7.143   9.682  19.325  0.00  0.00    +0.000 C 
ATOM     11  N   UNL     1      -6.887  12.170  18.928  0.00  0.00    +0.000 N 
ATOM     12  N   UNL     1      -7.184  12.197  17.620  0.00  0.00    +0.000 NA
ATOM     13  C   UNL     1      -7.153  13.393  17.115  0.00  0.00    +0.000 A 
ATOM     14  N   UNL     1      -6.858  14.561  17.771  0.00  0.00    +0.000 NA
ATOM     15  C   UNL     1      -6.558  14.551  19.041  0.00  0.00    +0.000 A 
ATOM     16  N   UNL     1      -6.317  15.718  19.755  0.00  0.00    +0.000 N 
ATOM     17  C   UNL     1      -6.577  16.990  19.146  0.00  0.00    +0.000 C 
ATOM     18  C   UNL     1      -5.182  17.450  19.548  0.00  0.00    +0.000 C 
ATOM     19  C   UNL     1      -4.953  16.047  20.080  0.00  0.00    +0.000 C 
ATOM     20  C   UNL     1      -6.570  13.267  19.681  0.00  0.00    +0.000 A 
ENDBRANCH   2   7
BRANCH   1  24
ATOM     21  C   UNL     1      -0.969  11.637  21.906  0.00  0.00    +0.000 A 
ATOM     22  C   UNL     1      -1.567  12.412  20.923  0.00  0.00    +0.000 A 
ATOM     23  C   UNL     1      -2.825  12.941  21.163  0.00  0.00    +0.000 A 
ATOM     24  C   UNL     1      -3.411  12.794  22.415  0.00  0.00    +0.000 A 
ATOM     25  N   UNL     1      -2.876  12.011  23.376  0.00  0.00    +0.000 NA
ATOM     26  C   UNL     1      -1.674  11.435  23.090  0.00  0.00    +0.000 A 
BRANCH  21  28
ATOM     27  C   UNL     1       1.215  11.516  20.559  0.00  0.00    +0.000 C 
ATOM     28  C   UNL     1       0.366  11.046  21.715  0.00  0.00    +0.000 C 
ATOM     29  O   UNL     1       0.773  10.198  22.495  0.00  0.00    +0.000 OA
ENDBRANCH  21  28
ENDBRANCH   1  24
TORSDOF 3
ENDMDL
MODEL 9
REMARK VINA RESULT:      -6.2      4.657      7.805
REMARK  Name = 
REMARK  6 active torsions:
REMARK  status: ('A' for Active; 'I' for Inactive)
REMARK    1  A    between atoms: C_1  and  C_2
REMARK    2  A    between atoms: C_2  and  C_4
REMARK    3  A    between atoms: C_7  and  C_8
REMARK    4  A    between atoms: C_9  and  C_10
REMARK    5  A    between atoms: C_12  and  C_13
REMARK    6  A    between atoms: N_26  and  C_27
REMARK                            x       y       z     vdW  Elec       q    Type
REMARK                         _______ _______ _______ _____ _____    ______ ____
ROOT
ATOM      1  C   UNL     1      -1.678  14.041  21.230  0.00  0.00    +0.000 A 
ATOM      2  C   UNL     1      -2.408  12.868  21.060  0.00  0.00    +0.000 A 
ATOM      3  C   UNL     1      -2.377  12.240  22.316  0.00  0.00    +0.000 A 
ATOM      4  N   UNL     1      -1.874  13.031  23.266  0.00  0.00    +0.000 NA
ATOM      5  N   UNL     1      -1.541  14.158  22.594  0.00  0.00    +0.000 N 
ATOM      6  C   UNL     1      -1.038  15.280  23.352  0.00  0.00    +0.000 C 
ENDROOT
BRANCH   2   7
ATOM      7  C   UNL     1      -3.037  12.332  19.853  0.00  0.00    +0.000 A 
ATOM      8  N   UNL     1      -2.230  11.888  18.839  0.00  0.00    +0.000 NA
ATOM      9  C   UNL     1      -3.024  11.522  17.859  0.00  0.00    +0.000 A 
ATOM     10  C   UNL     1      -2.572  10.978  16.557  0.00  0.00    +0.000 C 
ATOM     11  N   UNL     1      -4.340  11.709  18.215  0.00  0.00    +0.000 N 
ATOM     12  N   UNL     1      -5.429  11.444  17.480  0.00  0.00    +0.000 NA
ATOM     13  C   UNL     1      -6.539  11.711  18.098  0.00  0.00    +0.000 A 
ATOM     14  N   UNL     1      -6.681  12.212  19.367  0.00  0.00    +0.000 NA
ATOM     15  C   UNL     1      -5.631  12.484  20.092  0.00  0.00    +0.000 A 
ATOM     16  N   UNL     1      -5.732  12.932  21.404  0.00  0.00    +0.000 N 
ATOM     17  C   UNL     1      -7.008  12.929  22.060  0.00  0.00    +0.000 C 
ATOM     18  C   UNL     1      -6.785  14.380  22.465  0.00  0.00    +0.000 C 
ATOM     19  C   UNL     1      -5.496  14.328  21.666  0.00  0.00    +0.000 C 
ATOM     20  C   UNL     1      -4.359  12.218  19.486  0.00  0.00    +0.000 A 
ENDBRANCH   2   7
BRANCH   1  24
ATOM     21  C   UNL     1       0.034  16.832  18.593  0.00  0.00    +0.000 A 
ATOM     22  C   UNL     1      -1.172  17.136  19.206  0.00  0.00    +0.000 A 
ATOM     23  C   UNL     1      -1.787  16.170  19.987  0.00  0.00    +0.000 A 
ATOM     24  C   UNL     1      -1.136  14.970  20.244  0.00  0.00    +0.000 A 
ATOM     25  N   UNL     1       0.017  14.626  19.630  0.00  0.00    +0.000 NA
ATOM     26  C   UNL     1       0.565  15.561  18.802  0.00  0.00    +0.000 A 
BRANCH  21  28
ATOM     27  C   UNL     1      -0.031  18.544  16.680  0.00  0.00    +0.000 C 
ATOM     28  C   UNL     1       0.740  17.813  17.752  0.00  0.00    +0.000 C 
ATOM     29  O   UNL     1       1.928  18.029  17.936  0.00  0.00    +0.000 OA
ENDBRANCH  21  28
ENDBRANCH   1  24
TORSDOF 3
ENDMDL
