MODEL 1
REMARK VINA RESULT:      -7.1      0.000      0.000
REMARK  Name = 
REMARK  7 active torsions:
REMARK  status: ('A' for Active; 'I' for Inactive)
REMARK    1  A    between atoms: C_1  and  C_2
REMARK    2  A    between atoms: C_2  and  C_3
REMARK    3  A    between atoms: C_3  and  C_4
REMARK    4  A    between atoms: C_3  and  C_20
REMARK    5  A    between atoms: N_6  and  C_7
REMARK    6  A    between atoms: C_8  and  C_9
REMARK    7  A    between atoms: C_18  and  C_19
REMARK                            x       y       z     vdW  Elec       q    Type
REMARK                         _______ _______ _______ _____ _____    ______ ____
ROOT
ATOM      1  C   UNL     1       2.789   4.427  17.734  0.00  0.00    +0.000 C 
ATOM      2  O   UNL     1       1.596   4.374  17.415  0.00  0.00    +0.000 OA
ATOM      3  N   UNL     1       3.303   5.355  18.631  0.00  0.00    +0.000 N 
ATOM      4  H   UNL     1       4.271   5.611  18.476  0.00  0.00    +0.000 HD
ENDROOT
BRANCH   3   5
ATOM      5  C   UNL     1       2.483   6.347  19.227  0.00  0.00    +0.000 A 
ATOM      6  C   UNL     1       1.786   6.158  20.413  0.00  0.00    +0.000 A 
ATOM      7  C   UNL     1       1.915   4.922  21.253  0.00  0.00    +0.000 C 
ATOM      8  N   UNL     1       1.004   7.126  20.958  0.00  0.00    +0.000 NA
ATOM      9  C   UNL     1       0.930   8.314  20.345  0.00  0.00    +0.000 A 
ATOM     10  N   UNL     1       0.140   9.305  20.888  0.00  0.00    +0.000 N 
ATOM     11  C   UNL     1       0.440  10.691  20.558  0.00  0.00    +0.000 C 
ATOM     12  C   UNL     1       0.467  11.389  21.914  0.00  0.00    +0.000 C 
ATOM     13  C   UNL     1      -0.538  10.595  22.733  0.00  0.00    +0.000 C 
ATOM     14  C   UNL     1      -0.319   9.157  22.262  0.00  0.00    +0.000 C 
ATOM     15  N   UNL     1       1.608   8.585  19.221  0.00  0.00    +0.000 NA
ATOM     16  C   UNL     1       2.376   7.617  18.676  0.00  0.00    +0.000 A 
ATOM     17  C   UNL     1       3.055   8.006  17.395  0.00  0.00    +0.000 C 
ENDBRANCH   3   5
BRANCH   1  18
ATOM     18  C   UNL     1       3.790   3.402  17.166  0.00  0.00    +0.000 C 
BRANCH  18  19
ATOM     19  C   UNL     1       5.021   4.061  16.526  0.00  0.00    +0.000 A 
ATOM     20  C   UNL     1       5.081   4.394  15.163  0.00  0.00    +0.000 A 
ATOM     21  C   UNL     1       6.260   4.873  14.592  0.00  0.00    +0.000 A 
ATOM     22  C   UNL     1       7.400   5.032  15.370  0.00  0.00    +0.000 A 
ATOM     23  C   UNL     1       7.351   4.753  16.734  0.00  0.00    +0.000 A 
ATOM     24  C   UNL     1       6.165   4.299  17.314  0.00  0.00    +0.000 A 
ENDBRANCH  18  19
BRANCH  18  26
ATOM     25  C   UNL     1       2.992   1.457  18.688  0.00  0.00    +0.000 C 
ATOM     26  C   UNL     1       4.137   2.370  18.264  0.00  0.00    +0.000 C 
ENDBRANCH  18  26
ENDBRANCH   1  18
TORSDOF 4
ENDMDL
MODEL 2
REMARK VINA RESULT:      -6.8      0.992      2.333
REMARK  Name = 
REMARK  7 active torsions:
REMARK  status: ('A' for Active; 'I' for Inactive)
REMARK    1  A    between atoms: C_1  and  C_2
REMARK    2  A    between atoms: C_2  and  C_3
REMARK    3  A    between atoms: C_3  and  C_4
REMARK    4  A    between atoms: C_3  and  C_20
REMARK    5  A    between atoms: N_6  and  C_7
REMARK    6  A    between atoms: C_8  and  C_9
REMARK    7  A    between atoms: C_18  and  C_19
REMARK                            x       y       z     vdW  Elec       q    Type
REMARK                         _______ _______ _______ _____ _____    ______ ____
ROOT
ATOM      1  C   UNL     1       3.651   5.053  18.383  0.00  0.00    +0.000 C 
ATOM      2  O   UNL     1       4.516   5.363  19.211  0.00  0.00    +0.000 OA
ATOM      3  N   UNL     1       2.419   5.688  18.286  0.00  0.00    +0.000 N 
ATOM      4  H   UNL     1       1.664   5.108  17.940  0.00  0.00    +0.000 HD
ENDROOT
BRANCH   3   5
ATOM      5  C   UNL     1       2.049   6.733  19.171  0.00  0.00    +0.000 A 
ATOM      6  C   UNL     1       2.023   8.073  18.809  0.00  0.00    +0.000 A 
ATOM      7  C   UNL     1       2.274   8.551  17.410  0.00  0.00    +0.000 C 
ATOM      8  N   UNL     1       1.668   9.053  19.681  0.00  0.00    +0.000 NA
ATOM      9  C   UNL     1       1.300   8.709  20.921  0.00  0.00    +0.000 A 
ATOM     10  N   UNL     1       0.937   9.693  21.815  0.00  0.00    +0.000 N 
ATOM     11  C   UNL     1       0.076   9.335  22.932  0.00  0.00    +0.000 C 
ATOM     12  C   UNL     1      -1.025  10.391  22.896  0.00  0.00    +0.000 C 
ATOM     13  C   UNL     1      -0.312  11.614  22.342  0.00  0.00    +0.000 C 
ATOM     14  C   UNL     1       0.644  11.026  21.305  0.00  0.00    +0.000 C 
ATOM     15  N   UNL     1       1.259   7.433  21.330  0.00  0.00    +0.000 NA
ATOM     16  C   UNL     1       1.622   6.461  20.465  0.00  0.00    +0.000 A 
ATOM     17  C   UNL     1       1.587   5.073  21.033  0.00  0.00    +0.000 C 
ENDBRANCH   3   5
BRANCH   1  18
ATOM     18  C   UNL     1       3.926   3.938  17.355  0.00  0.00    +0.000 C 
BRANCH  18  19
ATOM     19  C   UNL     1       5.168   4.213  16.494  0.00  0.00    +0.000 A 
ATOM     20  C   UNL     1       6.413   4.553  17.047  0.00  0.00    +0.000 A 
ATOM     21  C   UNL     1       7.484   4.920  16.231  0.00  0.00    +0.000 A 
ATOM     22  C   UNL     1       7.333   4.952  14.850  0.00  0.00    +0.000 A 
ATOM     23  C   UNL     1       6.122   4.573  14.278  0.00  0.00    +0.000 A 
ATOM     24  C   UNL     1       5.056   4.180  15.090  0.00  0.00    +0.000 A 
ENDBRANCH  18  19
BRANCH  18  26
ATOM     25  C   UNL     1       2.651   2.141  18.726  0.00  0.00    +0.000 C 
ATOM     26  C   UNL     1       3.964   2.575  18.084  0.00  0.00    +0.000 C 
ENDBRANCH  18  26
ENDBRANCH   1  18
TORSDOF 4
ENDMDL
MODEL 3
REMARK VINA RESULT:      -6.8      2.913      9.117
REMARK  Name = 
REMARK  7 active torsions:
REMARK  status: ('A' for Active; 'I' for Inactive)
REMARK    1  A    between atoms: C_1  and  C_2
REMARK    2  A    between atoms: C_2  and  C_3
REMARK    3  A    between atoms: C_3  and  C_4
REMARK    4  A    between atoms: C_3  and  C_20
REMARK    5  A    between atoms: N_6  and  C_7
REMARK    6  A    between atoms: C_8  and  C_9
REMARK    7  A    between atoms: C_18  and  C_19
REMARK                            x       y       z     vdW  Elec       q    Type
REMARK                         _______ _______ _______ _____ _____    ______ ____
ROOT
ATOM      1  C   UNL     1      -0.905  10.993  19.469  0.00  0.00    +0.000 C 
ATOM      2  O   UNL     1      -1.570  10.124  18.894  0.00  0.00    +0.000 OA
ATOM      3  N   UNL     1       0.333  10.752  20.050  0.00  0.00    +0.000 N 
ATOM      4  H   UNL     1       0.559  11.345  20.841  0.00  0.00    +0.000 HD
ENDROOT
BRANCH   3   5
ATOM      5  C   UNL     1       0.914   9.458  20.054  0.00  0.00    +0.000 A 
ATOM      6  C   UNL     1       0.727   8.535  21.075  0.00  0.00    +0.000 A 
ATOM      7  C   UNL     1      -0.200   8.764  22.231  0.00  0.00    +0.000 C 
ATOM      8  N   UNL     1       1.300   7.303  21.054  0.00  0.00    +0.000 NA
ATOM      9  C   UNL     1       2.043   6.957  19.994  0.00  0.00    +0.000 A 
ATOM     10  N   UNL     1       2.630   5.711  19.960  0.00  0.00    +0.000 N 
ATOM     11  C   UNL     1       2.980   5.143  18.666  0.00  0.00    +0.000 C 
ATOM     12  C   UNL     1       2.391   3.736  18.715  0.00  0.00    +0.000 C 
ATOM     13  C   UNL     1       2.479   3.375  20.189  0.00  0.00    +0.000 C 
ATOM     14  C   UNL     1       2.166   4.695  20.895  0.00  0.00    +0.000 C 
ATOM     15  N   UNL     1       2.232   7.779  18.952  0.00  0.00    +0.000 NA
ATOM     16  C   UNL     1       1.670   9.006  18.981  0.00  0.00    +0.000 A 
ATOM     17  C   UNL     1       1.981   9.864  17.790  0.00  0.00    +0.000 C 
ENDBRANCH   3   5
BRANCH   1  18
ATOM     18  C   UNL     1      -1.415  12.446  19.531  0.00  0.00    +0.000 C 
BRANCH  18  19
ATOM     19  C   UNL     1      -2.414  12.680  20.675  0.00  0.00    +0.000 A 
ATOM     20  C   UNL     1      -2.068  12.522  22.027  0.00  0.00    +0.000 A 
ATOM     21  C   UNL     1      -3.033  12.617  23.030  0.00  0.00    +0.000 A 
ATOM     22  C   UNL     1      -4.359  12.875  22.703  0.00  0.00    +0.000 A 
ATOM     23  C   UNL     1      -4.715  13.082  21.374  0.00  0.00    +0.000 A 
ATOM     24  C   UNL     1      -3.748  13.014  20.370  0.00  0.00    +0.000 A 
ENDBRANCH  18  19
BRANCH  18  26
ATOM     25  C   UNL     1      -0.532  14.877  19.321  0.00  0.00    +0.000 C 
ATOM     26  C   UNL     1      -0.204  13.408  19.556  0.00  0.00    +0.000 C 
ENDBRANCH  18  26
ENDBRANCH   1  18
TORSDOF 4
ENDMDL
MODEL 4
REMARK VINA RESULT:      -6.7      1.294      1.741
REMARK  Name = 
REMARK  7 active torsions:
REMARK  status: ('A' for Active; 'I' for Inactive)
REMARK    1  A    between atoms: C_1  and  C_2
REMARK    2  A    between atoms: C_2  and  C_3
REMARK    3  A    between atoms: C_3  and  C_4
REMARK    4  A    between atoms: C_3  and  C_20
REMARK    5  A    between atoms: N_6  and  C_7
REMARK    6  A    between atoms: C_8  and  C_9
REMARK    7  A    between atoms: C_18  and  C_19
REMARK                            x       y       z     vdW  Elec       q    Type
REMARK                         _______ _______ _______ _____ _____    ______ ____
ROOT
ATOM      1  C   UNL     1       2.919   5.462  17.847  0.00  0.00    +0.000 C 
ATOM      2  O   UNL     1       1.748   5.094  17.702  0.00  0.00    +0.000 OA
ATOM      3  N   UNL     1       3.292   6.537  18.644  0.00  0.00    +0.000 N 
ATOM      4  H   UNL     1       4.134   7.018  18.349  0.00  0.00    +0.000 HD
ENDROOT
BRANCH   3   5
ATOM      5  C   UNL     1       2.331   7.323  19.331  0.00  0.00    +0.000 A 
ATOM      6  C   UNL     1       1.765   6.957  20.544  0.00  0.00    +0.000 A 
ATOM      7  C   UNL     1       2.191   5.745  21.318  0.00  0.00    +0.000 C 
ATOM      8  N   UNL     1       0.843   7.729  21.177  0.00  0.00    +0.000 NA
ATOM      9  C   UNL     1       0.494   8.898  20.625  0.00  0.00    +0.000 A 
ATOM     10  N   UNL     1      -0.440   9.691  21.256  0.00  0.00    +0.000 N 
ATOM     11  C   UNL     1      -0.444  11.119  20.974  0.00  0.00    +0.000 C 
ATOM     12  C   UNL     1      -0.469  11.762  22.357  0.00  0.00    +0.000 C 
ATOM     13  C   UNL     1      -1.240  10.755  23.194  0.00  0.00    +0.000 C 
ATOM     14  C   UNL     1      -0.771   9.407  22.646  0.00  0.00    +0.000 C 
ATOM     15  N   UNL     1       1.030   9.338  19.477  0.00  0.00    +0.000 NA
ATOM     16  C   UNL     1       1.939   8.563  18.845  0.00  0.00    +0.000 A 
ATOM     17  C   UNL     1       2.442   9.123  17.547  0.00  0.00    +0.000 C 
ENDBRANCH   3   5
BRANCH   1  18
ATOM     18  C   UNL     1       4.065   4.691  17.163  0.00  0.00    +0.000 C 
BRANCH  18  19
ATOM     19  C   UNL     1       5.450   5.273  17.482  0.00  0.00    +0.000 A 
ATOM     20  C   UNL     1       6.210   4.860  18.589  0.00  0.00    +0.000 A 
ATOM     21  C   UNL     1       7.404   5.501  18.919  0.00  0.00    +0.000 A 
ATOM     22  C   UNL     1       7.864   6.563  18.150  0.00  0.00    +0.000 A 
ATOM     23  C   UNL     1       7.152   6.959  17.021  0.00  0.00    +0.000 A 
ATOM     24  C   UNL     1       5.970   6.303  16.673  0.00  0.00    +0.000 A 
ENDBRANCH  18  19
BRANCH  18  26
ATOM     25  C   UNL     1       3.546   2.866  18.934  0.00  0.00    +0.000 C 
ATOM     26  C   UNL     1       3.932   3.186  17.495  0.00  0.00    +0.000 C 
ENDBRANCH  18  26
ENDBRANCH   1  18
TORSDOF 4
ENDMDL
MODEL 5
REMARK VINA RESULT:      -6.6      2.318      7.949
REMARK  Name = 
REMARK  7 active torsions:
REMARK  status: ('A' for Active; 'I' for Inactive)
REMARK    1  A    between atoms: C_1  and  C_2
REMARK    2  A    between atoms: C_2  and  C_3
REMARK    3  A    between atoms: C_3  and  C_4
REMARK    4  A    between atoms: C_3  and  C_20
REMARK    5  A    between atoms: N_6  and  C_7
REMARK    6  A    between atoms: C_8  and  C_9
REMARK    7  A    between atoms: C_18  and  C_19
REMARK                            x       y       z     vdW  Elec       q    Type
REMARK                         _______ _______ _______ _____ _____    ______ ____
ROOT
ATOM      1  C   UNL     1       3.328   6.235  18.761  0.00  0.00    +0.000 C 
ATOM      2  O   UNL     1       2.747   6.631  17.743  0.00  0.00    +0.000 OA
ATOM      3  N   UNL     1       4.522   5.525  18.734  0.00  0.00    +0.000 N 
ATOM      4  H   UNL     1       4.658   4.886  19.509  0.00  0.00    +0.000 HD
ENDROOT
BRANCH   3   5
ATOM      5  C   UNL     1       5.149   5.169  17.513  0.00  0.00    +0.000 A 
ATOM      6  C   UNL     1       4.708   4.137  16.695  0.00  0.00    +0.000 A 
ATOM      7  C   UNL     1       3.452   3.359  16.958  0.00  0.00    +0.000 C 
ATOM      8  N   UNL     1       5.331   3.814  15.532  0.00  0.00    +0.000 NA
ATOM      9  C   UNL     1       6.389   4.541  15.146  0.00  0.00    +0.000 A 
ATOM     10  N   UNL     1       7.031   4.225  13.969  0.00  0.00    +0.000 N 
ATOM     11  C   UNL     1       7.802   5.261  13.298  0.00  0.00    +0.000 C 
ATOM     12  C   UNL     1       7.314   5.202  11.854  0.00  0.00    +0.000 C 
ATOM     13  C   UNL     1       6.956   3.736  11.670  0.00  0.00    +0.000 C 
ATOM     14  C   UNL     1       6.359   3.346  13.022  0.00  0.00    +0.000 C 
ATOM     15  N   UNL     1       6.846   5.579  15.862  0.00  0.00    +0.000 NA
ATOM     16  C   UNL     1       6.230   5.890  17.023  0.00  0.00    +0.000 A 
ATOM     17  C   UNL     1       6.846   7.036  17.769  0.00  0.00    +0.000 C 
ENDBRANCH   3   5
BRANCH   1  18
ATOM     18  C   UNL     1       2.760   6.561  20.156  0.00  0.00    +0.000 C 
BRANCH  18  19
ATOM     19  C   UNL     1       1.766   7.733  20.136  0.00  0.00    +0.000 A 
ATOM     20  C   UNL     1       1.716   8.666  19.089  0.00  0.00    +0.000 A 
ATOM     21  C   UNL     1       0.890   9.788  19.166  0.00  0.00    +0.000 A 
ATOM     22  C   UNL     1       0.097   9.997  20.288  0.00  0.00    +0.000 A 
ATOM     23  C   UNL     1       0.095   9.059  21.318  0.00  0.00    +0.000 A 
ATOM     24  C   UNL     1       0.901   7.923  21.232  0.00  0.00    +0.000 A 
ENDBRANCH  18  19
BRANCH  18  26
ATOM     25  C   UNL     1       1.253   4.465  19.886  0.00  0.00    +0.000 C 
ATOM     26  C   UNL     1       2.187   5.269  20.783  0.00  0.00    +0.000 C 
ENDBRANCH  18  26
ENDBRANCH   1  18
TORSDOF 4
ENDMDL
MODEL 6
REMARK VINA RESULT:      -6.6      2.276      7.926
REMARK  Name = 
REMARK  7 active torsions:
REMARK  status: ('A' for Active; 'I' for Inactive)
REMARK    1  A    between atoms: C_1  and  C_2
REMARK    2  A    between atoms: C_2  and  C_3
REMARK    3  A    between atoms: C_3  and  C_4
REMARK    4  A    between atoms: C_3  and  C_20
REMARK    5  A    between atoms: N_6  and  C_7
REMARK    6  A    between atoms: C_8  and  C_9
REMARK    7  A    between atoms: C_18  and  C_19
REMARK                            x       y       z     vdW  Elec       q    Type
REMARK                         _______ _______ _______ _____ _____    ______ ____
ROOT
ATOM      1  C   UNL     1       3.095   6.110  18.717  0.00  0.00    +0.000 C 
ATOM      2  O   UNL     1       2.480   6.391  17.682  0.00  0.00    +0.000 OA
ATOM      3  N   UNL     1       4.356   5.526  18.726  0.00  0.00    +0.000 N 
ATOM      4  H   UNL     1       4.554   4.946  19.533  0.00  0.00    +0.000 HD
ENDROOT
BRANCH   3   5
ATOM      5  C   UNL     1       5.020   5.172  17.523  0.00  0.00    +0.000 A 
ATOM      6  C   UNL     1       4.647   4.098  16.727  0.00  0.00    +0.000 A 
ATOM      7  C   UNL     1       3.430   3.262  16.991  0.00  0.00    +0.000 C 
ATOM      8  N   UNL     1       5.305   3.780  15.582  0.00  0.00    +0.000 NA
ATOM      9  C   UNL     1       6.329   4.551  15.193  0.00  0.00    +0.000 A 
ATOM     10  N   UNL     1       7.005   4.240  14.033  0.00  0.00    +0.000 N 
ATOM     11  C   UNL     1       7.733   5.298  13.348  0.00  0.00    +0.000 C 
ATOM     12  C   UNL     1       7.272   5.176  11.899  0.00  0.00    +0.000 C 
ATOM     13  C   UNL     1       6.994   3.689  11.747  0.00  0.00    +0.000 C 
ATOM     14  C   UNL     1       6.396   3.302  13.100  0.00  0.00    +0.000 C 
ATOM     15  N   UNL     1       6.719   5.629  15.887  0.00  0.00    +0.000 NA
ATOM     16  C   UNL     1       6.070   5.937  17.031  0.00  0.00    +0.000 A 
ATOM     17  C   UNL     1       6.613   7.132  17.756  0.00  0.00    +0.000 C 
ENDBRANCH   3   5
BRANCH   1  18
ATOM     18  C   UNL     1       2.492   6.449  20.094  0.00  0.00    +0.000 C 
BRANCH  18  19
ATOM     19  C   UNL     1       1.822   7.831  20.129  0.00  0.00    +0.000 A 
ATOM     20  C   UNL     1       1.094   8.292  21.238  0.00  0.00    +0.000 A 
ATOM     21  C   UNL     1       0.393   9.497  21.185  0.00  0.00    +0.000 A 
ATOM     22  C   UNL     1       0.408  10.265  20.027  0.00  0.00    +0.000 A 
ATOM     23  C   UNL     1       1.161   9.850  18.932  0.00  0.00    +0.000 A 
ATOM     24  C   UNL     1       1.885   8.658  18.991  0.00  0.00    +0.000 A 
ENDBRANCH  18  19
BRANCH  18  26
ATOM     25  C   UNL     1       2.255   4.124  21.222  0.00  0.00    +0.000 C 
ATOM     26  C   UNL     1       1.562   5.295  20.537  0.00  0.00    +0.000 C 
ENDBRANCH  18  26
ENDBRANCH   1  18
TORSDOF 4
ENDMDL
MODEL 7
REMARK VINA RESULT:      -6.5      2.529      5.097
REMARK  Name = 
REMARK  7 active torsions:
REMARK  status: ('A' for Active; 'I' for Inactive)
REMARK    1  A    between atoms: C_1  and  C_2
REMARK    2  A    between atoms: C_2  and  C_3
REMARK    3  A    between atoms: C_3  and  C_4
REMARK    4  A    between atoms: C_3  and  C_20
REMARK    5  A    between atoms: N_6  and  C_7
REMARK    6  A    between atoms: C_8  and  C_9
REMARK    7  A    between atoms: C_18  and  C_19
REMARK                            x       y       z     vdW  Elec       q    Type
REMARK                         _______ _______ _______ _____ _____    ______ ____
ROOT
ATOM      1  C   UNL     1       1.492   7.418  20.221  0.00  0.00    +0.000 C 
ATOM      2  O   UNL     1       0.588   6.975  20.939  0.00  0.00    +0.000 OA
ATOM      3  N   UNL     1       1.640   8.766  19.918  0.00  0.00    +0.000 N 
ATOM      4  H   UNL     1       2.073   8.959  19.022  0.00  0.00    +0.000 HD
ENDROOT
BRANCH   3   5
ATOM      5  C   UNL     1       0.726   9.740  20.394  0.00  0.00    +0.000 A 
ATOM      6  C   UNL     1      -0.219  10.364  19.590  0.00  0.00    +0.000 A 
ATOM      7  C   UNL     1      -0.451   9.994  18.155  0.00  0.00    +0.000 C 
ATOM      8  N   UNL     1      -1.079  11.298  20.073  0.00  0.00    +0.000 NA
ATOM      9  C   UNL     1      -1.035  11.601  21.377  0.00  0.00    +0.000 A 
ATOM     10  N   UNL     1      -1.903  12.546  21.880  0.00  0.00    +0.000 N 
ATOM     11  C   UNL     1      -2.221  12.512  23.300  0.00  0.00    +0.000 C 
ATOM     12  C   UNL     1      -3.744  12.584  23.333  0.00  0.00    +0.000 C 
ATOM     13  C   UNL     1      -4.079  13.409  22.101  0.00  0.00    +0.000 C 
ATOM     14  C   UNL     1      -3.049  12.942  21.073  0.00  0.00    +0.000 C 
ATOM     15  N   UNL     1      -0.180  11.009  22.222  0.00  0.00    +0.000 NA
ATOM     16  C   UNL     1       0.682  10.088  21.737  0.00  0.00    +0.000 A 
ATOM     17  C   UNL     1       1.627   9.520  22.754  0.00  0.00    +0.000 C 
ENDBRANCH   3   5
BRANCH   1  18
ATOM     18  C   UNL     1       2.560   6.468  19.643  0.00  0.00    +0.000 C 
BRANCH  18  19
ATOM     19  C   UNL     1       2.200   4.986  19.822  0.00  0.00    +0.000 A 
ATOM     20  C   UNL     1       1.570   4.232  18.818  0.00  0.00    +0.000 A 
ATOM     21  C   UNL     1       1.144   2.926  19.062  0.00  0.00    +0.000 A 
ATOM     22  C   UNL     1       1.339   2.348  20.310  0.00  0.00    +0.000 A 
ATOM     23  C   UNL     1       2.004   3.060  21.305  0.00  0.00    +0.000 A 
ATOM     24  C   UNL     1       2.455   4.356  21.057  0.00  0.00    +0.000 A 
ENDBRANCH  18  19
BRANCH  18  26
ATOM     25  C   UNL     1       4.234   6.487  17.661  0.00  0.00    +0.000 C 
ATOM     26  C   UNL     1       2.851   6.865  18.178  0.00  0.00    +0.000 C 
ENDBRANCH  18  26
ENDBRANCH   1  18
TORSDOF 4
ENDMDL
MODEL 8
REMARK VINA RESULT:      -6.5      4.686      7.609
REMARK  Name = 
REMARK  7 active torsions:
REMARK  status: ('A' for Active; 'I' for Inactive)
REMARK    1  A    between atoms: C_1  and  C_2
REMARK    2  A    between atoms: C_2  and  C_3
REMARK    3  A    between atoms: C_3  and  C_4
REMARK    4  A    between atoms: C_3  and  C_20
REMARK    5  A    between atoms: N_6  and  C_7
REMARK    6  A    between atoms: C_8  and  C_9
REMARK    7  A    between atoms: C_18  and  C_19
REMARK                            x       y       z     vdW  Elec       q    Type
REMARK                         _______ _______ _______ _____ _____    ______ ____
ROOT
ATOM      1  C   UNL     1       0.714  10.784  20.586  0.00  0.00    +0.000 C 
ATOM      2  O   UNL     1       1.492  11.380  21.340  0.00  0.00    +0.000 OA
ATOM      3  N   UNL     1       0.042  11.398  19.537  0.00  0.00    +0.000 N 
ATOM      4  H   UNL     1      -0.853  10.986  19.301  0.00  0.00    +0.000 HD
ENDROOT
BRANCH   3   5
ATOM      5  C   UNL     1       0.178  12.786  19.276  0.00  0.00    +0.000 A 
ATOM      6  C   UNL     1       1.303  13.351  18.691  0.00  0.00    +0.000 A 
ATOM      7  C   UNL     1       2.451  12.542  18.166  0.00  0.00    +0.000 C 
ATOM      8  N   UNL     1       1.407  14.686  18.458  0.00  0.00    +0.000 NA
ATOM      9  C   UNL     1       0.374  15.477  18.774  0.00  0.00    +0.000 A 
ATOM     10  N   UNL     1       0.466  16.832  18.543  0.00  0.00    +0.000 N 
ATOM     11  C   UNL     1      -0.764  17.596  18.390  0.00  0.00    +0.000 C 
ATOM     12  C   UNL     1      -0.536  18.401  17.114  0.00  0.00    +0.000 C 
ATOM     13  C   UNL     1       0.966  18.630  17.113  0.00  0.00    +0.000 C 
ATOM     14  C   UNL     1       1.524  17.321  17.670  0.00  0.00    +0.000 C 
ATOM     15  N   UNL     1      -0.762  14.997  19.302  0.00  0.00    +0.000 NA
ATOM     16  C   UNL     1      -0.858  13.672  19.543  0.00  0.00    +0.000 A 
ATOM     17  C   UNL     1      -2.148  13.244  20.177  0.00  0.00    +0.000 C 
ENDBRANCH   3   5
BRANCH   1  18
ATOM     18  C   UNL     1       0.480   9.270  20.752  0.00  0.00    +0.000 C 
BRANCH  18  19
ATOM     19  C   UNL     1       1.372   8.423  19.832  0.00  0.00    +0.000 A 
ATOM     20  C   UNL     1       1.916   7.191  20.228  0.00  0.00    +0.000 A 
ATOM     21  C   UNL     1       2.824   6.512  19.415  0.00  0.00    +0.000 A 
ATOM     22  C   UNL     1       3.203   7.049  18.190  0.00  0.00    +0.000 A 
ATOM     23  C   UNL     1       2.641   8.246  17.756  0.00  0.00    +0.000 A 
ATOM     24  C   UNL     1       1.712   8.914  18.556  0.00  0.00    +0.000 A 
ENDBRANCH  18  19
BRANCH  18  26
ATOM     25  C   UNL     1      -0.408   9.572  23.171  0.00  0.00    +0.000 C 
ATOM     26  C   UNL     1       0.601   8.900  22.248  0.00  0.00    +0.000 C 
ENDBRANCH  18  26
ENDBRANCH   1  18
TORSDOF 4
ENDMDL
MODEL 9
REMARK VINA RESULT:      -6.5      2.579      4.750
REMARK  Name = 
REMARK  7 active torsions:
REMARK  status: ('A' for Active; 'I' for Inactive)
REMARK    1  A    between atoms: C_1  and  C_2
REMARK    2  A    between atoms: C_2  and  C_3
REMARK    3  A    between atoms: C_3  and  C_4
REMARK    4  A    between atoms: C_3  and  C_20
REMARK    5  A    between atoms: N_6  and  C_7
REMARK    6  A    between atoms: C_8  and  C_9
REMARK    7  A    between atoms: C_18  and  C_19
REMARK                            x       y       z     vdW  Elec       q    Type
REMARK                         _______ _______ _______ _____ _____    ______ ____
ROOT
ATOM      1  C   UNL     1       1.962   8.084  18.531  0.00  0.00    +0.000 C 
ATOM      2  O   UNL     1       1.205   8.220  17.563  0.00  0.00    +0.000 OA
ATOM      3  N   UNL     1       1.920   8.896  19.657  0.00  0.00    +0.000 N 
ATOM      4  H   UNL     1       2.805   9.009  20.138  0.00  0.00    +0.000 HD
ENDROOT
BRANCH   3   5
ATOM      5  C   UNL     1       1.011   9.981  19.759  0.00  0.00    +0.000 A 
ATOM      6  C   UNL     1      -0.107   9.972  20.581  0.00  0.00    +0.000 A 
ATOM      7  C   UNL     1      -0.416   8.859  21.537  0.00  0.00    +0.000 C 
ATOM      8  N   UNL     1      -0.963  11.025  20.654  0.00  0.00    +0.000 NA
ATOM      9  C   UNL     1      -0.697  12.122  19.932  0.00  0.00    +0.000 A 
ATOM     10  N   UNL     1      -1.556  13.197  19.998  0.00  0.00    +0.000 N 
ATOM     11  C   UNL     1      -1.044  14.517  19.660  0.00  0.00    +0.000 C 
ATOM     12  C   UNL     1      -1.498  15.392  20.825  0.00  0.00    +0.000 C 
ATOM     13  C   UNL     1      -2.802  14.742  21.258  0.00  0.00    +0.000 C 
ATOM     14  C   UNL     1      -2.529  13.249  21.081  0.00  0.00    +0.000 C 
ATOM     15  N   UNL     1       0.387  12.220  19.149  0.00  0.00    +0.000 NA
ATOM     16  C   UNL     1       1.230  11.167  19.070  0.00  0.00    +0.000 A 
ATOM     17  C   UNL     1       2.385  11.361  18.133  0.00  0.00    +0.000 C 
ENDBRANCH   3   5
BRANCH   1  18
ATOM     18  C   UNL     1       2.993   6.939  18.555  0.00  0.00    +0.000 C 
BRANCH  18  19
ATOM     19  C   UNL     1       2.365   5.577  18.889  0.00  0.00    +0.000 A 
ATOM     20  C   UNL     1       2.064   4.620  17.906  0.00  0.00    +0.000 A 
ATOM     21  C   UNL     1       1.378   3.449  18.231  0.00  0.00    +0.000 A 
ATOM     22  C   UNL     1       0.983   3.211  19.541  0.00  0.00    +0.000 A 
ATOM     23  C   UNL     1       1.311   4.124  20.540  0.00  0.00    +0.000 A 
ATOM     24  C   UNL     1       2.021   5.283  20.223  0.00  0.00    +0.000 A 
ENDBRANCH  18  19
BRANCH  18  26
ATOM     25  C   UNL     1       5.275   6.627  17.360  0.00  0.00    +0.000 C 
ATOM     26  C   UNL     1       3.791   6.948  17.231  0.00  0.00    +0.000 C 
ENDBRANCH  18  26
ENDBRANCH   1  18
TORSDOF 4
ENDMDL
