MODEL 1
REMARK VINA RESULT:      -6.7      0.000      0.000
REMARK  Name = 
REMARK  3 active torsions:
REMARK  status: ('A' for Active; 'I' for Inactive)
REMARK    1  A    between atoms: N_3  and  C_4
REMARK    2  A    between atoms: C_4  and  C_5
REMARK    3  A    between atoms: C_5  and  C_6
REMARK                            x       y       z     vdW  Elec       q    Type
REMARK                         _______ _______ _______ _____ _____    ______ ____
ROOT
ATOM      1  C   UNL     1       5.473   5.859  16.029  0.00  0.00    +0.000 C 
ENDROOT
BRANCH   1   4
ATOM      2  O   UNL     1       7.581   5.253  14.310  0.00  0.00    +0.000 OA
ATOM      3  C   UNL     1       6.478   4.752  14.102  0.00  0.00    +0.000 C 
ATOM      4  N   UNL     1       5.384   4.989  14.886  0.00  0.00    +0.000 N 
ATOM      5  N   UNL     1       6.240   3.907  13.068  0.00  0.00    +0.000 N 
ATOM      6  C   UNL     1       5.057   3.340  12.464  0.00  0.00    +0.000 C 
ATOM      7  C   UNL     1       6.028   2.425  11.705  0.00  0.00    +0.000 C 
ATOM      8  C   UNL     1       7.129   3.456  12.017  0.00  0.00    +0.000 C 
ATOM      9  H   UNL     1       4.560   4.437  14.731  0.00  0.00    +0.000 HD
ENDBRANCH   1   4
BRANCH   1  10
ATOM     10  C   UNL     1       5.549   5.145  17.374  0.00  0.00    +0.000 C 
ATOM     11  C   UNL     1       6.853   4.511  17.840  0.00  0.00    +0.000 C 
ATOM     12  C   UNL     1       6.346   5.747  18.524  0.00  0.00    +0.000 C 
BRANCH  10  13
ATOM     13  C   UNL     1       4.234   4.438  17.692  0.00  0.00    +0.000 A 
ATOM     14  C   UNL     1       4.153   3.038  17.758  0.00  0.00    +0.000 A 
ATOM     15  C   UNL     1       2.921   2.386  17.849  0.00  0.00    +0.000 A 
ATOM     16  C   UNL     1       1.743   3.127  17.881  0.00  0.00    +0.000 A 
ATOM     17  C   UNL     1       1.798   4.517  17.858  0.00  0.00    +0.000 A 
ATOM     18  C   UNL     1       3.032   5.164  17.775  0.00  0.00    +0.000 A 
ENDBRANCH  10  13
ENDBRANCH   1  10
TORSDOF 3
ENDMDL
MODEL 2
REMARK VINA RESULT:      -6.7      3.231      6.411
REMARK  Name = 
REMARK  3 active torsions:
REMARK  status: ('A' for Active; 'I' for Inactive)
REMARK    1  A    between atoms: N_3  and  C_4
REMARK    2  A    between atoms: C_4  and  C_5
REMARK    3  A    between atoms: C_5  and  C_6
REMARK                            x       y       z     vdW  Elec       q    Type
REMARK                         _______ _______ _______ _____ _____    ______ ____
ROOT
ATOM      1  C   UNL     1       3.582   5.828  17.311  0.00  0.00    +0.000 C 
ENDROOT
BRANCH   1   4
ATOM      2  O   UNL     1       1.556   3.919  17.434  0.00  0.00    +0.000 OA
ATOM      3  C   UNL     1       2.090   4.290  18.476  0.00  0.00    +0.000 C 
ATOM      4  N   UNL     1       3.088   5.222  18.520  0.00  0.00    +0.000 N 
ATOM      5  N   UNL     1       1.738   3.805  19.693  0.00  0.00    +0.000 N 
ATOM      6  C   UNL     1       2.022   4.174  21.061  0.00  0.00    +0.000 C 
ATOM      7  C   UNL     1       1.386   2.827  21.431  0.00  0.00    +0.000 C 
ATOM      8  C   UNL     1       0.709   2.849  20.048  0.00  0.00    +0.000 C 
ATOM      9  H   UNL     1       3.564   5.369  19.392  0.00  0.00    +0.000 HD
ENDBRANCH   1   4
BRANCH   1  10
ATOM     10  C   UNL     1       4.947   5.327  16.853  0.00  0.00    +0.000 C 
ATOM     11  C   UNL     1       5.143   3.870  16.457  0.00  0.00    +0.000 C 
ATOM     12  C   UNL     1       5.178   4.935  15.400  0.00  0.00    +0.000 C 
BRANCH  10  13
ATOM     13  C   UNL     1       6.069   6.042  17.600  0.00  0.00    +0.000 A 
ATOM     14  C   UNL     1       6.532   7.304  17.193  0.00  0.00    +0.000 A 
ATOM     15  C   UNL     1       7.685   7.867  17.747  0.00  0.00    +0.000 A 
ATOM     16  C   UNL     1       8.395   7.177  18.725  0.00  0.00    +0.000 A 
ATOM     17  C   UNL     1       7.935   5.944  19.175  0.00  0.00    +0.000 A 
ATOM     18  C   UNL     1       6.778   5.389  18.625  0.00  0.00    +0.000 A 
ENDBRANCH  10  13
ENDBRANCH   1  10
TORSDOF 3
ENDMDL
MODEL 3
REMARK VINA RESULT:      -6.7      0.224      1.187
REMARK  Name = 
REMARK  3 active torsions:
REMARK  status: ('A' for Active; 'I' for Inactive)
REMARK    1  A    between atoms: N_3  and  C_4
REMARK    2  A    between atoms: C_4  and  C_5
REMARK    3  A    between atoms: C_5  and  C_6
REMARK                            x       y       z     vdW  Elec       q    Type
REMARK                         _______ _______ _______ _____ _____    ______ ____
ROOT
ATOM      1  C   UNL     1       5.421   5.859  16.094  0.00  0.00    +0.000 C 
ENDROOT
BRANCH   1   4
ATOM      2  O   UNL     1       7.554   5.196  14.427  0.00  0.00    +0.000 OA
ATOM      3  C   UNL     1       6.435   4.758  14.168  0.00  0.00    +0.000 C 
ATOM      4  N   UNL     1       5.328   5.029  14.922  0.00  0.00    +0.000 N 
ATOM      5  N   UNL     1       6.191   3.956  13.102  0.00  0.00    +0.000 N 
ATOM      6  C   UNL     1       5.002   3.468  12.442  0.00  0.00    +0.000 C 
ATOM      7  C   UNL     1       5.951   2.527  11.687  0.00  0.00    +0.000 C 
ATOM      8  C   UNL     1       7.091   3.491  12.067  0.00  0.00    +0.000 C 
ATOM      9  H   UNL     1       4.483   4.524  14.724  0.00  0.00    +0.000 HD
ENDBRANCH   1   4
BRANCH   1  10
ATOM     10  C   UNL     1       5.345   5.111  17.419  0.00  0.00    +0.000 C 
ATOM     11  C   UNL     1       6.599   4.508  18.040  0.00  0.00    +0.000 C 
ATOM     12  C   UNL     1       5.959   5.706  18.680  0.00  0.00    +0.000 C 
BRANCH  10  13
ATOM     13  C   UNL     1       4.027   4.351  17.542  0.00  0.00    +0.000 A 
ATOM     14  C   UNL     1       2.810   5.023  17.737  0.00  0.00    +0.000 A 
ATOM     15  C   UNL     1       1.639   4.327  18.048  0.00  0.00    +0.000 A 
ATOM     16  C   UNL     1       1.664   2.940  18.166  0.00  0.00    +0.000 A 
ATOM     17  C   UNL     1       2.849   2.247  17.937  0.00  0.00    +0.000 A 
ATOM     18  C   UNL     1       4.014   2.946  17.618  0.00  0.00    +0.000 A 
ENDBRANCH  10  13
ENDBRANCH   1  10
TORSDOF 3
ENDMDL
MODEL 4
REMARK VINA RESULT:      -6.5      3.040      6.188
REMARK  Name = 
REMARK  3 active torsions:
REMARK  status: ('A' for Active; 'I' for Inactive)
REMARK    1  A    between atoms: N_3  and  C_4
REMARK    2  A    between atoms: C_4  and  C_5
REMARK    3  A    between atoms: C_5  and  C_6
REMARK                            x       y       z     vdW  Elec       q    Type
REMARK                         _______ _______ _______ _____ _____    ______ ____
ROOT
ATOM      1  C   UNL     1       4.080   5.444  16.938  0.00  0.00    +0.000 C 
ENDROOT
BRANCH   1   4
ATOM      2  O   UNL     1       3.158   6.200  19.456  0.00  0.00    +0.000 OA
ATOM      3  C   UNL     1       3.146   5.011  19.149  0.00  0.00    +0.000 C 
ATOM      4  N   UNL     1       3.579   4.541  17.940  0.00  0.00    +0.000 N 
ATOM      5  N   UNL     1       2.695   4.042  19.984  0.00  0.00    +0.000 N 
ATOM      6  C   UNL     1       2.740   2.598  19.992  0.00  0.00    +0.000 C 
ATOM      7  C   UNL     1       1.732   2.692  21.146  0.00  0.00    +0.000 C 
ATOM      8  C   UNL     1       2.202   4.145  21.342  0.00  0.00    +0.000 C 
ATOM      9  H   UNL     1       3.408   3.578  17.716  0.00  0.00    +0.000 HD
ENDBRANCH   1   4
BRANCH   1  10
ATOM     10  C   UNL     1       5.450   5.083  16.376  0.00  0.00    +0.000 C 
ATOM     11  C   UNL     1       5.710   3.697  15.800  0.00  0.00    +0.000 C 
ATOM     12  C   UNL     1       5.643   4.880  14.879  0.00  0.00    +0.000 C 
BRANCH  10  13
ATOM     13  C   UNL     1       6.562   5.770  17.165  0.00  0.00    +0.000 A 
ATOM     14  C   UNL     1       7.187   5.138  18.252  0.00  0.00    +0.000 A 
ATOM     15  C   UNL     1       8.057   5.835  19.094  0.00  0.00    +0.000 A 
ATOM     16  C   UNL     1       8.321   7.182  18.861  0.00  0.00    +0.000 A 
ATOM     17  C   UNL     1       7.747   7.821  17.767  0.00  0.00    +0.000 A 
ATOM     18  C   UNL     1       6.885   7.118  16.924  0.00  0.00    +0.000 A 
ENDBRANCH  10  13
ENDBRANCH   1  10
TORSDOF 3
ENDMDL
MODEL 5
REMARK VINA RESULT:      -6.5      2.893      6.119
REMARK  Name = 
REMARK  3 active torsions:
REMARK  status: ('A' for Active; 'I' for Inactive)
REMARK    1  A    between atoms: N_3  and  C_4
REMARK    2  A    between atoms: C_4  and  C_5
REMARK    3  A    between atoms: C_5  and  C_6
REMARK                            x       y       z     vdW  Elec       q    Type
REMARK                         _______ _______ _______ _____ _____    ______ ____
ROOT
ATOM      1  C   UNL     1       4.084   5.404  16.705  0.00  0.00    +0.000 C 
ENDROOT
BRANCH   1   4
ATOM      2  O   UNL     1       2.011   3.600  17.166  0.00  0.00    +0.000 OA
ATOM      3  C   UNL     1       2.533   4.166  18.123  0.00  0.00    +0.000 C 
ATOM      4  N   UNL     1       3.553   5.068  18.000  0.00  0.00    +0.000 N 
ATOM      5  N   UNL     1       2.146   3.947  19.404  0.00  0.00    +0.000 N 
ATOM      6  C   UNL     1       2.414   4.581  20.675  0.00  0.00    +0.000 C 
ATOM      7  C   UNL     1       1.738   3.351  21.296  0.00  0.00    +0.000 C 
ATOM      8  C   UNL     1       1.088   3.104  19.922  0.00  0.00    +0.000 C 
ATOM      9  H   UNL     1       4.015   5.379  18.835  0.00  0.00    +0.000 HD
ENDBRANCH   1   4
BRANCH   1  10
ATOM     10  C   UNL     1       5.464   4.828  16.408  0.00  0.00    +0.000 C 
ATOM     11  C   UNL     1       5.645   3.334  16.177  0.00  0.00    +0.000 C 
ATOM     12  C   UNL     1       5.792   4.283  15.024  0.00  0.00    +0.000 C 
BRANCH  10  13
ATOM     13  C   UNL     1       6.548   5.591  17.164  0.00  0.00    +0.000 A 
ATOM     14  C   UNL     1       7.168   5.048  18.301  0.00  0.00    +0.000 A 
ATOM     15  C   UNL     1       8.010   5.819  19.106  0.00  0.00    +0.000 A 
ATOM     16  C   UNL     1       8.251   7.152  18.785  0.00  0.00    +0.000 A 
ATOM     17  C   UNL     1       7.681   7.703  17.642  0.00  0.00    +0.000 A 
ATOM     18  C   UNL     1       6.848   6.926  16.836  0.00  0.00    +0.000 A 
ENDBRANCH  10  13
ENDBRANCH   1  10
TORSDOF 3
ENDMDL
MODEL 6
REMARK VINA RESULT:      -6.4      3.062      6.280
REMARK  Name = 
REMARK  3 active torsions:
REMARK  status: ('A' for Active; 'I' for Inactive)
REMARK    1  A    between atoms: N_3  and  C_4
REMARK    2  A    between atoms: C_4  and  C_5
REMARK    3  A    between atoms: C_5  and  C_6
REMARK                            x       y       z     vdW  Elec       q    Type
REMARK                         _______ _______ _______ _____ _____    ______ ____
ROOT
ATOM      1  C   UNL     1       3.867   5.228  16.913  0.00  0.00    +0.000 C 
ENDROOT
BRANCH   1   4
ATOM      2  O   UNL     1       3.258   6.047  19.506  0.00  0.00    +0.000 OA
ATOM      3  C   UNL     1       3.114   4.864  19.204  0.00  0.00    +0.000 C 
ATOM      4  N   UNL     1       3.388   4.366  17.961  0.00  0.00    +0.000 N 
ATOM      5  N   UNL     1       2.664   3.934  20.082  0.00  0.00    +0.000 N 
ATOM      6  C   UNL     1       2.585   2.491  20.090  0.00  0.00    +0.000 C 
ATOM      7  C   UNL     1       1.703   2.666  21.334  0.00  0.00    +0.000 C 
ATOM      8  C   UNL     1       2.313   4.072  21.480  0.00  0.00    +0.000 C 
ATOM      9  H   UNL     1       3.114   3.422  17.757  0.00  0.00    +0.000 HD
ENDBRANCH   1   4
BRANCH   1  10
ATOM     10  C   UNL     1       5.316   4.995  16.502  0.00  0.00    +0.000 C 
ATOM     11  C   UNL     1       5.766   3.632  15.991  0.00  0.00    +0.000 C 
ATOM     12  C   UNL     1       5.682   4.788  15.038  0.00  0.00    +0.000 C 
BRANCH  10  13
ATOM     13  C   UNL     1       6.269   5.799  17.382  0.00  0.00    +0.000 A 
ATOM     14  C   UNL     1       6.643   7.111  17.048  0.00  0.00    +0.000 A 
ATOM     15  C   UNL     1       7.662   7.773  17.738  0.00  0.00    +0.000 A 
ATOM     16  C   UNL     1       8.326   7.133  18.780  0.00  0.00    +0.000 A 
ATOM     17  C   UNL     1       7.948   5.848  19.158  0.00  0.00    +0.000 A 
ATOM     18  C   UNL     1       6.923   5.195  18.471  0.00  0.00    +0.000 A 
ENDBRANCH  10  13
ENDBRANCH   1  10
TORSDOF 3
ENDMDL
MODEL 7
REMARK VINA RESULT:      -6.4      2.352      5.879
REMARK  Name = 
REMARK  3 active torsions:
REMARK  status: ('A' for Active; 'I' for Inactive)
REMARK    1  A    between atoms: N_3  and  C_4
REMARK    2  A    between atoms: C_4  and  C_5
REMARK    3  A    between atoms: C_5  and  C_6
REMARK                            x       y       z     vdW  Elec       q    Type
REMARK                         _______ _______ _______ _____ _____    ______ ____
ROOT
ATOM      1  C   UNL     1       5.865   3.752  16.798  0.00  0.00    +0.000 C 
ENDROOT
BRANCH   1   4
ATOM      2  O   UNL     1       5.190   3.533  19.493  0.00  0.00    +0.000 OA
ATOM      3  C   UNL     1       4.335   3.298  18.642  0.00  0.00    +0.000 C 
ATOM      4  N   UNL     1       4.569   3.376  17.298  0.00  0.00    +0.000 N 
ATOM      5  N   UNL     1       3.065   2.940  18.959  0.00  0.00    +0.000 N 
ATOM      6  C   UNL     1       1.936   2.422  18.221  0.00  0.00    +0.000 C 
ATOM      7  C   UNL     1       1.125   2.713  19.491  0.00  0.00    +0.000 C 
ATOM      8  C   UNL     1       2.461   2.718  20.257  0.00  0.00    +0.000 C 
ATOM      9  H   UNL     1       3.785   3.304  16.674  0.00  0.00    +0.000 HD
ENDBRANCH   1   4
BRANCH   1  10
ATOM     10  C   UNL     1       5.893   5.050  16.000  0.00  0.00    +0.000 C 
ATOM     11  C   UNL     1       4.946   6.192  16.346  0.00  0.00    +0.000 C 
ATOM     12  C   UNL     1       6.412   6.335  16.632  0.00  0.00    +0.000 C 
BRANCH  10  13
ATOM     13  C   UNL     1       6.213   4.781  14.532  0.00  0.00    +0.000 A 
ATOM     14  C   UNL     1       5.461   3.870  13.773  0.00  0.00    +0.000 A 
ATOM     15  C   UNL     1       5.872   3.474  12.498  0.00  0.00    +0.000 A 
ATOM     16  C   UNL     1       7.046   3.989  11.954  0.00  0.00    +0.000 A 
ATOM     17  C   UNL     1       7.788   4.924  12.669  0.00  0.00    +0.000 A 
ATOM     18  C   UNL     1       7.368   5.322  13.939  0.00  0.00    +0.000 A 
ENDBRANCH  10  13
ENDBRANCH   1  10
TORSDOF 3
ENDMDL
MODEL 8
REMARK VINA RESULT:      -6.3      2.856      4.562
REMARK  Name = 
REMARK  3 active torsions:
REMARK  status: ('A' for Active; 'I' for Inactive)
REMARK    1  A    between atoms: N_3  and  C_4
REMARK    2  A    between atoms: C_4  and  C_5
REMARK    3  A    between atoms: C_5  and  C_6
REMARK                            x       y       z     vdW  Elec       q    Type
REMARK                         _______ _______ _______ _____ _____    ______ ____
ROOT
ATOM      1  C   UNL     1       3.868   2.946  19.796  0.00  0.00    +0.000 C 
ENDROOT
BRANCH   1   4
ATOM      2  O   UNL     1       5.870   4.879  19.640  0.00  0.00    +0.000 OA
ATOM      3  C   UNL     1       5.563   4.254  18.627  0.00  0.00    +0.000 C 
ATOM      4  N   UNL     1       4.595   3.291  18.602  0.00  0.00    +0.000 N 
ATOM      5  N   UNL     1       6.164   4.461  17.429  0.00  0.00    +0.000 N 
ATOM      6  C   UNL     1       5.899   4.050  16.070  0.00  0.00    +0.000 C 
ATOM      7  C   UNL     1       7.299   4.597  15.758  0.00  0.00    +0.000 C 
ATOM      8  C   UNL     1       7.192   5.413  17.059  0.00  0.00    +0.000 C 
ATOM      9  H   UNL     1       4.501   2.733  17.772  0.00  0.00    +0.000 HD
ENDBRANCH   1   4
BRANCH   1  10
ATOM     10  C   UNL     1       2.384   3.291  19.766  0.00  0.00    +0.000 C 
ATOM     11  C   UNL     1       1.368   2.289  19.233  0.00  0.00    +0.000 C 
ATOM     12  C   UNL     1       1.408   2.590  20.703  0.00  0.00    +0.000 C 
BRANCH  10  13
ATOM     13  C   UNL     1       2.173   4.774  19.475  0.00  0.00    +0.000 A 
ATOM     14  C   UNL     1       2.169   5.270  18.161  0.00  0.00    +0.000 A 
ATOM     15  C   UNL     1       2.177   6.643  17.904  0.00  0.00    +0.000 A 
ATOM     16  C   UNL     1       2.187   7.549  18.961  0.00  0.00    +0.000 A 
ATOM     17  C   UNL     1       2.150   7.084  20.272  0.00  0.00    +0.000 A 
ATOM     18  C   UNL     1       2.133   5.712  20.523  0.00  0.00    +0.000 A 
ENDBRANCH  10  13
ENDBRANCH   1  10
TORSDOF 3
ENDMDL
MODEL 9
REMARK VINA RESULT:      -6.3      4.228      6.674
REMARK  Name = 
REMARK  3 active torsions:
REMARK  status: ('A' for Active; 'I' for Inactive)
REMARK    1  A    between atoms: N_3  and  C_4
REMARK    2  A    between atoms: C_4  and  C_5
REMARK    3  A    between atoms: C_5  and  C_6
REMARK                            x       y       z     vdW  Elec       q    Type
REMARK                         _______ _______ _______ _____ _____    ______ ____
ROOT
ATOM      1  C   UNL     1       3.260   6.965  17.807  0.00  0.00    +0.000 C 
ENDROOT
BRANCH   1   4
ATOM      2  O   UNL     1       1.987   9.410  17.399  0.00  0.00    +0.000 OA
ATOM      3  C   UNL     1       1.849   8.838  18.478  0.00  0.00    +0.000 C 
ATOM      4  N   UNL     1       2.434   7.639  18.774  0.00  0.00    +0.000 N 
ATOM      5  N   UNL     1       1.095   9.345  19.485  0.00  0.00    +0.000 N 
ATOM      6  C   UNL     1       0.909   9.026  20.882  0.00  0.00    +0.000 C 
ATOM      7  C   UNL     1      -0.280   9.995  20.821  0.00  0.00    +0.000 C 
ATOM      8  C   UNL     1       0.364  10.593  19.558  0.00  0.00    +0.000 C 
ATOM      9  H   UNL     1       2.161   7.174  19.621  0.00  0.00    +0.000 HD
ENDBRANCH   1   4
BRANCH   1  10
ATOM     10  C   UNL     1       3.759   5.590  18.236  0.00  0.00    +0.000 C 
ATOM     11  C   UNL     1       4.859   4.887  17.451  0.00  0.00    +0.000 C 
ATOM     12  C   UNL     1       5.155   5.422  18.822  0.00  0.00    +0.000 C 
BRANCH  10  13
ATOM     13  C   UNL     1       2.622   4.753  18.817  0.00  0.00    +0.000 A 
ATOM     14  C   UNL     1       2.356   4.736  20.195  0.00  0.00    +0.000 A 
ATOM     15  C   UNL     1       1.453   3.824  20.748  0.00  0.00    +0.000 A 
ATOM     16  C   UNL     1       0.795   2.912  19.928  0.00  0.00    +0.000 A 
ATOM     17  C   UNL     1       1.010   2.935  18.554  0.00  0.00    +0.000 A 
ATOM     18  C   UNL     1       1.907   3.854  18.005  0.00  0.00    +0.000 A 
ENDBRANCH  10  13
ENDBRANCH   1  10
TORSDOF 3
ENDMDL
