MODEL 1
REMARK VINA RESULT:      -8.0      0.000      0.000
REMARK  Name = 
REMARK  1 active torsions:
REMARK  status: ('A' for Active; 'I' for Inactive)
REMARK    1  A    between atoms: C_7  and  N_8
REMARK                            x       y       z     vdW  Elec       q    Type
REMARK                         _______ _______ _______ _____ _____    ______ ____
ROOT
ATOM      1  N   UNL     1       1.374   2.507  22.215  0.00  0.00    +0.000 N 
ATOM      2  C   UNL     1       2.131   3.194  21.283  0.00  0.00    +0.000 A 
ATOM      3  N   UNL     1       3.208   2.601  20.805  0.00  0.00    +0.000 NA
ATOM      4  C   UNL     1       3.939   3.289  19.906  0.00  0.00    +0.000 A 
ATOM      5  N   UNL     1       5.121   2.594  19.614  0.00  0.00    +0.000 N 
ATOM      6  C   UNL     1       3.625   4.586  19.414  0.00  0.00    +0.000 A 
ATOM      7  C   UNL     1       4.264   5.433  18.398  0.00  0.00    +0.000 A 
ATOM      8  C   UNL     1       3.714   6.713  18.161  0.00  0.00    +0.000 A 
ATOM      9  C   UNL     1       2.565   7.149  18.800  0.00  0.00    +0.000 A 
ATOM     10  C   UNL     1       1.939   6.310  19.706  0.00  0.00    +0.000 A 
ATOM     11  C   UNL     1       2.441   5.062  20.024  0.00  0.00    +0.000 A 
ATOM     12  N   UNL     1       1.715   4.398  20.925  0.00  0.00    +0.000 NA
ATOM     13  H   UNL     1       1.527   1.513  22.108  0.00  0.00    +0.000 HD
ATOM     14  H   UNL     1       0.418   2.832  22.182  0.00  0.00    +0.000 HD
ATOM     15  H   UNL     1       5.014   1.698  20.089  0.00  0.00    +0.000 HD
ATOM     16  H   UNL     1       5.881   3.088  20.066  0.00  0.00    +0.000 HD
ENDROOT
BRANCH   7  17
ATOM     17  N   UNL     1       5.315   4.984  17.564  0.00  0.00    +0.000 N 
ATOM     18  C   UNL     1       5.124   5.128  16.091  0.00  0.00    +0.000 C 
ATOM     19  C   UNL     1       6.193   4.332  15.326  0.00  0.00    +0.000 C 
ATOM     20  O   UNL     1       7.524   4.698  15.728  0.00  0.00    +0.000 OA
ATOM     21  C   UNL     1       7.675   4.513  17.149  0.00  0.00    +0.000 C 
ATOM     22  C   UNL     1       6.686   5.409  17.919  0.00  0.00    +0.000 C 
ENDBRANCH   7  17
TORSDOF 1
ENDMDL
MODEL 2
REMARK VINA RESULT:      -7.9      2.682      5.434
REMARK  Name = 
REMARK  1 active torsions:
REMARK  status: ('A' for Active; 'I' for Inactive)
REMARK    1  A    between atoms: C_7  and  N_8
REMARK                            x       y       z     vdW  Elec       q    Type
REMARK                         _______ _______ _______ _____ _____    ______ ____
ROOT
ATOM      1  N   UNL     1       7.404   5.218  14.905  0.00  0.00    +0.000 N 
ATOM      2  C   UNL     1       6.318   5.210  15.762  0.00  0.00    +0.000 A 
ATOM      3  N   UNL     1       5.959   4.055  16.290  0.00  0.00    +0.000 NA
ATOM      4  C   UNL     1       4.893   4.064  17.115  0.00  0.00    +0.000 A 
ATOM      5  N   UNL     1       4.547   2.751  17.467  0.00  0.00    +0.000 N 
ATOM      6  C   UNL     1       4.149   5.218  17.483  0.00  0.00    +0.000 A 
ATOM      7  C   UNL     1       3.025   5.410  18.409  0.00  0.00    +0.000 A 
ATOM      8  C   UNL     1       2.477   6.707  18.524  0.00  0.00    +0.000 A 
ATOM      9  C   UNL     1       3.009   7.794  17.852  0.00  0.00    +0.000 A 
ATOM     10  C   UNL     1       4.110   7.606  17.034  0.00  0.00    +0.000 A 
ATOM     11  C   UNL     1       4.676   6.361  16.835  0.00  0.00    +0.000 A 
ATOM     12  N   UNL     1       5.721   6.364  16.005  0.00  0.00    +0.000 NA
ATOM     13  H   UNL     1       7.999   4.427  15.105  0.00  0.00    +0.000 HD
ATOM     14  H   UNL     1       7.834   6.132  14.911  0.00  0.00    +0.000 HD
ATOM     15  H   UNL     1       5.296   2.177  17.080  0.00  0.00    +0.000 HD
ATOM     16  H   UNL     1       3.698   2.519  16.966  0.00  0.00    +0.000 HD
ENDROOT
BRANCH   7  17
ATOM     17  N   UNL     1       2.555   4.397  19.277  0.00  0.00    +0.000 N 
ATOM     18  C   UNL     1       2.390   4.757  20.716  0.00  0.00    +0.000 C 
ATOM     19  C   UNL     1       2.172   3.495  21.568  0.00  0.00    +0.000 C 
ATOM     20  O   UNL     1       1.071   2.707  21.086  0.00  0.00    +0.000 OA
ATOM     21  C   UNL     1       1.286   2.355  19.706  0.00  0.00    +0.000 C 
ATOM     22  C   UNL     1       1.378   3.622  18.833  0.00  0.00    +0.000 C 
ENDBRANCH   7  17
TORSDOF 1
ENDMDL
MODEL 3
REMARK VINA RESULT:      -6.9      0.510      1.213
REMARK  Name = 
REMARK  1 active torsions:
REMARK  status: ('A' for Active; 'I' for Inactive)
REMARK    1  A    between atoms: C_7  and  N_8
REMARK                            x       y       z     vdW  Elec       q    Type
REMARK                         _______ _______ _______ _____ _____    ______ ____
ROOT
ATOM      1  N   UNL     1       1.565   2.499  22.261  0.00  0.00    +0.000 N 
ATOM      2  C   UNL     1       2.224   3.236  21.294  0.00  0.00    +0.000 A 
ATOM      3  N   UNL     1       3.227   2.662  20.658  0.00  0.00    +0.000 NA
ATOM      4  C   UNL     1       3.864   3.398  19.726  0.00  0.00    +0.000 A 
ATOM      5  N   UNL     1       4.990   2.708  19.256  0.00  0.00    +0.000 N 
ATOM      6  C   UNL     1       3.522   4.728  19.356  0.00  0.00    +0.000 A 
ATOM      7  C   UNL     1       4.057   5.632  18.330  0.00  0.00    +0.000 A 
ATOM      8  C   UNL     1       3.509   6.931  18.240  0.00  0.00    +0.000 A 
ATOM      9  C   UNL     1       2.450   7.339  19.033  0.00  0.00    +0.000 A 
ATOM     10  C   UNL     1       1.915   6.451  19.950  0.00  0.00    +0.000 A 
ATOM     11  C   UNL     1       2.425   5.179  20.128  0.00  0.00    +0.000 A 
ATOM     12  N   UNL     1       1.794   4.465  21.063  0.00  0.00    +0.000 NA
ATOM     13  H   UNL     1       1.685   1.513  22.075  0.00  0.00    +0.000 HD
ATOM     14  H   UNL     1       0.619   2.837  22.359  0.00  0.00    +0.000 HD
ATOM     15  H   UNL     1       4.921   1.785  19.682  0.00  0.00    +0.000 HD
ATOM     16  H   UNL     1       5.807   3.163  19.648  0.00  0.00    +0.000 HD
ENDROOT
BRANCH   7  17
ATOM     17  N   UNL     1       4.997   5.225  17.353  0.00  0.00    +0.000 N 
ATOM     18  C   UNL     1       6.386   4.946  17.819  0.00  0.00    +0.000 C 
ATOM     19  C   UNL     1       7.343   4.816  16.623  0.00  0.00    +0.000 C 
ATOM     20  O   UNL     1       6.891   3.830  15.679  0.00  0.00    +0.000 OA
ATOM     21  C   UNL     1       5.560   4.155  15.231  0.00  0.00    +0.000 C 
ATOM     22  C   UNL     1       4.577   4.161  16.417  0.00  0.00    +0.000 C 
ENDBRANCH   7  17
TORSDOF 1
ENDMDL
MODEL 4
REMARK VINA RESULT:      -6.8      2.570      5.209
REMARK  Name = 
REMARK  1 active torsions:
REMARK  status: ('A' for Active; 'I' for Inactive)
REMARK    1  A    between atoms: C_7  and  N_8
REMARK                            x       y       z     vdW  Elec       q    Type
REMARK                         _______ _______ _______ _____ _____    ______ ____
ROOT
ATOM      1  N   UNL     1       7.518   5.273  15.131  0.00  0.00    +0.000 N 
ATOM      2  C   UNL     1       6.367   5.291  15.898  0.00  0.00    +0.000 A 
ATOM      3  N   UNL     1       5.929   4.143  16.378  0.00  0.00    +0.000 NA
ATOM      4  C   UNL     1       4.801   4.178  17.115  0.00  0.00    +0.000 A 
ATOM      5  N   UNL     1       4.385   2.874  17.419  0.00  0.00    +0.000 N 
ATOM      6  C   UNL     1       4.068   5.352  17.438  0.00  0.00    +0.000 A 
ATOM      7  C   UNL     1       2.880   5.572  18.273  0.00  0.00    +0.000 A 
ATOM      8  C   UNL     1       2.366   6.885  18.363  0.00  0.00    +0.000 A 
ATOM      9  C   UNL     1       2.987   7.961  17.752  0.00  0.00    +0.000 A 
ATOM     10  C   UNL     1       4.143   7.745  17.022  0.00  0.00    +0.000 A 
ATOM     11  C   UNL     1       4.683   6.484  16.852  0.00  0.00    +0.000 A 
ATOM     12  N   UNL     1       5.791   6.462  16.108  0.00  0.00    +0.000 NA
ATOM     13  H   UNL     1       8.070   4.459  15.367  0.00  0.00    +0.000 HD
ATOM     14  H   UNL     1       7.976   6.171  15.185  0.00  0.00    +0.000 HD
ATOM     15  H   UNL     1       5.143   2.279  17.086  0.00  0.00    +0.000 HD
ATOM     16  H   UNL     1       3.571   2.676  16.848  0.00  0.00    +0.000 HD
ENDROOT
BRANCH   7  17
ATOM     17  N   UNL     1       2.308   4.565  19.087  0.00  0.00    +0.000 N 
ATOM     18  C   UNL     1       1.581   3.461  18.394  0.00  0.00    +0.000 C 
ATOM     19  C   UNL     1       0.771   2.630  19.402  0.00  0.00    +0.000 C 
ATOM     20  O   UNL     1       1.594   2.135  20.472  0.00  0.00    +0.000 OA
ATOM     21  C   UNL     1       2.251   3.234  21.134  0.00  0.00    +0.000 C 
ATOM     22  C   UNL     1       3.162   3.991  20.148  0.00  0.00    +0.000 C 
ENDBRANCH   7  17
TORSDOF 1
ENDMDL
MODEL 5
REMARK VINA RESULT:      -6.6      1.689      3.287
REMARK  Name = 
REMARK  1 active torsions:
REMARK  status: ('A' for Active; 'I' for Inactive)
REMARK    1  A    between atoms: C_7  and  N_8
REMARK                            x       y       z     vdW  Elec       q    Type
REMARK                         _______ _______ _______ _____ _____    ______ ____
ROOT
ATOM      1  N   UNL     1       0.750   8.090  21.201  0.00  0.00    +0.000 N 
ATOM      2  C   UNL     1       1.568   7.241  20.478  0.00  0.00    +0.000 A 
ATOM      3  N   UNL     1       2.222   7.744  19.449  0.00  0.00    +0.000 NA
ATOM      4  C   UNL     1       3.007   6.900  18.750  0.00  0.00    +0.000 A 
ATOM      5  N   UNL     1       3.506   7.543  17.608  0.00  0.00    +0.000 N 
ATOM      6  C   UNL     1       3.208   5.525  19.052  0.00  0.00    +0.000 A 
ATOM      7  C   UNL     1       4.068   4.500  18.447  0.00  0.00    +0.000 A 
ATOM      8  C   UNL     1       4.008   3.190  18.972  0.00  0.00    +0.000 A 
ATOM      9  C   UNL     1       3.224   2.872  20.068  0.00  0.00    +0.000 A 
ATOM     10  C   UNL     1       2.469   3.866  20.666  0.00  0.00    +0.000 A 
ATOM     11  C   UNL     1       2.442   5.162  20.185  0.00  0.00    +0.000 A 
ATOM     12  N   UNL     1       1.650   5.983  20.877  0.00  0.00    +0.000 NA
ATOM     13  H   UNL     1       1.064   9.044  21.084  0.00  0.00    +0.000 HD
ATOM     14  H   UNL     1       0.658   7.749  22.147  0.00  0.00    +0.000 HD
ATOM     15  H   UNL     1       3.216   8.514  17.714  0.00  0.00    +0.000 HD
ATOM     16  H   UNL     1       3.012   7.164  16.809  0.00  0.00    +0.000 HD
ENDROOT
BRANCH   7  17
ATOM     17  N   UNL     1       5.040   4.789  17.459  0.00  0.00    +0.000 N 
ATOM     18  C   UNL     1       6.351   5.324  17.931  0.00  0.00    +0.000 C 
ATOM     19  C   UNL     1       7.170   5.867  16.748  0.00  0.00    +0.000 C 
ATOM     20  O   UNL     1       7.338   4.881  15.715  0.00  0.00    +0.000 OA
ATOM     21  C   UNL     1       6.050   4.415  15.268  0.00  0.00    +0.000 C 
ATOM     22  C   UNL     1       5.280   3.757  16.429  0.00  0.00    +0.000 C 
ENDBRANCH   7  17
TORSDOF 1
ENDMDL
MODEL 6
REMARK VINA RESULT:      -6.4      2.685      5.857
REMARK  Name = 
REMARK  1 active torsions:
REMARK  status: ('A' for Active; 'I' for Inactive)
REMARK    1  A    between atoms: C_7  and  N_8
REMARK                            x       y       z     vdW  Elec       q    Type
REMARK                         _______ _______ _______ _____ _____    ______ ____
ROOT
ATOM      1  N   UNL     1       7.516   5.100  13.465  0.00  0.00    +0.000 N 
ATOM      2  C   UNL     1       6.888   4.998  14.693  0.00  0.00    +0.000 A 
ATOM      3  N   UNL     1       5.678   4.473  14.725  0.00  0.00    +0.000 NA
ATOM      4  C   UNL     1       5.077   4.391  15.929  0.00  0.00    +0.000 A 
ATOM      5  N   UNL     1       3.752   3.959  15.775  0.00  0.00    +0.000 N 
ATOM      6  C   UNL     1       5.654   4.796  17.163  0.00  0.00    +0.000 A 
ATOM      7  C   UNL     1       5.173   4.711  18.548  0.00  0.00    +0.000 A 
ATOM      8  C   UNL     1       5.990   5.249  19.568  0.00  0.00    +0.000 A 
ATOM      9  C   UNL     1       7.242   5.779  19.304  0.00  0.00    +0.000 A 
ATOM     10  C   UNL     1       7.707   5.790  18.000  0.00  0.00    +0.000 A 
ATOM     11  C   UNL     1       6.948   5.323  16.943  0.00  0.00    +0.000 A 
ATOM     12  N   UNL     1       7.550   5.424  15.756  0.00  0.00    +0.000 NA
ATOM     13  H   UNL     1       7.131   4.414  12.830  0.00  0.00    +0.000 HD
ATOM     14  H   UNL     1       8.517   5.098  13.595  0.00  0.00    +0.000 HD
ATOM     15  H   UNL     1       3.675   3.716  14.788  0.00  0.00    +0.000 HD
ATOM     16  H   UNL     1       3.153   4.759  15.938  0.00  0.00    +0.000 HD
ENDROOT
BRANCH   7  17
ATOM     17  N   UNL     1       4.002   4.009  18.920  0.00  0.00    +0.000 N 
ATOM     18  C   UNL     1       4.137   2.544  19.169  0.00  0.00    +0.000 C 
ATOM     19  C   UNL     1       2.753   1.880  19.260  0.00  0.00    +0.000 C 
ATOM     20  O   UNL     1       1.919   2.513  20.246  0.00  0.00    +0.000 OA
ATOM     21  C   UNL     1       1.789   3.917  19.951  0.00  0.00    +0.000 C 
ATOM     22  C   UNL     1       3.167   4.606  19.984  0.00  0.00    +0.000 C 
ENDBRANCH   7  17
TORSDOF 1
ENDMDL
MODEL 7
REMARK VINA RESULT:      -6.3      3.167      5.714
REMARK  Name = 
REMARK  1 active torsions:
REMARK  status: ('A' for Active; 'I' for Inactive)
REMARK    1  A    between atoms: C_7  and  N_8
REMARK                            x       y       z     vdW  Elec       q    Type
REMARK                         _______ _______ _______ _____ _____    ______ ____
ROOT
ATOM      1  N   UNL     1       8.211   8.296  17.646  0.00  0.00    +0.000 N 
ATOM      2  C   UNL     1       7.395   7.192  17.480  0.00  0.00    +0.000 A 
ATOM      3  N   UNL     1       6.593   6.864  18.474  0.00  0.00    +0.000 NA
ATOM      4  C   UNL     1       5.811   5.780  18.299  0.00  0.00    +0.000 A 
ATOM      5  N   UNL     1       5.138   5.475  19.491  0.00  0.00    +0.000 N 
ATOM      6  C   UNL     1       5.763   4.985  17.122  0.00  0.00    +0.000 A 
ATOM      7  C   UNL     1       4.932   3.834  16.746  0.00  0.00    +0.000 A 
ATOM      8  C   UNL     1       5.160   3.234  15.487  0.00  0.00    +0.000 A 
ATOM      9  C   UNL     1       6.082   3.741  14.587  0.00  0.00    +0.000 A 
ATOM     10  C   UNL     1       6.810   4.867  14.933  0.00  0.00    +0.000 A 
ATOM     11  C   UNL     1       6.675   5.484  16.162  0.00  0.00    +0.000 A 
ATOM     12  N   UNL     1       7.465   6.547  16.328  0.00  0.00    +0.000 NA
ATOM     13  H   UNL     1       7.807   8.916  18.334  0.00  0.00    +0.000 HD
ATOM     14  H   UNL     1       8.435   8.691  16.744  0.00  0.00    +0.000 HD
ATOM     15  H   UNL     1       5.355   6.253  20.113  0.00  0.00    +0.000 HD
ATOM     16  H   UNL     1       5.574   4.647  19.880  0.00  0.00    +0.000 HD
ENDROOT
BRANCH   7  17
ATOM     17  N   UNL     1       3.837   3.382  17.521  0.00  0.00    +0.000 N 
ATOM     18  C   UNL     1       2.485   3.895  17.154  0.00  0.00    +0.000 C 
ATOM     19  C   UNL     1       1.464   3.564  18.255  0.00  0.00    +0.000 C 
ATOM     20  O   UNL     1       1.436   2.158  18.556  0.00  0.00    +0.000 OA
ATOM     21  C   UNL     1       2.753   1.712  18.935  0.00  0.00    +0.000 C 
ATOM     22  C   UNL     1       3.751   1.929  17.781  0.00  0.00    +0.000 C 
ENDBRANCH   7  17
TORSDOF 1
ENDMDL
MODEL 8
REMARK VINA RESULT:      -6.3      1.551      3.073
REMARK  Name = 
REMARK  1 active torsions:
REMARK  status: ('A' for Active; 'I' for Inactive)
REMARK    1  A    between atoms: C_7  and  N_8
REMARK                            x       y       z     vdW  Elec       q    Type
REMARK                         _______ _______ _______ _____ _____    ______ ____
ROOT
ATOM      1  N   UNL     1       0.956   8.095  20.864  0.00  0.00    +0.000 N 
ATOM      2  C   UNL     1       1.761   7.098  20.344  0.00  0.00    +0.000 A 
ATOM      3  N   UNL     1       2.550   7.407  19.333  0.00  0.00    +0.000 NA
ATOM      4  C   UNL     1       3.320   6.421  18.833  0.00  0.00    +0.000 A 
ATOM      5  N   UNL     1       3.978   6.865  17.677  0.00  0.00    +0.000 N 
ATOM      6  C   UNL     1       3.370   5.088  19.326  0.00  0.00    +0.000 A 
ATOM      7  C   UNL     1       4.191   3.930  18.949  0.00  0.00    +0.000 A 
ATOM      8  C   UNL     1       3.967   2.711  19.627  0.00  0.00    +0.000 A 
ATOM      9  C   UNL     1       3.059   2.603  20.667  0.00  0.00    +0.000 A 
ATOM     10  C   UNL     1       2.342   3.722  21.052  0.00  0.00    +0.000 A 
ATOM     11  C   UNL     1       2.473   4.939  20.410  0.00  0.00    +0.000 A 
ATOM     12  N   UNL     1       1.694   5.903  20.906  0.00  0.00    +0.000 NA
ATOM     13  H   UNL     1       1.362   8.998  20.660  0.00  0.00    +0.000 HD
ATOM     14  H   UNL     1       0.746   7.892  21.830  0.00  0.00    +0.000 HD
ATOM     15  H   UNL     1       3.765   7.860  17.628  0.00  0.00    +0.000 HD
ATOM     16  H   UNL     1       3.529   6.419  16.885  0.00  0.00    +0.000 HD
ENDROOT
BRANCH   7  17
ATOM     17  N   UNL     1       5.272   4.010  18.040  0.00  0.00    +0.000 N 
ATOM     18  C   UNL     1       4.936   4.187  16.597  0.00  0.00    +0.000 C 
ATOM     19  C   UNL     1       6.177   3.952  15.719  0.00  0.00    +0.000 C 
ATOM     20  O   UNL     1       7.279   4.786  16.115  0.00  0.00    +0.000 OA
ATOM     21  C   UNL     1       7.590   4.561  17.504  0.00  0.00    +0.000 C 
ATOM     22  C   UNL     1       6.384   4.918  18.393  0.00  0.00    +0.000 C 
ENDBRANCH   7  17
TORSDOF 1
ENDMDL
MODEL 9
REMARK VINA RESULT:      -6.2      3.190      5.452
REMARK  Name = 
REMARK  1 active torsions:
REMARK  status: ('A' for Active; 'I' for Inactive)
REMARK    1  A    between atoms: C_7  and  N_8
REMARK                            x       y       z     vdW  Elec       q    Type
REMARK                         _______ _______ _______ _____ _____    ______ ____
ROOT
ATOM      1  N   UNL     1       1.744  10.646  17.998  0.00  0.00    +0.000 N 
ATOM      2  C   UNL     1       2.125   9.341  18.250  0.00  0.00    +0.000 A 
ATOM      3  N   UNL     1       1.627   8.747  19.318  0.00  0.00    +0.000 NA
ATOM      4  C   UNL     1       2.017   7.479  19.552  0.00  0.00    +0.000 A 
ATOM      5  N   UNL     1       1.527   7.048  20.794  0.00  0.00    +0.000 N 
ATOM      6  C   UNL     1       2.895   6.725  18.728  0.00  0.00    +0.000 A 
ATOM      7  C   UNL     1       3.359   5.333  18.799  0.00  0.00    +0.000 A 
ATOM      8  C   UNL     1       4.279   4.890  17.823  0.00  0.00    +0.000 A 
ATOM      9  C   UNL     1       4.691   5.700  16.778  0.00  0.00    +0.000 A 
ATOM     10  C   UNL     1       4.192   6.989  16.690  0.00  0.00    +0.000 A 
ATOM     11  C   UNL     1       3.323   7.509  17.631  0.00  0.00    +0.000 A 
ATOM     12  N   UNL     1       2.956   8.770  17.393  0.00  0.00    +0.000 NA
ATOM     13  H   UNL     1       0.852  10.828  18.438  0.00  0.00    +0.000 HD
ATOM     14  H   UNL     1       1.818  10.837  17.010  0.00  0.00    +0.000 HD
ATOM     15  H   UNL     1       0.908   7.798  21.099  0.00  0.00    +0.000 HD
ATOM     16  H   UNL     1       2.311   7.022  21.435  0.00  0.00    +0.000 HD
ENDROOT
BRANCH   7  17
ATOM     17  N   UNL     1       2.835   4.388  19.713  0.00  0.00    +0.000 N 
ATOM     18  C   UNL     1       1.432   3.932  19.491  0.00  0.00    +0.000 C 
ATOM     19  C   UNL     1       0.914   3.158  20.714  0.00  0.00    +0.000 C 
ATOM     20  O   UNL     1       1.779   2.065  21.063  0.00  0.00    +0.000 OA
ATOM     21  C   UNL     1       3.114   2.552  21.300  0.00  0.00    +0.000 C 
ATOM     22  C   UNL     1       3.680   3.217  20.030  0.00  0.00    +0.000 C 
ENDBRANCH   7  17
TORSDOF 1
ENDMDL
