MODEL 1
REMARK VINA RESULT:      -7.4      0.000      0.000
REMARK  Name = 
REMARK  6 active torsions:
REMARK  status: ('A' for Active; 'I' for Inactive)
REMARK    1  A    between atoms: C_1  and  C_2
REMARK    2  A    between atoms: C_6  and  N_7
REMARK    3  A    between atoms: C_8  and  C_10
REMARK    4  A    between atoms: C_10  and  S_11
REMARK    5  A    between atoms: S_11  and  C_12
REMARK    6  A    between atoms: C_22  and  C_23
REMARK                            x       y       z     vdW  Elec       q    Type
REMARK                         _______ _______ _______ _____ _____    ______ ____
ROOT
ATOM      1  N   UNL     1       2.505   7.391  19.154  0.00  0.00    +0.000 N 
ATOM      2  C   UNL     1       1.699   7.726  20.230  0.00  0.00    +0.000 C 
ATOM      3  O   UNL     1       1.301   6.901  21.049  0.00  0.00    +0.000 OA
ATOM      4  H   UNL     1       2.817   8.133  18.538  0.00  0.00    +0.000 HD
ENDROOT
BRANCH   1  10
ATOM      5  C   UNL     1       4.899   3.650  19.308  0.00  0.00    +0.000 C 
ATOM      6  C   UNL     1       4.698   4.439  18.006  0.00  0.00    +0.000 C 
ATOM      7  C   UNL     1       3.659   3.751  17.103  0.00  0.00    +0.000 C 
ATOM      8  C   UNL     1       2.229   3.890  17.621  0.00  0.00    +0.000 C 
ATOM      9  C   UNL     1       1.853   5.338  17.941  0.00  0.00    +0.000 C 
ATOM     10  C   UNL     1       2.883   6.015  18.859  0.00  0.00    +0.000 C 
ATOM     11  C   UNL     1       4.317   5.915  18.286  0.00  0.00    +0.000 C 
ATOM     12  C   UNL     1       4.501   6.770  17.019  0.00  0.00    +0.000 C 
ENDBRANCH   1  10
BRANCH   2  13
ATOM     13  C   UNL     1       1.354   9.210  20.338  0.00  0.00    +0.000 C 
BRANCH  13  14
ATOM     14  S   UNL     1       0.819   9.782  18.694  0.00  0.00    +0.000 S 
BRANCH  14  15
ATOM     15  C   UNL     1      -0.653  10.749  19.047  0.00  0.00    +0.000 A 
ATOM     16  N   UNL     1      -0.650  11.501  20.162  0.00  0.00    +0.000 NA
ATOM     17  C   UNL     1      -1.768  12.206  20.381  0.00  0.00    +0.000 A 
ATOM     18  N   UNL     1      -2.855  12.241  19.593  0.00  0.00    +0.000 NA
ATOM     19  C   UNL     1      -2.832  11.491  18.489  0.00  0.00    +0.000 A 
ATOM     20  C   UNL     1      -3.938  11.503  17.639  0.00  0.00    +0.000 A 
ATOM     21  C   UNL     1      -3.987  10.739  16.466  0.00  0.00    +0.000 A 
ATOM     22  C   UNL     1      -2.914   9.932  16.128  0.00  0.00    +0.000 A 
ATOM     23  C   UNL     1      -1.798   9.903  16.960  0.00  0.00    +0.000 A 
ATOM     24  C   UNL     1      -1.738  10.688  18.147  0.00  0.00    +0.000 A 
ENDBRANCH  14  15
ENDBRANCH  13  14
ENDBRANCH   2  13
TORSDOF 4
ENDMDL
MODEL 2
REMARK VINA RESULT:      -7.3      6.979     10.039
REMARK  Name = 
REMARK  6 active torsions:
REMARK  status: ('A' for Active; 'I' for Inactive)
REMARK    1  A    between atoms: C_1  and  C_2
REMARK    2  A    between atoms: C_6  and  N_7
REMARK    3  A    between atoms: C_8  and  C_10
REMARK    4  A    between atoms: C_10  and  S_11
REMARK    5  A    between atoms: S_11  and  C_12
REMARK    6  A    between atoms: C_22  and  C_23
REMARK                            x       y       z     vdW  Elec       q    Type
REMARK                         _______ _______ _______ _____ _____    ______ ____
ROOT
ATOM      1  N   UNL     1       8.870  10.812  17.839  0.00  0.00    +0.000 N 
ATOM      2  C   UNL     1       8.663   9.564  18.403  0.00  0.00    +0.000 C 
ATOM      3  O   UNL     1       9.129   9.238  19.492  0.00  0.00    +0.000 OA
ATOM      4  H   UNL     1       8.428  11.017  16.950  0.00  0.00    +0.000 HD
ENDROOT
BRANCH   1  10
ATOM      5  C   UNL     1      10.351  13.623  20.946  0.00  0.00    +0.000 C 
ATOM      6  C   UNL     1       9.867  14.106  19.570  0.00  0.00    +0.000 C 
ATOM      7  C   UNL     1      11.059  14.461  18.665  0.00  0.00    +0.000 C 
ATOM      8  C   UNL     1      11.821  13.234  18.168  0.00  0.00    +0.000 C 
ATOM      9  C   UNL     1      10.905  12.182  17.539  0.00  0.00    +0.000 C 
ATOM     10  C   UNL     1       9.728  11.816  18.455  0.00  0.00    +0.000 C 
ATOM     11  C   UNL     1       8.932  13.068  18.897  0.00  0.00    +0.000 C 
ATOM     12  C   UNL     1       8.161  13.713  17.732  0.00  0.00    +0.000 C 
ENDBRANCH   1  10
BRANCH   2  13
ATOM     13  C   UNL     1       7.788   8.622  17.578  0.00  0.00    +0.000 C 
BRANCH  13  14
ATOM     14  S   UNL     1       7.868   6.971  18.340  0.00  0.00    +0.000 S 
BRANCH  14  15
ATOM     15  C   UNL     1       6.949   5.936  17.194  0.00  0.00    +0.000 A 
ATOM     16  N   UNL     1       7.455   5.777  15.959  0.00  0.00    +0.000 NA
ATOM     17  C   UNL     1       6.736   4.996  15.141  0.00  0.00    +0.000 A 
ATOM     18  N   UNL     1       5.596   4.358  15.448  0.00  0.00    +0.000 NA
ATOM     19  C   UNL     1       5.116   4.527  16.683  0.00  0.00    +0.000 A 
ATOM     20  C   UNL     1       3.937   3.877  17.047  0.00  0.00    +0.000 A 
ATOM     21  C   UNL     1       3.372   4.010  18.321  0.00  0.00    +0.000 A 
ATOM     22  C   UNL     1       3.988   4.817  19.263  0.00  0.00    +0.000 A 
ATOM     23  C   UNL     1       5.167   5.476  18.924  0.00  0.00    +0.000 A 
ATOM     24  C   UNL     1       5.752   5.334  17.634  0.00  0.00    +0.000 A 
ENDBRANCH  14  15
ENDBRANCH  13  14
ENDBRANCH   2  13
TORSDOF 4
ENDMDL
MODEL 3
REMARK VINA RESULT:      -7.3      5.312      8.468
REMARK  Name = 
REMARK  6 active torsions:
REMARK  status: ('A' for Active; 'I' for Inactive)
REMARK    1  A    between atoms: C_1  and  C_2
REMARK    2  A    between atoms: C_6  and  N_7
REMARK    3  A    between atoms: C_8  and  C_10
REMARK    4  A    between atoms: C_10  and  S_11
REMARK    5  A    between atoms: S_11  and  C_12
REMARK    6  A    between atoms: C_22  and  C_23
REMARK                            x       y       z     vdW  Elec       q    Type
REMARK                         _______ _______ _______ _____ _____    ______ ____
ROOT
ATOM      1  N   UNL     1       8.615   8.654  18.846  0.00  0.00    +0.000 N 
ATOM      2  C   UNL     1       8.020   7.739  17.993  0.00  0.00    +0.000 C 
ATOM      3  O   UNL     1       7.901   7.931  16.785  0.00  0.00    +0.000 OA
ATOM      4  H   UNL     1       8.703   8.410  19.826  0.00  0.00    +0.000 HD
ENDROOT
BRANCH   1  10
ATOM      5  C   UNL     1      11.498  11.871  17.802  0.00  0.00    +0.000 C 
ATOM      6  C   UNL     1      10.464  12.032  18.926  0.00  0.00    +0.000 C 
ATOM      7  C   UNL     1       9.293  12.918  18.469  0.00  0.00    +0.000 C 
ATOM      8  C   UNL     1       8.368  12.222  17.472  0.00  0.00    +0.000 C 
ATOM      9  C   UNL     1       7.904  10.847  17.956  0.00  0.00    +0.000 C 
ATOM     10  C   UNL     1       9.078   9.959  18.392  0.00  0.00    +0.000 C 
ATOM     11  C   UNL     1       9.968  10.660  19.448  0.00  0.00    +0.000 C 
ATOM     12  C   UNL     1       9.252  10.822  20.800  0.00  0.00    +0.000 C 
ENDBRANCH   1  10
BRANCH   2  13
ATOM     13  C   UNL     1       7.537   6.454  18.663  0.00  0.00    +0.000 C 
BRANCH  13  14
ATOM     14  S   UNL     1       6.706   5.440  17.399  0.00  0.00    +0.000 S 
BRANCH  14  15
ATOM     15  C   UNL     1       4.967   5.825  17.633  0.00  0.00    +0.000 A 
ATOM     16  N   UNL     1       4.617   7.123  17.668  0.00  0.00    +0.000 NA
ATOM     17  C   UNL     1       3.310   7.360  17.842  0.00  0.00    +0.000 A 
ATOM     18  N   UNL     1       2.342   6.437  17.959  0.00  0.00    +0.000 NA
ATOM     19  C   UNL     1       2.713   5.155  17.915  0.00  0.00    +0.000 A 
ATOM     20  C   UNL     1       1.738   4.163  18.026  0.00  0.00    +0.000 A 
ATOM     21  C   UNL     1       2.053   2.799  17.993  0.00  0.00    +0.000 A 
ATOM     22  C   UNL     1       3.373   2.403  17.854  0.00  0.00    +0.000 A 
ATOM     23  C   UNL     1       4.364   3.374  17.740  0.00  0.00    +0.000 A 
ATOM     24  C   UNL     1       4.048   4.763  17.760  0.00  0.00    +0.000 A 
ENDBRANCH  14  15
ENDBRANCH  13  14
ENDBRANCH   2  13
TORSDOF 4
ENDMDL
MODEL 4
REMARK VINA RESULT:      -7.3      2.106      8.170
REMARK  Name = 
REMARK  6 active torsions:
REMARK  status: ('A' for Active; 'I' for Inactive)
REMARK    1  A    between atoms: C_1  and  C_2
REMARK    2  A    between atoms: C_6  and  N_7
REMARK    3  A    between atoms: C_8  and  C_10
REMARK    4  A    between atoms: C_10  and  S_11
REMARK    5  A    between atoms: S_11  and  C_12
REMARK    6  A    between atoms: C_22  and  C_23
REMARK                            x       y       z     vdW  Elec       q    Type
REMARK                         _______ _______ _______ _____ _____    ______ ____
ROOT
ATOM      1  N   UNL     1       0.955   9.323  19.590  0.00  0.00    +0.000 N 
ATOM      2  C   UNL     1       1.248   8.654  20.767  0.00  0.00    +0.000 C 
ATOM      3  O   UNL     1       1.074   9.148  21.878  0.00  0.00    +0.000 OA
ATOM      4  H   UNL     1       1.099   8.837  18.712  0.00  0.00    +0.000 HD
ENDROOT
BRANCH   1  10
ATOM      5  C   UNL     1      -1.588  12.829  20.587  0.00  0.00    +0.000 C 
ATOM      6  C   UNL     1      -1.469  12.286  19.155  0.00  0.00    +0.000 C 
ATOM      7  C   UNL     1      -0.550  13.180  18.305  0.00  0.00    +0.000 C 
ATOM      8  C   UNL     1       0.927  13.043  18.674  0.00  0.00    +0.000 C 
ATOM      9  C   UNL     1       1.397  11.588  18.705  0.00  0.00    +0.000 C 
ATOM     10  C   UNL     1       0.488  10.703  19.571  0.00  0.00    +0.000 C 
ATOM     11  C   UNL     1      -0.996  10.810  19.141  0.00  0.00    +0.000 C 
ATOM     12  C   UNL     1      -1.253  10.173  17.764  0.00  0.00    +0.000 C 
ENDBRANCH   1  10
BRANCH   2  13
ATOM     13  C   UNL     1       1.790   7.238  20.583  0.00  0.00    +0.000 C 
BRANCH  13  14
ATOM     14  S   UNL     1       2.475   7.113  18.901  0.00  0.00    +0.000 S 
BRANCH  14  15
ATOM     15  C   UNL     1       3.525   5.657  18.984  0.00  0.00    +0.000 A 
ATOM     16  N   UNL     1       4.847   5.852  19.132  0.00  0.00    +0.000 NA
ATOM     17  C   UNL     1       5.588   4.738  19.191  0.00  0.00    +0.000 A 
ATOM     18  N   UNL     1       5.134   3.475  19.137  0.00  0.00    +0.000 NA
ATOM     19  C   UNL     1       3.817   3.307  18.995  0.00  0.00    +0.000 A 
ATOM     20  C   UNL     1       3.301   2.012  18.942  0.00  0.00    +0.000 A 
ATOM     21  C   UNL     1       1.933   1.758  18.790  0.00  0.00    +0.000 A 
ATOM     22  C   UNL     1       1.047   2.817  18.679  0.00  0.00    +0.000 A 
ATOM     23  C   UNL     1       1.537   4.119  18.731  0.00  0.00    +0.000 A 
ATOM     24  C   UNL     1       2.927   4.383  18.898  0.00  0.00    +0.000 A 
ENDBRANCH  14  15
ENDBRANCH  13  14
ENDBRANCH   2  13
TORSDOF 4
ENDMDL
MODEL 5
REMARK VINA RESULT:      -7.3      2.730      8.163
REMARK  Name = 
REMARK  6 active torsions:
REMARK  status: ('A' for Active; 'I' for Inactive)
REMARK    1  A    between atoms: C_1  and  C_2
REMARK    2  A    between atoms: C_6  and  N_7
REMARK    3  A    between atoms: C_8  and  C_10
REMARK    4  A    between atoms: C_10  and  S_11
REMARK    5  A    between atoms: S_11  and  C_12
REMARK    6  A    between atoms: C_22  and  C_23
REMARK                            x       y       z     vdW  Elec       q    Type
REMARK                         _______ _______ _______ _____ _____    ______ ____
ROOT
ATOM      1  N   UNL     1       0.974   9.667  19.933  0.00  0.00    +0.000 N 
ATOM      2  C   UNL     1       0.870   9.417  18.575  0.00  0.00    +0.000 C 
ATOM      3  O   UNL     1      -0.031   9.876  17.878  0.00  0.00    +0.000 OA
ATOM      4  H   UNL     1       1.763   9.277  20.435  0.00  0.00    +0.000 HD
ENDROOT
BRANCH   1  10
ATOM      5  C   UNL     1      -2.394  12.494  20.582  0.00  0.00    +0.000 C 
ATOM      6  C   UNL     1      -0.997  12.736  21.173  0.00  0.00    +0.000 C 
ATOM      7  C   UNL     1      -0.973  12.403  22.675  0.00  0.00    +0.000 C 
ATOM      8  C   UNL     1      -1.030  10.903  22.957  0.00  0.00    +0.000 C 
ATOM      9  C   UNL     1       0.016  10.112  22.168  0.00  0.00    +0.000 C 
ATOM     10  C   UNL     1      -0.026  10.433  20.666  0.00  0.00    +0.000 C 
ATOM     11  C   UNL     1       0.094  11.953  20.400  0.00  0.00    +0.000 C 
ATOM     12  C   UNL     1       1.493  12.497  20.741  0.00  0.00    +0.000 C 
ENDBRANCH   1  10
BRANCH   2  13
ATOM     13  C   UNL     1       1.978   8.540  17.996  0.00  0.00    +0.000 C 
BRANCH  13  14
ATOM     14  S   UNL     1       2.439   7.312  19.259  0.00  0.00    +0.000 S 
BRANCH  14  15
ATOM     15  C   UNL     1       3.077   5.938  18.294  0.00  0.00    +0.000 A 
ATOM     16  N   UNL     1       4.094   6.190  17.451  0.00  0.00    +0.000 NA
ATOM     17  C   UNL     1       4.537   5.134  16.755  0.00  0.00    +0.000 A 
ATOM     18  N   UNL     1       4.079   3.875  16.841  0.00  0.00    +0.000 NA
ATOM     19  C   UNL     1       3.072   3.648  17.689  0.00  0.00    +0.000 A 
ATOM     20  C   UNL     1       2.570   2.353  17.814  0.00  0.00    +0.000 A 
ATOM     21  C   UNL     1       1.514   2.041  18.679  0.00  0.00    +0.000 A 
ATOM     22  C   UNL     1       0.931   3.041  19.438  0.00  0.00    +0.000 A 
ATOM     23  C   UNL     1       1.416   4.342  19.332  0.00  0.00    +0.000 A 
ATOM     24  C   UNL     1       2.497   4.663  18.463  0.00  0.00    +0.000 A 
ENDBRANCH  14  15
ENDBRANCH  13  14
ENDBRANCH   2  13
TORSDOF 4
ENDMDL
MODEL 6
REMARK VINA RESULT:      -7.2      1.462      2.203
REMARK  Name = 
REMARK  6 active torsions:
REMARK  status: ('A' for Active; 'I' for Inactive)
REMARK    1  A    between atoms: C_1  and  C_2
REMARK    2  A    between atoms: C_6  and  N_7
REMARK    3  A    between atoms: C_8  and  C_10
REMARK    4  A    between atoms: C_10  and  S_11
REMARK    5  A    between atoms: S_11  and  C_12
REMARK    6  A    between atoms: C_22  and  C_23
REMARK                            x       y       z     vdW  Elec       q    Type
REMARK                         _______ _______ _______ _____ _____    ______ ____
ROOT
ATOM      1  N   UNL     1       2.272   6.404  19.855  0.00  0.00    +0.000 N 
ATOM      2  C   UNL     1       2.066   7.508  19.045  0.00  0.00    +0.000 C 
ATOM      3  O   UNL     1       2.280   7.499  17.835  0.00  0.00    +0.000 OA
ATOM      4  H   UNL     1       2.044   6.481  20.840  0.00  0.00    +0.000 HD
ENDROOT
BRANCH   1  10
ATOM      5  C   UNL     1       2.382   2.438  17.853  0.00  0.00    +0.000 C 
ATOM      6  C   UNL     1       2.716   2.612  19.342  0.00  0.00    +0.000 C 
ATOM      7  C   UNL     1       4.236   2.550  19.573  0.00  0.00    +0.000 C 
ATOM      8  C   UNL     1       4.969   3.795  19.077  0.00  0.00    +0.000 C 
ATOM      9  C   UNL     1       4.352   5.093  19.602  0.00  0.00    +0.000 C 
ATOM     10  C   UNL     1       2.838   5.159  19.351  0.00  0.00    +0.000 C 
ATOM     11  C   UNL     1       2.108   3.917  19.915  0.00  0.00    +0.000 C 
ATOM     12  C   UNL     1       2.112   3.885  21.454  0.00  0.00    +0.000 C 
ENDBRANCH   1  10
BRANCH   2  13
ATOM     13  C   UNL     1       1.529   8.743  19.766  0.00  0.00    +0.000 C 
BRANCH  13  14
ATOM     14  S   UNL     1       1.295  10.057  18.528  0.00  0.00    +0.000 S 
BRANCH  14  15
ATOM     15  C   UNL     1      -0.142  10.950  19.132  0.00  0.00    +0.000 A 
ATOM     16  N   UNL     1       0.021  11.729  20.216  0.00  0.00    +0.000 NA
ATOM     17  C   UNL     1      -1.078  12.376  20.628  0.00  0.00    +0.000 A 
ATOM     18  N   UNL     1      -2.290  12.331  20.054  0.00  0.00    +0.000 NA
ATOM     19  C   UNL     1      -2.427  11.556  18.975  0.00  0.00    +0.000 A 
ATOM     20  C   UNL     1      -3.668  11.486  18.343  0.00  0.00    +0.000 A 
ATOM     21  C   UNL     1      -3.887  10.691  17.211  0.00  0.00    +0.000 A 
ATOM     22  C   UNL     1      -2.848   9.936  16.692  0.00  0.00    +0.000 A 
ATOM     23  C   UNL     1      -1.599   9.990  17.305  0.00  0.00    +0.000 A 
ATOM     24  C   UNL     1      -1.368  10.806  18.449  0.00  0.00    +0.000 A 
ENDBRANCH  14  15
ENDBRANCH  13  14
ENDBRANCH   2  13
TORSDOF 4
ENDMDL
MODEL 7
REMARK VINA RESULT:      -7.2      1.313      1.868
REMARK  Name = 
REMARK  6 active torsions:
REMARK  status: ('A' for Active; 'I' for Inactive)
REMARK    1  A    between atoms: C_1  and  C_2
REMARK    2  A    between atoms: C_6  and  N_7
REMARK    3  A    between atoms: C_8  and  C_10
REMARK    4  A    between atoms: C_10  and  S_11
REMARK    5  A    between atoms: S_11  and  C_12
REMARK    6  A    between atoms: C_22  and  C_23
REMARK                            x       y       z     vdW  Elec       q    Type
REMARK                         _______ _______ _______ _____ _____    ______ ____
ROOT
ATOM      1  N   UNL     1       2.414   6.542  19.314  0.00  0.00    +0.000 N 
ATOM      2  C   UNL     1       2.356   7.779  18.693  0.00  0.00    +0.000 C 
ATOM      3  O   UNL     1       2.971   8.038  17.661  0.00  0.00    +0.000 OA
ATOM      4  H   UNL     1       1.855   6.396  20.146  0.00  0.00    +0.000 HD
ENDROOT
BRANCH   1  10
ATOM      5  C   UNL     1       4.910   4.214  16.467  0.00  0.00    +0.000 C 
ATOM      6  C   UNL     1       3.635   3.636  17.100  0.00  0.00    +0.000 C 
ATOM      7  C   UNL     1       3.983   2.650  18.228  0.00  0.00    +0.000 C 
ATOM      8  C   UNL     1       4.511   3.339  19.485  0.00  0.00    +0.000 C 
ATOM      9  C   UNL     1       3.603   4.475  19.963  0.00  0.00    +0.000 C 
ATOM     10  C   UNL     1       3.276   5.468  18.837  0.00  0.00    +0.000 C 
ATOM     11  C   UNL     1       2.686   4.756  17.596  0.00  0.00    +0.000 C 
ATOM     12  C   UNL     1       1.278   4.192  17.860  0.00  0.00    +0.000 C 
ENDBRANCH   1  10
BRANCH   2  13
ATOM     13  C   UNL     1       1.449   8.800  19.376  0.00  0.00    +0.000 C 
BRANCH  13  14
ATOM     14  S   UNL     1       1.393  10.289  18.331  0.00  0.00    +0.000 S 
BRANCH  14  15
ATOM     15  C   UNL     1      -0.034  11.185  18.955  0.00  0.00    +0.000 A 
ATOM     16  N   UNL     1       0.172  12.068  19.947  0.00  0.00    +0.000 NA
ATOM     17  C   UNL     1      -0.921  12.713  20.378  0.00  0.00    +0.000 A 
ATOM     18  N   UNL     1      -2.168  12.572  19.901  0.00  0.00    +0.000 NA
ATOM     19  C   UNL     1      -2.347  11.693  18.912  0.00  0.00    +0.000 A 
ATOM     20  C   UNL     1      -3.626  11.520  18.383  0.00  0.00    +0.000 A 
ATOM     21  C   UNL     1      -3.891  10.614  17.349  0.00  0.00    +0.000 A 
ATOM     22  C   UNL     1      -2.861   9.849  16.826  0.00  0.00    +0.000 A 
ATOM     23  C   UNL     1      -1.575  10.005  17.337  0.00  0.00    +0.000 A 
ATOM     24  C   UNL     1      -1.298  10.934  18.380  0.00  0.00    +0.000 A 
ENDBRANCH  14  15
ENDBRANCH  13  14
ENDBRANCH   2  13
TORSDOF 4
ENDMDL
MODEL 8
REMARK VINA RESULT:      -7.2      2.398      8.242
REMARK  Name = 
REMARK  6 active torsions:
REMARK  status: ('A' for Active; 'I' for Inactive)
REMARK    1  A    between atoms: C_1  and  C_2
REMARK    2  A    between atoms: C_6  and  N_7
REMARK    3  A    between atoms: C_8  and  C_10
REMARK    4  A    between atoms: C_10  and  S_11
REMARK    5  A    between atoms: S_11  and  C_12
REMARK    6  A    between atoms: C_22  and  C_23
REMARK                            x       y       z     vdW  Elec       q    Type
REMARK                         _______ _______ _______ _____ _____    ______ ____
ROOT
ATOM      1  N   UNL     1       0.759   9.380  18.795  0.00  0.00    +0.000 N 
ATOM      2  C   UNL     1       1.924   9.349  18.046  0.00  0.00    +0.000 C 
ATOM      3  O   UNL     1       2.414  10.351  17.532  0.00  0.00    +0.000 OA
ATOM      4  H   UNL     1       0.433   8.516  19.212  0.00  0.00    +0.000 HD
ENDROOT
BRANCH   1  10
ATOM      5  C   UNL     1      -0.093  13.637  19.746  0.00  0.00    +0.000 C 
ATOM      6  C   UNL     1      -0.714  12.481  20.543  0.00  0.00    +0.000 C 
ATOM      7  C   UNL     1      -2.183  12.265  20.141  0.00  0.00    +0.000 C 
ATOM      8  C   UNL     1      -2.339  11.634  18.758  0.00  0.00    +0.000 C 
ATOM      9  C   UNL     1      -1.496  10.369  18.586  0.00  0.00    +0.000 C 
ATOM     10  C   UNL     1      -0.026  10.595  18.970  0.00  0.00    +0.000 C 
ATOM     11  C   UNL     1       0.112  11.177  20.397  0.00  0.00    +0.000 C 
ATOM     12  C   UNL     1      -0.284  10.162  21.484  0.00  0.00    +0.000 C 
ENDBRANCH   1  10
BRANCH   2  13
ATOM     13  C   UNL     1       2.571   7.971  17.920  0.00  0.00    +0.000 C 
BRANCH  13  14
ATOM     14  S   UNL     1       2.374   7.111  19.513  0.00  0.00    +0.000 S 
BRANCH  14  15
ATOM     15  C   UNL     1       3.421   5.662  19.338  0.00  0.00    +0.000 A 
ATOM     16  N   UNL     1       4.752   5.854  19.334  0.00  0.00    +0.000 NA
ATOM     17  C   UNL     1       5.491   4.744  19.204  0.00  0.00    +0.000 A 
ATOM     18  N   UNL     1       5.029   3.487  19.100  0.00  0.00    +0.000 NA
ATOM     19  C   UNL     1       3.704   3.322  19.111  0.00  0.00    +0.000 A 
ATOM     20  C   UNL     1       3.182   2.032  19.013  0.00  0.00    +0.000 A 
ATOM     21  C   UNL     1       1.804   1.781  19.013  0.00  0.00    +0.000 A 
ATOM     22  C   UNL     1       0.915   2.839  19.106  0.00  0.00    +0.000 A 
ATOM     23  C   UNL     1       1.412   4.136  19.207  0.00  0.00    +0.000 A 
ATOM     24  C   UNL     1       2.812   4.395  19.219  0.00  0.00    +0.000 A 
ENDBRANCH  14  15
ENDBRANCH  13  14
ENDBRANCH   2  13
TORSDOF 4
ENDMDL
MODEL 9
REMARK VINA RESULT:      -7.2      1.520      1.891
REMARK  Name = 
REMARK  6 active torsions:
REMARK  status: ('A' for Active; 'I' for Inactive)
REMARK    1  A    between atoms: C_1  and  C_2
REMARK    2  A    between atoms: C_6  and  N_7
REMARK    3  A    between atoms: C_8  and  C_10
REMARK    4  A    between atoms: C_10  and  S_11
REMARK    5  A    between atoms: S_11  and  C_12
REMARK    6  A    between atoms: C_22  and  C_23
REMARK                            x       y       z     vdW  Elec       q    Type
REMARK                         _______ _______ _______ _____ _____    ______ ____
ROOT
ATOM      1  N   UNL     1       2.525   6.246  18.696  0.00  0.00    +0.000 N 
ATOM      2  C   UNL     1       2.166   7.393  19.385  0.00  0.00    +0.000 C 
ATOM      3  O   UNL     1       1.614   7.368  20.482  0.00  0.00    +0.000 OA
ATOM      4  H   UNL     1       3.004   6.348  17.810  0.00  0.00    +0.000 HD
ENDROOT
BRANCH   1  10
ATOM      5  C   UNL     1       2.208   2.868  21.568  0.00  0.00    +0.000 C 
ATOM      6  C   UNL     1       3.064   2.783  20.295  0.00  0.00    +0.000 C 
ATOM      7  C   UNL     1       2.358   1.946  19.215  0.00  0.00    +0.000 C 
ATOM      8  C   UNL     1       1.167   2.665  18.584  0.00  0.00    +0.000 C 
ATOM      9  C   UNL     1       1.517   4.071  18.094  0.00  0.00    +0.000 C 
ATOM     10  C   UNL     1       2.204   4.910  19.182  0.00  0.00    +0.000 C 
ATOM     11  C   UNL     1       3.443   4.189  19.766  0.00  0.00    +0.000 C 
ATOM     12  C   UNL     1       4.595   4.092  18.750  0.00  0.00    +0.000 C 
ENDBRANCH   1  10
BRANCH   2  13
ATOM     13  C   UNL     1       2.528   8.702  18.686  0.00  0.00    +0.000 C 
BRANCH  13  14
ATOM     14  S   UNL     1       1.132   9.171  17.616  0.00  0.00    +0.000 S 
BRANCH  14  15
ATOM     15  C   UNL     1       0.162  10.273  18.652  0.00  0.00    +0.000 A 
ATOM     16  N   UNL     1       0.767  10.804  19.730  0.00  0.00    +0.000 NA
ATOM     17  C   UNL     1       0.005  11.621  20.470  0.00  0.00    +0.000 A 
ATOM     18  N   UNL     1      -1.270  11.963  20.222  0.00  0.00    +0.000 NA
ATOM     19  C   UNL     1      -1.847  11.427  19.144  0.00  0.00    +0.000 A 
ATOM     20  C   UNL     1      -3.168  11.761  18.845  0.00  0.00    +0.000 A 
ATOM     21  C   UNL     1      -3.839  11.235  17.735  0.00  0.00    +0.000 A 
ATOM     22  C   UNL     1      -3.187  10.347  16.896  0.00  0.00    +0.000 A 
ATOM     23  C   UNL     1      -1.867   9.999  17.172  0.00  0.00    +0.000 A 
ATOM     24  C   UNL     1      -1.176  10.540  18.294  0.00  0.00    +0.000 A 
ENDBRANCH  14  15
ENDBRANCH  13  14
ENDBRANCH   2  13
TORSDOF 4
ENDMDL
