MODEL 1
REMARK VINA RESULT:      -7.4      0.000      0.000
REMARK  Name = 
REMARK  13 active torsions:
REMARK  status: ('A' for Active; 'I' for Inactive)
REMARK    1  A    between atoms: C_1  and  C_2
REMARK    2  A    between atoms: C_2  and  O_3
REMARK    3  A    between atoms: O_3  and  C_4
REMARK    4  A    between atoms: C_4  and  C_6
REMARK    5  A    between atoms: C_6  and  O_7
REMARK    6  A    between atoms: O_7  and  C_8
REMARK    7  A    between atoms: C_11  and  C_12
REMARK    8  A    between atoms: C_12  and  C_14
REMARK    9  A    between atoms: C_18  and  O_19
REMARK   10  A    between atoms: C_20  and  C_21
REMARK   11  A    between atoms: C_21  and  N_22
REMARK   12  A    between atoms: N_22  and  C_23
REMARK   13  A    between atoms: N_22  and  C_24
REMARK                            x       y       z     vdW  Elec       q    Type
REMARK                         _______ _______ _______ _____ _____    ______ ____
ROOT
ATOM      1  C   UNL     1       3.834   5.883  17.503  0.00  0.00    +0.000 A 
ATOM      2  C   UNL     1       3.723   7.246  17.193  0.00  0.00    +0.000 A 
ATOM      3  C   UNL     1       2.943   8.083  17.978  0.00  0.00    +0.000 A 
ATOM      4  C   UNL     1       2.255   7.601  19.106  0.00  0.00    +0.000 A 
ATOM      5  C   UNL     1       2.375   6.225  19.434  0.00  0.00    +0.000 A 
ATOM      6 CL   UNL     1       1.556   5.531  20.839  0.00  0.00    +0.000 Cl
ATOM      7  C   UNL     1       3.150   5.375  18.618  0.00  0.00    +0.000 A 
ATOM      8 CL   UNL     1       3.306   3.658  18.994  0.00  0.00    +0.000 Cl
ENDROOT
BRANCH   4   9
ATOM      9  C   UNL     1       1.476   8.567  19.946  0.00  0.00    +0.000 C 
ATOM     10  O   UNL     1       1.458   8.419  21.159  0.00  0.00    +0.000 OA
BRANCH   9  11
ATOM     11  C   UNL     1       0.807   9.767  19.367  0.00  0.00    +0.000 A 
ATOM     12  C   UNL     1       1.542  10.939  19.143  0.00  0.00    +0.000 A 
ATOM     13  C   UNL     1       0.937  12.063  18.576  0.00  0.00    +0.000 A 
ATOM     14 CL   UNL     1       1.936  13.480  18.278  0.00  0.00    +0.000 Cl
ATOM     15  C   UNL     1      -0.435  12.040  18.245  0.00  0.00    +0.000 A 
ATOM     16  C   UNL     1      -1.193  10.878  18.492  0.00  0.00    +0.000 A 
ATOM     17  C   UNL     1      -0.566   9.754  19.049  0.00  0.00    +0.000 A 
BRANCH  15  18
ATOM     18  O   UNL     1      -1.032  13.116  17.689  0.00  0.00    +0.000 OA
ATOM     19  H   UNL     1      -1.351  13.138  16.777  0.00  0.00    +0.000 HD
ENDBRANCH  15  18
BRANCH  16  20
ATOM     20  C   UNL     1      -2.670  10.805  18.146  0.00  0.00    +0.000 C 
BRANCH  20  21
ATOM     21  N   UNL     1      -2.929  11.125  16.726  0.00  0.00    +0.000 NA
ATOM     22  C   UNL     1      -2.539  10.015  15.837  0.00  0.00    +0.000 C 
ATOM     23  C   UNL     1      -4.361  11.417  16.535  0.00  0.00    +0.000 C 
ENDBRANCH  20  21
ENDBRANCH  16  20
ENDBRANCH   9  11
ENDBRANCH   4   9
BRANCH   1  24
ATOM     24  O   UNL     1       4.594   5.039  16.765  0.00  0.00    +0.000 OA
BRANCH  24  25
ATOM     25  C   UNL     1       5.714   5.391  16.043  0.00  0.00    +0.000 C 
BRANCH  25  26
ATOM     26  C   UNL     1       6.905   5.314  16.933  0.00  0.00    +0.000 C 
ATOM     27  O   UNL     1       7.825   4.555  16.655  0.00  0.00    +0.000 OA
BRANCH  26  28
ATOM     28  O   UNL     1       6.952   6.108  18.032  0.00  0.00    +0.000 OA
BRANCH  28  30
ATOM     29  C   UNL     1       7.923   8.242  17.759  0.00  0.00    +0.000 C 
ATOM     30  C   UNL     1       8.028   6.878  18.421  0.00  0.00    +0.000 C 
ENDBRANCH  28  30
ENDBRANCH  26  28
ENDBRANCH  25  26
ENDBRANCH  24  25
ENDBRANCH   1  24
TORSDOF 10
ENDMDL
MODEL 2
REMARK VINA RESULT:      -7.2      3.248      8.499
REMARK  Name = 
REMARK  13 active torsions:
REMARK  status: ('A' for Active; 'I' for Inactive)
REMARK    1  A    between atoms: C_1  and  C_2
REMARK    2  A    between atoms: C_2  and  O_3
REMARK    3  A    between atoms: O_3  and  C_4
REMARK    4  A    between atoms: C_4  and  C_6
REMARK    5  A    between atoms: C_6  and  O_7
REMARK    6  A    between atoms: O_7  and  C_8
REMARK    7  A    between atoms: C_11  and  C_12
REMARK    8  A    between atoms: C_12  and  C_14
REMARK    9  A    between atoms: C_18  and  O_19
REMARK   10  A    between atoms: C_20  and  C_21
REMARK   11  A    between atoms: C_21  and  N_22
REMARK   12  A    between atoms: N_22  and  C_23
REMARK   13  A    between atoms: N_22  and  C_24
REMARK                            x       y       z     vdW  Elec       q    Type
REMARK                         _______ _______ _______ _____ _____    ______ ____
ROOT
ATOM      1  C   UNL     1       1.454   9.475  19.349  0.00  0.00    +0.000 A 
ATOM      2  C   UNL     1       1.889   9.267  18.032  0.00  0.00    +0.000 A 
ATOM      3  C   UNL     1       2.314   8.011  17.624  0.00  0.00    +0.000 A 
ATOM      4  C   UNL     1       2.310   6.913  18.503  0.00  0.00    +0.000 A 
ATOM      5  C   UNL     1       1.857   7.114  19.834  0.00  0.00    +0.000 A 
ATOM      6 CL   UNL     1       1.806   5.792  21.006  0.00  0.00    +0.000 Cl
ATOM      7  C   UNL     1       1.449   8.398  20.249  0.00  0.00    +0.000 A 
ATOM      8 CL   UNL     1       0.894   8.679  21.900  0.00  0.00    +0.000 Cl
ENDROOT
BRANCH   4   9
ATOM      9  C   UNL     1       2.727   5.570  17.985  0.00  0.00    +0.000 C 
ATOM     10  O   UNL     1       1.865   4.763  17.666  0.00  0.00    +0.000 OA
BRANCH   9  11
ATOM     11  C   UNL     1       4.155   5.217  17.742  0.00  0.00    +0.000 A 
ATOM     12  C   UNL     1       5.132   5.572  18.682  0.00  0.00    +0.000 A 
ATOM     13  C   UNL     1       6.470   5.224  18.483  0.00  0.00    +0.000 A 
ATOM     14 CL   UNL     1       7.633   5.659  19.731  0.00  0.00    +0.000 Cl
ATOM     15  C   UNL     1       6.860   4.532  17.317  0.00  0.00    +0.000 A 
ATOM     16  C   UNL     1       5.891   4.195  16.350  0.00  0.00    +0.000 A 
ATOM     17  C   UNL     1       4.550   4.539  16.572  0.00  0.00    +0.000 A 
BRANCH  15  18
ATOM     18  O   UNL     1       8.149   4.182  17.114  0.00  0.00    +0.000 OA
ATOM     19  H   UNL     1       8.889   4.793  17.216  0.00  0.00    +0.000 HD
ENDBRANCH  15  18
BRANCH  16  20
ATOM     20  C   UNL     1       6.262   3.445  15.083  0.00  0.00    +0.000 C 
BRANCH  20  21
ATOM     21  N   UNL     1       6.186   4.304  13.881  0.00  0.00    +0.000 NA
ATOM     22  C   UNL     1       7.459   5.003  13.629  0.00  0.00    +0.000 C 
ATOM     23  C   UNL     1       5.842   3.485  12.704  0.00  0.00    +0.000 C 
ENDBRANCH  20  21
ENDBRANCH  16  20
ENDBRANCH   9  11
ENDBRANCH   4   9
BRANCH   1  24
ATOM     24  O   UNL     1       1.024  10.685  19.780  0.00  0.00    +0.000 OA
BRANCH  24  25
ATOM     25  C   UNL     1       0.127  11.499  19.121  0.00  0.00    +0.000 C 
BRANCH  25  26
ATOM     26  C   UNL     1       0.318  12.901  19.586  0.00  0.00    +0.000 C 
ATOM     27  O   UNL     1       0.174  13.175  20.770  0.00  0.00    +0.000 OA
BRANCH  26  28
ATOM     28  O   UNL     1       0.669  13.847  18.679  0.00  0.00    +0.000 OA
BRANCH  28  30
ATOM     29  C   UNL     1       1.457  16.072  18.657  0.00  0.00    +0.000 C 
ATOM     30  C   UNL     1       1.825  14.599  18.709  0.00  0.00    +0.000 C 
ENDBRANCH  28  30
ENDBRANCH  26  28
ENDBRANCH  25  26
ENDBRANCH  24  25
ENDBRANCH   1  24
TORSDOF 10
ENDMDL
MODEL 3
REMARK VINA RESULT:      -7.2      2.920      4.043
REMARK  Name = 
REMARK  13 active torsions:
REMARK  status: ('A' for Active; 'I' for Inactive)
REMARK    1  A    between atoms: C_1  and  C_2
REMARK    2  A    between atoms: C_2  and  O_3
REMARK    3  A    between atoms: O_3  and  C_4
REMARK    4  A    between atoms: C_4  and  C_6
REMARK    5  A    between atoms: C_6  and  O_7
REMARK    6  A    between atoms: O_7  and  C_8
REMARK    7  A    between atoms: C_11  and  C_12
REMARK    8  A    between atoms: C_12  and  C_14
REMARK    9  A    between atoms: C_18  and  O_19
REMARK   10  A    between atoms: C_20  and  C_21
REMARK   11  A    between atoms: C_21  and  N_22
REMARK   12  A    between atoms: N_22  and  C_23
REMARK   13  A    between atoms: N_22  and  C_24
REMARK                            x       y       z     vdW  Elec       q    Type
REMARK                         _______ _______ _______ _____ _____    ______ ____
ROOT
ATOM      1  C   UNL     1       2.577   7.103  18.623  0.00  0.00    +0.000 A 
ATOM      2  C   UNL     1       2.659   8.183  17.732  0.00  0.00    +0.000 A 
ATOM      3  C   UNL     1       2.038   9.388  18.032  0.00  0.00    +0.000 A 
ATOM      4  C   UNL     1       1.326   9.569  19.231  0.00  0.00    +0.000 A 
ATOM      5  C   UNL     1       1.252   8.483  20.144  0.00  0.00    +0.000 A 
ATOM      6 CL   UNL     1       0.389   8.621  21.680  0.00  0.00    +0.000 Cl
ATOM      7  C   UNL     1       1.864   7.254  19.822  0.00  0.00    +0.000 A 
ATOM      8 CL   UNL     1       1.777   5.885  20.932  0.00  0.00    +0.000 Cl
ENDROOT
BRANCH   4   9
ATOM      9  C   UNL     1       0.728  10.911  19.521  0.00  0.00    +0.000 C 
ATOM     10  O   UNL     1       1.452  11.807  19.933  0.00  0.00    +0.000 OA
BRANCH   9  11
ATOM     11  C   UNL     1      -0.698  11.229  19.228  0.00  0.00    +0.000 A 
ATOM     12  C   UNL     1      -1.313  10.698  18.086  0.00  0.00    +0.000 A 
ATOM     13  C   UNL     1      -2.656  10.963  17.810  0.00  0.00    +0.000 A 
ATOM     14 CL   UNL     1      -3.373  10.219  16.386  0.00  0.00    +0.000 Cl
ATOM     15  C   UNL     1      -3.407  11.795  18.668  0.00  0.00    +0.000 A 
ATOM     16  C   UNL     1      -2.793  12.360  19.805  0.00  0.00    +0.000 A 
ATOM     17  C   UNL     1      -1.447  12.072  20.073  0.00  0.00    +0.000 A 
BRANCH  15  18
ATOM     18  O   UNL     1      -4.708  12.055  18.420  0.00  0.00    +0.000 OA
ATOM     19  H   UNL     1      -5.277  12.552  19.021  0.00  0.00    +0.000 HD
ENDBRANCH  15  18
BRANCH  16  20
ATOM     20  C   UNL     1      -3.562  13.256  20.759  0.00  0.00    +0.000 C 
BRANCH  20  21
ATOM     21  N   UNL     1      -4.344  12.482  21.747  0.00  0.00    +0.000 NA
ATOM     22  C   UNL     1      -3.806  12.638  23.111  0.00  0.00    +0.000 C 
ATOM     23  C   UNL     1      -5.749  12.925  21.728  0.00  0.00    +0.000 C 
ENDBRANCH  20  21
ENDBRANCH  16  20
ENDBRANCH   9  11
ENDBRANCH   4   9
BRANCH   1  24
ATOM     24  O   UNL     1       3.177   5.916  18.368  0.00  0.00    +0.000 OA
BRANCH  24  25
ATOM     25  C   UNL     1       4.521   5.647  18.518  0.00  0.00    +0.000 C 
BRANCH  25  26
ATOM     26  C   UNL     1       4.678   4.289  19.111  0.00  0.00    +0.000 C 
ATOM     27  O   UNL     1       5.794   3.805  19.237  0.00  0.00    +0.000 OA
BRANCH  26  28
ATOM     28  O   UNL     1       3.569   3.623  19.518  0.00  0.00    +0.000 OA
BRANCH  28  30
ATOM     29  C   UNL     1       2.682   2.410  17.698  0.00  0.00    +0.000 C 
ATOM     30  C   UNL     1       3.205   2.352  19.124  0.00  0.00    +0.000 C 
ENDBRANCH  28  30
ENDBRANCH  26  28
ENDBRANCH  25  26
ENDBRANCH  24  25
ENDBRANCH   1  24
TORSDOF 10
ENDMDL
MODEL 4
REMARK VINA RESULT:      -7.2      3.509      8.619
REMARK  Name = 
REMARK  13 active torsions:
REMARK  status: ('A' for Active; 'I' for Inactive)
REMARK    1  A    between atoms: C_1  and  C_2
REMARK    2  A    between atoms: C_2  and  O_3
REMARK    3  A    between atoms: O_3  and  C_4
REMARK    4  A    between atoms: C_4  and  C_6
REMARK    5  A    between atoms: C_6  and  O_7
REMARK    6  A    between atoms: O_7  and  C_8
REMARK    7  A    between atoms: C_11  and  C_12
REMARK    8  A    between atoms: C_12  and  C_14
REMARK    9  A    between atoms: C_18  and  O_19
REMARK   10  A    between atoms: C_20  and  C_21
REMARK   11  A    between atoms: C_21  and  N_22
REMARK   12  A    between atoms: N_22  and  C_23
REMARK   13  A    between atoms: N_22  and  C_24
REMARK                            x       y       z     vdW  Elec       q    Type
REMARK                         _______ _______ _______ _____ _____    ______ ____
ROOT
ATOM      1  C   UNL     1       1.446   9.627  19.103  0.00  0.00    +0.000 A 
ATOM      2  C   UNL     1       1.957   9.343  17.828  0.00  0.00    +0.000 A 
ATOM      3  C   UNL     1       2.378   8.059  17.510  0.00  0.00    +0.000 A 
ATOM      4  C   UNL     1       2.294   7.008  18.440  0.00  0.00    +0.000 A 
ATOM      5  C   UNL     1       1.763   7.286  19.728  0.00  0.00    +0.000 A 
ATOM      6 CL   UNL     1       1.609   6.026  20.959  0.00  0.00    +0.000 Cl
ATOM      7  C   UNL     1       1.360   8.598  20.053  0.00  0.00    +0.000 A 
ATOM      8 CL   UNL     1       0.710   8.973  21.650  0.00  0.00    +0.000 Cl
ENDROOT
BRANCH   4   9
ATOM      9  C   UNL     1       2.710   5.633  18.017  0.00  0.00    +0.000 C 
ATOM     10  O   UNL     1       1.849   4.802  17.765  0.00  0.00    +0.000 OA
BRANCH   9  11
ATOM     11  C   UNL     1       4.137   5.267  17.787  0.00  0.00    +0.000 A 
ATOM     12  C   UNL     1       5.110   5.617  18.733  0.00  0.00    +0.000 A 
ATOM     13  C   UNL     1       6.447   5.258  18.547  0.00  0.00    +0.000 A 
ATOM     14 CL   UNL     1       7.603   5.688  19.802  0.00  0.00    +0.000 Cl
ATOM     15  C   UNL     1       6.840   4.558  17.386  0.00  0.00    +0.000 A 
ATOM     16  C   UNL     1       5.876   4.225  16.412  0.00  0.00    +0.000 A 
ATOM     17  C   UNL     1       4.536   4.582  16.622  0.00  0.00    +0.000 A 
BRANCH  15  18
ATOM     18  O   UNL     1       8.127   4.197  17.195  0.00  0.00    +0.000 OA
ATOM     19  H   UNL     1       8.524   4.079  16.323  0.00  0.00    +0.000 HD
ENDBRANCH  15  18
BRANCH  16  20
ATOM     20  C   UNL     1       6.251   3.468  15.151  0.00  0.00    +0.000 C 
BRANCH  20  21
ATOM     21  N   UNL     1       6.191   4.323  13.946  0.00  0.00    +0.000 NA
ATOM     22  C   UNL     1       7.431   5.099  13.766  0.00  0.00    +0.000 C 
ATOM     23  C   UNL     1       5.966   3.487  12.753  0.00  0.00    +0.000 C 
ENDBRANCH  20  21
ENDBRANCH  16  20
ENDBRANCH   9  11
ENDBRANCH   4   9
BRANCH   1  24
ATOM     24  O   UNL     1       1.018  10.865  19.445  0.00  0.00    +0.000 OA
BRANCH  24  25
ATOM     25  C   UNL     1       1.669  11.733  20.296  0.00  0.00    +0.000 C 
BRANCH  25  26
ATOM     26  C   UNL     1       0.657  12.586  20.981  0.00  0.00    +0.000 C 
ATOM     27  O   UNL     1       0.971  13.697  21.386  0.00  0.00    +0.000 OA
BRANCH  26  28
ATOM     28  O   UNL     1      -0.606  12.112  21.124  0.00  0.00    +0.000 OA
BRANCH  28  30
ATOM     29  C   UNL     1      -1.552  11.328  23.139  0.00  0.00    +0.000 C 
ATOM     30  C   UNL     1      -1.485  12.461  22.128  0.00  0.00    +0.000 C 
ENDBRANCH  28  30
ENDBRANCH  26  28
ENDBRANCH  25  26
ENDBRANCH  24  25
ENDBRANCH   1  24
TORSDOF 10
ENDMDL
MODEL 5
REMARK VINA RESULT:      -7.2      2.148      3.466
REMARK  Name = 
REMARK  13 active torsions:
REMARK  status: ('A' for Active; 'I' for Inactive)
REMARK    1  A    between atoms: C_1  and  C_2
REMARK    2  A    between atoms: C_2  and  O_3
REMARK    3  A    between atoms: O_3  and  C_4
REMARK    4  A    between atoms: C_4  and  C_6
REMARK    5  A    between atoms: C_6  and  O_7
REMARK    6  A    between atoms: O_7  and  C_8
REMARK    7  A    between atoms: C_11  and  C_12
REMARK    8  A    between atoms: C_12  and  C_14
REMARK    9  A    between atoms: C_18  and  O_19
REMARK   10  A    between atoms: C_20  and  C_21
REMARK   11  A    between atoms: C_21  and  N_22
REMARK   12  A    between atoms: N_22  and  C_23
REMARK   13  A    between atoms: N_22  and  C_24
REMARK                            x       y       z     vdW  Elec       q    Type
REMARK                         _______ _______ _______ _____ _____    ______ ____
ROOT
ATOM      1  C   UNL     1       3.967   5.767  17.396  0.00  0.00    +0.000 A 
ATOM      2  C   UNL     1       3.924   7.150  17.165  0.00  0.00    +0.000 A 
ATOM      3  C   UNL     1       3.135   7.969  17.962  0.00  0.00    +0.000 A 
ATOM      4  C   UNL     1       2.373   7.449  19.022  0.00  0.00    +0.000 A 
ATOM      5  C   UNL     1       2.425   6.051  19.270  0.00  0.00    +0.000 A 
ATOM      6 CL   UNL     1       1.510   5.308  20.587  0.00  0.00    +0.000 Cl
ATOM      7  C   UNL     1       3.209   5.221  18.442  0.00  0.00    +0.000 A 
ATOM      8 CL   UNL     1       3.281   3.480  18.719  0.00  0.00    +0.000 Cl
ENDROOT
BRANCH   4   9
ATOM      9  C   UNL     1       1.588   8.393  19.881  0.00  0.00    +0.000 C 
ATOM     10  O   UNL     1       1.627   8.264  21.095  0.00  0.00    +0.000 OA
BRANCH   9  11
ATOM     11  C   UNL     1       0.842   9.553  19.314  0.00  0.00    +0.000 A 
ATOM     12  C   UNL     1      -0.137   9.344  18.333  0.00  0.00    +0.000 A 
ATOM     13  C   UNL     1      -0.864  10.417  17.812  0.00  0.00    +0.000 A 
ATOM     14 CL   UNL     1      -2.112  10.071  16.621  0.00  0.00    +0.000 Cl
ATOM     15  C   UNL     1      -0.601  11.733  18.249  0.00  0.00    +0.000 A 
ATOM     16  C   UNL     1       0.402  11.960  19.213  0.00  0.00    +0.000 A 
ATOM     17  C   UNL     1       1.112  10.870  19.736  0.00  0.00    +0.000 A 
BRANCH  15  18
ATOM     18  O   UNL     1      -1.301  12.779  17.759  0.00  0.00    +0.000 OA
ATOM     19  H   UNL     1      -0.895  13.519  17.289  0.00  0.00    +0.000 HD
ENDBRANCH  15  18
BRANCH  16  20
ATOM     20  C   UNL     1       0.715  13.358  19.718  0.00  0.00    +0.000 C 
BRANCH  20  21
ATOM     21  N   UNL     1       1.164  14.257  18.633  0.00  0.00    +0.000 NA
ATOM     22  C   UNL     1       0.913  15.673  18.960  0.00  0.00    +0.000 C 
ATOM     23  C   UNL     1       2.605  14.065  18.390  0.00  0.00    +0.000 C 
ENDBRANCH  20  21
ENDBRANCH  16  20
ENDBRANCH   9  11
ENDBRANCH   4   9
BRANCH   1  24
ATOM     24  O   UNL     1       4.733   4.939  16.645  0.00  0.00    +0.000 OA
BRANCH  24  25
ATOM     25  C   UNL     1       6.110   4.951  16.588  0.00  0.00    +0.000 C 
BRANCH  25  26
ATOM     26  C   UNL     1       6.533   4.914  15.160  0.00  0.00    +0.000 C 
ATOM     27  O   UNL     1       7.576   5.457  14.820  0.00  0.00    +0.000 OA
BRANCH  26  28
ATOM     28  O   UNL     1       5.754   4.257  14.265  0.00  0.00    +0.000 OA
BRANCH  28  30
ATOM     29  C   UNL     1       5.027   3.462  12.165  0.00  0.00    +0.000 C 
ATOM     30  C   UNL     1       6.199   3.635  13.117  0.00  0.00    +0.000 C 
ENDBRANCH  28  30
ENDBRANCH  26  28
ENDBRANCH  25  26
ENDBRANCH  24  25
ENDBRANCH   1  24
TORSDOF 10
ENDMDL
MODEL 6
REMARK VINA RESULT:      -7.1      3.048      8.539
REMARK  Name = 
REMARK  13 active torsions:
REMARK  status: ('A' for Active; 'I' for Inactive)
REMARK    1  A    between atoms: C_1  and  C_2
REMARK    2  A    between atoms: C_2  and  O_3
REMARK    3  A    between atoms: O_3  and  C_4
REMARK    4  A    between atoms: C_4  and  C_6
REMARK    5  A    between atoms: C_6  and  O_7
REMARK    6  A    between atoms: O_7  and  C_8
REMARK    7  A    between atoms: C_11  and  C_12
REMARK    8  A    between atoms: C_12  and  C_14
REMARK    9  A    between atoms: C_18  and  O_19
REMARK   10  A    between atoms: C_20  and  C_21
REMARK   11  A    between atoms: C_21  and  N_22
REMARK   12  A    between atoms: N_22  and  C_23
REMARK   13  A    between atoms: N_22  and  C_24
REMARK                            x       y       z     vdW  Elec       q    Type
REMARK                         _______ _______ _______ _____ _____    ______ ____
ROOT
ATOM      1  C   UNL     1       1.494   9.667  19.349  0.00  0.00    +0.000 A 
ATOM      2  C   UNL     1       1.967   9.418  18.052  0.00  0.00    +0.000 A 
ATOM      3  C   UNL     1       2.347   8.137  17.678  0.00  0.00    +0.000 A 
ATOM      4  C   UNL     1       2.261   7.055  18.572  0.00  0.00    +0.000 A 
ATOM      5  C   UNL     1       1.770   7.298  19.882  0.00  0.00    +0.000 A 
ATOM      6 CL   UNL     1       1.615   5.999  21.071  0.00  0.00    +0.000 Cl
ATOM      7  C   UNL     1       1.407   8.607  20.263  0.00  0.00    +0.000 A 
ATOM      8 CL   UNL     1       0.806   8.939  21.889  0.00  0.00    +0.000 Cl
ENDROOT
BRANCH   4   9
ATOM      9  C   UNL     1       2.633   5.686  18.089  0.00  0.00    +0.000 C 
ATOM     10  O   UNL     1       1.746   4.889  17.823  0.00  0.00    +0.000 OA
BRANCH   9  11
ATOM     11  C   UNL     1       4.045   5.293  17.820  0.00  0.00    +0.000 A 
ATOM     12  C   UNL     1       5.059   5.670  18.711  0.00  0.00    +0.000 A 
ATOM     13  C   UNL     1       6.383   5.286  18.488  0.00  0.00    +0.000 A 
ATOM     14 CL   UNL     1       7.593   5.753  19.678  0.00  0.00    +0.000 Cl
ATOM     15  C   UNL     1       6.722   4.533  17.344  0.00  0.00    +0.000 A 
ATOM     16  C   UNL     1       5.717   4.172  16.424  0.00  0.00    +0.000 A 
ATOM     17  C   UNL     1       4.390   4.554  16.671  0.00  0.00    +0.000 A 
BRANCH  15  18
ATOM     18  O   UNL     1       7.997   4.147  17.118  0.00  0.00    +0.000 OA
ATOM     19  H   UNL     1       8.267   3.616  16.359  0.00  0.00    +0.000 HD
ENDBRANCH  15  18
BRANCH  16  20
ATOM     20  C   UNL     1       6.033   3.357  15.182  0.00  0.00    +0.000 C 
BRANCH  20  21
ATOM     21  N   UNL     1       6.749   4.150  14.160  0.00  0.00    +0.000 NA
ATOM     22  C   UNL     1       6.483   3.651  12.798  0.00  0.00    +0.000 C 
ATOM     23  C   UNL     1       6.338   5.562  14.246  0.00  0.00    +0.000 C 
ENDBRANCH  20  21
ENDBRANCH  16  20
ENDBRANCH   9  11
ENDBRANCH   4   9
BRANCH   1  24
ATOM     24  O   UNL     1       1.105  10.902  19.746  0.00  0.00    +0.000 OA
BRANCH  24  25
ATOM     25  C   UNL     1       0.216  11.717  19.077  0.00  0.00    +0.000 C 
BRANCH  25  26
ATOM     26  C   UNL     1      -1.160  11.437  19.572  0.00  0.00    +0.000 C 
ATOM     27  O   UNL     1      -1.418  11.566  20.762  0.00  0.00    +0.000 OA
BRANCH  26  28
ATOM     28  O   UNL     1      -2.111  11.060  18.680  0.00  0.00    +0.000 OA
BRANCH  28  30
ATOM     29  C   UNL     1      -3.317   9.799  17.090  0.00  0.00    +0.000 C 
ATOM     30  C   UNL     1      -1.958  10.099  17.702  0.00  0.00    +0.000 C 
ENDBRANCH  28  30
ENDBRANCH  26  28
ENDBRANCH  25  26
ENDBRANCH  24  25
ENDBRANCH   1  24
TORSDOF 10
ENDMDL
MODEL 7
REMARK VINA RESULT:      -7.1      3.374      4.896
REMARK  Name = 
REMARK  13 active torsions:
REMARK  status: ('A' for Active; 'I' for Inactive)
REMARK    1  A    between atoms: C_1  and  C_2
REMARK    2  A    between atoms: C_2  and  O_3
REMARK    3  A    between atoms: O_3  and  C_4
REMARK    4  A    between atoms: C_4  and  C_6
REMARK    5  A    between atoms: C_6  and  O_7
REMARK    6  A    between atoms: O_7  and  C_8
REMARK    7  A    between atoms: C_11  and  C_12
REMARK    8  A    between atoms: C_12  and  C_14
REMARK    9  A    between atoms: C_18  and  O_19
REMARK   10  A    between atoms: C_20  and  C_21
REMARK   11  A    between atoms: C_21  and  N_22
REMARK   12  A    between atoms: N_22  and  C_23
REMARK   13  A    between atoms: N_22  and  C_24
REMARK                            x       y       z     vdW  Elec       q    Type
REMARK                         _______ _______ _______ _____ _____    ______ ____
ROOT
ATOM      1  C   UNL     1       1.639   7.051  20.608  0.00  0.00    +0.000 A 
ATOM      2  C   UNL     1       0.764   7.697  21.492  0.00  0.00    +0.000 A 
ATOM      3  C   UNL     1       0.296   8.973  21.209  0.00  0.00    +0.000 A 
ATOM      4  C   UNL     1       0.670   9.648  20.033  0.00  0.00    +0.000 A 
ATOM      5  C   UNL     1       1.544   8.992  19.127  0.00  0.00    +0.000 A 
ATOM      6 CL   UNL     1       2.060   9.756  17.618  0.00  0.00    +0.000 Cl
ATOM      7  C   UNL     1       2.035   7.705  19.432  0.00  0.00    +0.000 A 
ATOM      8 CL   UNL     1       3.133   6.873  18.330  0.00  0.00    +0.000 Cl
ENDROOT
BRANCH   4   9
ATOM      9  C   UNL     1       0.085  10.999  19.758  0.00  0.00    +0.000 C 
ATOM     10  O   UNL     1       0.769  11.993  19.954  0.00  0.00    +0.000 OA
BRANCH   9  11
ATOM     11  C   UNL     1      -1.266  11.175  19.153  0.00  0.00    +0.000 A 
ATOM     12  C   UNL     1      -1.565  10.575  17.923  0.00  0.00    +0.000 A 
ATOM     13  C   UNL     1      -2.835  10.707  17.355  0.00  0.00    +0.000 A 
ATOM     14 CL   UNL     1      -3.152   9.882  15.833  0.00  0.00    +0.000 Cl
ATOM     15  C   UNL     1      -3.827  11.472  18.004  0.00  0.00    +0.000 A 
ATOM     16  C   UNL     1      -3.530  12.106  19.228  0.00  0.00    +0.000 A 
ATOM     17  C   UNL     1      -2.255  11.951  19.790  0.00  0.00    +0.000 A 
BRANCH  15  18
ATOM     18  O   UNL     1      -5.062  11.603  17.472  0.00  0.00    +0.000 OA
ATOM     19  H   UNL     1      -5.515  10.895  16.996  0.00  0.00    +0.000 HD
ENDBRANCH  15  18
BRANCH  16  20
ATOM     20  C   UNL     1      -4.568  12.934  19.965  0.00  0.00    +0.000 C 
BRANCH  20  21
ATOM     21  N   UNL     1      -5.180  12.193  21.089  0.00  0.00    +0.000 NA
ATOM     22  C   UNL     1      -5.151  12.977  22.338  0.00  0.00    +0.000 C 
ATOM     23  C   UNL     1      -6.577  11.857  20.763  0.00  0.00    +0.000 C 
ENDBRANCH  20  21
ENDBRANCH  16  20
ENDBRANCH   9  11
ENDBRANCH   4   9
BRANCH   1  24
ATOM     24  O   UNL     1       2.107   5.803  20.847  0.00  0.00    +0.000 OA
BRANCH  24  25
ATOM     25  C   UNL     1       1.417   4.630  20.628  0.00  0.00    +0.000 C 
BRANCH  25  26
ATOM     26  C   UNL     1       2.241   3.487  21.111  0.00  0.00    +0.000 C 
ATOM     27  O   UNL     1       2.061   3.040  22.236  0.00  0.00    +0.000 OA
BRANCH  26  28
ATOM     28  O   UNL     1       3.168   2.952  20.277  0.00  0.00    +0.000 OA
BRANCH  28  30
ATOM     29  C   UNL     1       3.437   1.649  18.327  0.00  0.00    +0.000 C 
ATOM     30  C   UNL     1       3.148   3.027  18.900  0.00  0.00    +0.000 C 
ENDBRANCH  28  30
ENDBRANCH  26  28
ENDBRANCH  25  26
ENDBRANCH  24  25
ENDBRANCH   1  24
TORSDOF 10
ENDMDL
MODEL 8
REMARK VINA RESULT:      -7.0      2.877      4.326
REMARK  Name = 
REMARK  13 active torsions:
REMARK  status: ('A' for Active; 'I' for Inactive)
REMARK    1  A    between atoms: C_1  and  C_2
REMARK    2  A    between atoms: C_2  and  O_3
REMARK    3  A    between atoms: O_3  and  C_4
REMARK    4  A    between atoms: C_4  and  C_6
REMARK    5  A    between atoms: C_6  and  O_7
REMARK    6  A    between atoms: O_7  and  C_8
REMARK    7  A    between atoms: C_11  and  C_12
REMARK    8  A    between atoms: C_12  and  C_14
REMARK    9  A    between atoms: C_18  and  O_19
REMARK   10  A    between atoms: C_20  and  C_21
REMARK   11  A    between atoms: C_21  and  N_22
REMARK   12  A    between atoms: N_22  and  C_23
REMARK   13  A    between atoms: N_22  and  C_24
REMARK                            x       y       z     vdW  Elec       q    Type
REMARK                         _______ _______ _______ _____ _____    ______ ____
ROOT
ATOM      1  C   UNL     1       2.811   6.725  18.692  0.00  0.00    +0.000 A 
ATOM      2  C   UNL     1       2.907   7.675  17.664  0.00  0.00    +0.000 A 
ATOM      3  C   UNL     1       2.280   8.907  17.788  0.00  0.00    +0.000 A 
ATOM      4  C   UNL     1       1.548   9.246  18.940  0.00  0.00    +0.000 A 
ATOM      5  C   UNL     1       1.460   8.294  19.990  0.00  0.00    +0.000 A 
ATOM      6 CL   UNL     1       0.571   8.634  21.479  0.00  0.00    +0.000 Cl
ATOM      7  C   UNL     1       2.079   7.035  19.847  0.00  0.00    +0.000 A 
ATOM      8 CL   UNL     1       1.975   5.828  21.130  0.00  0.00    +0.000 Cl
ENDROOT
BRANCH   4   9
ATOM      9  C   UNL     1       0.944  10.614  19.036  0.00  0.00    +0.000 C 
ATOM     10  O   UNL     1       1.672  11.571  19.257  0.00  0.00    +0.000 OA
BRANCH   9  11
ATOM     11  C   UNL     1      -0.501  10.868  18.768  0.00  0.00    +0.000 A 
ATOM     12  C   UNL     1      -1.122  10.273  17.662  0.00  0.00    +0.000 A 
ATOM     13  C   UNL     1      -2.481  10.479  17.412  0.00  0.00    +0.000 A 
ATOM     14 CL   UNL     1      -3.203   9.658  16.033  0.00  0.00    +0.000 Cl
ATOM     15  C   UNL     1      -3.241  11.312  18.259  0.00  0.00    +0.000 A 
ATOM     16  C   UNL     1      -2.622  11.940  19.359  0.00  0.00    +0.000 A 
ATOM     17  C   UNL     1      -1.260  11.712  19.603  0.00  0.00    +0.000 A 
BRANCH  15  18
ATOM     18  O   UNL     1      -4.558  11.515  18.035  0.00  0.00    +0.000 OA
ATOM     19  H   UNL     1      -5.237  11.406  18.713  0.00  0.00    +0.000 HD
ENDBRANCH  15  18
BRANCH  16  20
ATOM     20  C   UNL     1      -3.401  12.841  20.301  0.00  0.00    +0.000 C 
BRANCH  20  21
ATOM     21  N   UNL     1      -2.653  13.133  21.543  0.00  0.00    +0.000 NA
ATOM     22  C   UNL     1      -2.524  14.584  21.772  0.00  0.00    +0.000 C 
ATOM     23  C   UNL     1      -3.341  12.522  22.695  0.00  0.00    +0.000 C 
ENDBRANCH  20  21
ENDBRANCH  16  20
ENDBRANCH   9  11
ENDBRANCH   4   9
BRANCH   1  24
ATOM     24  O   UNL     1       3.418   5.517  18.609  0.00  0.00    +0.000 OA
BRANCH  24  25
ATOM     25  C   UNL     1       3.575   4.774  17.458  0.00  0.00    +0.000 C 
BRANCH  25  26
ATOM     26  C   UNL     1       2.963   3.432  17.663  0.00  0.00    +0.000 C 
ATOM     27  O   UNL     1       3.679   2.442  17.735  0.00  0.00    +0.000 OA
BRANCH  26  28
ATOM     28  O   UNL     1       1.615   3.340  17.786  0.00  0.00    +0.000 OA
BRANCH  28  30
ATOM     29  C   UNL     1       1.016   2.857  20.017  0.00  0.00    +0.000 C 
ATOM     30  C   UNL     1       0.940   2.422  18.563  0.00  0.00    +0.000 C 
ENDBRANCH  28  30
ENDBRANCH  26  28
ENDBRANCH  25  26
ENDBRANCH  24  25
ENDBRANCH   1  24
TORSDOF 10
ENDMDL
MODEL 9
REMARK VINA RESULT:      -7.0      2.011      3.010
REMARK  Name = 
REMARK  13 active torsions:
REMARK  status: ('A' for Active; 'I' for Inactive)
REMARK    1  A    between atoms: C_1  and  C_2
REMARK    2  A    between atoms: C_2  and  O_3
REMARK    3  A    between atoms: O_3  and  C_4
REMARK    4  A    between atoms: C_4  and  C_6
REMARK    5  A    between atoms: C_6  and  O_7
REMARK    6  A    between atoms: O_7  and  C_8
REMARK    7  A    between atoms: C_11  and  C_12
REMARK    8  A    between atoms: C_12  and  C_14
REMARK    9  A    between atoms: C_18  and  O_19
REMARK   10  A    between atoms: C_20  and  C_21
REMARK   11  A    between atoms: C_21  and  N_22
REMARK   12  A    between atoms: N_22  and  C_23
REMARK   13  A    between atoms: N_22  and  C_24
REMARK                            x       y       z     vdW  Elec       q    Type
REMARK                         _______ _______ _______ _____ _____    ______ ____
ROOT
ATOM      1  C   UNL     1       4.050   5.748  17.632  0.00  0.00    +0.000 A 
ATOM      2  C   UNL     1       4.006   7.129  17.392  0.00  0.00    +0.000 A 
ATOM      3  C   UNL     1       3.174   7.946  18.144  0.00  0.00    +0.000 A 
ATOM      4  C   UNL     1       2.366   7.425  19.171  0.00  0.00    +0.000 A 
ATOM      5  C   UNL     1       2.417   6.029  19.429  0.00  0.00    +0.000 A 
ATOM      6 CL   UNL     1       1.447   5.285  20.705  0.00  0.00    +0.000 Cl
ATOM      7  C   UNL     1       3.247   5.201  18.644  0.00  0.00    +0.000 A 
ATOM      8 CL   UNL     1       3.320   3.462  18.934  0.00  0.00    +0.000 Cl
ENDROOT
BRANCH   4   9
ATOM      9  C   UNL     1       1.533   8.367  19.985  0.00  0.00    +0.000 C 
ATOM     10  O   UNL     1       1.508   8.239  21.201  0.00  0.00    +0.000 OA
BRANCH   9  11
ATOM     11  C   UNL     1       0.816   9.524  19.379  0.00  0.00    +0.000 A 
ATOM     12  C   UNL     1      -0.193   9.303  18.430  0.00  0.00    +0.000 A 
ATOM     13  C   UNL     1      -0.894  10.375  17.873  0.00  0.00    +0.000 A 
ATOM     14 CL   UNL     1      -2.181  10.016  16.727  0.00  0.00    +0.000 Cl
ATOM     15  C   UNL     1      -0.576  11.700  18.239  0.00  0.00    +0.000 A 
ATOM     16  C   UNL     1       0.456  11.938  19.170  0.00  0.00    +0.000 A 
ATOM     17  C   UNL     1       1.140  10.849  19.730  0.00  0.00    +0.000 A 
BRANCH  15  18
ATOM     18  O   UNL     1      -1.250  12.746  17.714  0.00  0.00    +0.000 OA
ATOM     19  H   UNL     1      -1.918  13.248  18.199  0.00  0.00    +0.000 HD
ENDBRANCH  15  18
BRANCH  16  20
ATOM     20  C   UNL     1       0.828  13.346  19.599  0.00  0.00    +0.000 C 
BRANCH  20  21
ATOM     21  N   UNL     1       1.366  13.389  20.975  0.00  0.00    +0.000 NA
ATOM     22  C   UNL     1       2.662  14.089  21.033  0.00  0.00    +0.000 C 
ATOM     23  C   UNL     1       0.408  14.071  21.864  0.00  0.00    +0.000 C 
ENDBRANCH  20  21
ENDBRANCH  16  20
ENDBRANCH   9  11
ENDBRANCH   4   9
BRANCH   1  24
ATOM     24  O   UNL     1       4.856   4.922  16.924  0.00  0.00    +0.000 OA
BRANCH  24  25
ATOM     25  C   UNL     1       5.377   5.185  15.675  0.00  0.00    +0.000 C 
BRANCH  25  26
ATOM     26  C   UNL     1       6.859   5.290  15.783  0.00  0.00    +0.000 C 
ATOM     27  O   UNL     1       7.532   5.461  14.775  0.00  0.00    +0.000 OA
BRANCH  26  28
ATOM     28  O   UNL     1       7.431   5.212  17.010  0.00  0.00    +0.000 OA
BRANCH  28  30
ATOM     29  C   UNL     1       7.548   5.828  19.286  0.00  0.00    +0.000 C 
ATOM     30  C   UNL     1       7.696   6.280  17.843  0.00  0.00    +0.000 C 
ENDBRANCH  28  30
ENDBRANCH  26  28
ENDBRANCH  25  26
ENDBRANCH  24  25
ENDBRANCH   1  24
TORSDOF 10
ENDMDL
