MODEL 1
REMARK VINA RESULT:      -7.1      0.000      0.000
REMARK  Name = 
REMARK  11 active torsions:
REMARK  status: ('A' for Active; 'I' for Inactive)
REMARK    1  A    between atoms: C_1  and  O_2
REMARK    2  A    between atoms: O_2  and  C_3
REMARK    3  A    between atoms: C_6  and  P_7
REMARK    4  A    between atoms: P_7  and  O_9
REMARK    5  A    between atoms: P_7  and  N_17
REMARK    6  A    between atoms: O_9  and  C_10
REMARK    7  A    between atoms: C_10  and  C_11
REMARK    8  A    between atoms: C_11  and  C_12
REMARK    9  A    between atoms: C_12  and  C_13
REMARK   10  A    between atoms: C_26  and  C_27
REMARK   11  A    between atoms: N_29  and  O_30
REMARK                            x       y       z     vdW  Elec       q    Type
REMARK                         _______ _______ _______ _____ _____    ______ ____
ROOT
ATOM      1  P   UNL     1       6.768   4.762  16.984  0.00  0.00    +0.000 P 
ATOM      2  O   UNL     1       8.137   4.526  16.300  0.00  0.00    +0.000 OA
ENDROOT
BRANCH   1   3
ATOM      3  N   UNL     1       5.196   5.034  17.771  0.00  0.00    +0.000 NA
ATOM      4  C   UNL     1       5.113   4.498  19.159  0.00  0.00    +0.000 C 
ATOM      5  C   UNL     1       3.748   4.706  19.797  0.00  0.00    +0.000 A 
ATOM      6  C   UNL     1       3.271   3.888  20.819  0.00  0.00    +0.000 A 
ATOM      7  C   UNL     1       2.036   4.171  21.406  0.00  0.00    +0.000 A 
ATOM      8  C   UNL     1       1.346   5.336  21.067  0.00  0.00    +0.000 A 
ATOM      9  C   UNL     1       1.799   6.137  20.023  0.00  0.00    +0.000 A 
ATOM     10  C   UNL     1       2.918   5.726  19.306  0.00  0.00    +0.000 A 
ATOM     11  C   UNL     1       3.164   6.176  17.884  0.00  0.00    +0.000 C 
ATOM     12  C   UNL     1       3.909   5.062  17.094  0.00  0.00    +0.000 C 
BRANCH  12  13
ATOM     13  C   UNL     1       3.396   3.592  17.084  0.00  0.00    +0.000 C 
ATOM     14  O   UNL     1       4.176   2.640  16.922  0.00  0.00    +0.000 OA
ATOM     15  N   UNL     1       2.059   3.358  17.305  0.00  0.00    +0.000 N 
ATOM     16  H   UNL     1       1.524   3.983  17.901  0.00  0.00    +0.000 HD
BRANCH  15  17
ATOM     17  O   UNL     1       1.767   1.974  17.518  0.00  0.00    +0.000 OA
ATOM     18  H   UNL     1       0.806   1.923  17.320  0.00  0.00    +0.000 HD
ENDBRANCH  15  17
ENDBRANCH  12  13
ENDBRANCH   1   3
BRANCH   1  22
ATOM     19  C   UNL     1       8.528   8.821  18.718  0.00  0.00    +0.000 A 
ATOM     20  C   UNL     1       7.788   8.846  17.529  0.00  0.00    +0.000 A 
ATOM     21  C   UNL     1       7.224   7.674  17.016  0.00  0.00    +0.000 A 
ATOM     22  C   UNL     1       7.405   6.469  17.699  0.00  0.00    +0.000 A 
ATOM     23  C   UNL     1       8.158   6.441  18.889  0.00  0.00    +0.000 A 
ATOM     24  C   UNL     1       8.712   7.620  19.403  0.00  0.00    +0.000 A 
BRANCH  19  26
ATOM     25  C   UNL     1       9.405  10.915  18.007  0.00  0.00    +0.000 C 
ATOM     26  O   UNL     1       9.072  10.033  19.075  0.00  0.00    +0.000 OA
ENDBRANCH  19  26
ENDBRANCH   1  22
BRANCH   1  27
ATOM     27  O   UNL     1       6.056   5.347  15.544  0.00  0.00    +0.000 OA
BRANCH  27  28
ATOM     28  C   UNL     1       6.411   4.646  14.349  0.00  0.00    +0.000 C 
BRANCH  28  29
ATOM     29  C   UNL     1       5.284   3.825  13.747  0.00  0.00    +0.000 C 
BRANCH  29  30
ATOM     30  C   UNL     1       5.643   3.552  12.275  0.00  0.00    +0.000 C 
BRANCH  30  31
ATOM     31  C   UNL     1       4.486   3.119  11.404  0.00  0.00    +0.000 C 
ATOM     32  F   UNL     1       3.349   2.934  12.104  0.00  0.00    +0.000 F 
ATOM     33  F   UNL     1       4.242   4.042  10.447  0.00  0.00    +0.000 F 
ATOM     34  F   UNL     1       4.779   1.959  10.773  0.00  0.00    +0.000 F 
ENDBRANCH  30  31
ENDBRANCH  29  30
ENDBRANCH  28  29
ENDBRANCH  27  28
ENDBRANCH   1  27
TORSDOF 10
ENDMDL
MODEL 2
REMARK VINA RESULT:      -7.0      0.951      1.361
REMARK  Name = 
REMARK  11 active torsions:
REMARK  status: ('A' for Active; 'I' for Inactive)
REMARK    1  A    between atoms: C_1  and  O_2
REMARK    2  A    between atoms: O_2  and  C_3
REMARK    3  A    between atoms: C_6  and  P_7
REMARK    4  A    between atoms: P_7  and  O_9
REMARK    5  A    between atoms: P_7  and  N_17
REMARK    6  A    between atoms: O_9  and  C_10
REMARK    7  A    between atoms: C_10  and  C_11
REMARK    8  A    between atoms: C_11  and  C_12
REMARK    9  A    between atoms: C_12  and  C_13
REMARK   10  A    between atoms: C_26  and  C_27
REMARK   11  A    between atoms: N_29  and  O_30
REMARK                            x       y       z     vdW  Elec       q    Type
REMARK                         _______ _______ _______ _____ _____    ______ ____
ROOT
ATOM      1  P   UNL     1       6.787   4.815  17.680  0.00  0.00    +0.000 P 
ATOM      2  O   UNL     1       8.177   4.251  17.295  0.00  0.00    +0.000 OA
ENDROOT
BRANCH   1   3
ATOM      3  N   UNL     1       5.190   5.463  18.123  0.00  0.00    +0.000 NA
ATOM      4  C   UNL     1       4.783   5.164  19.525  0.00  0.00    +0.000 C 
ATOM      5  C   UNL     1       3.399   5.693  19.869  0.00  0.00    +0.000 A 
ATOM      6  C   UNL     1       2.616   5.131  20.875  0.00  0.00    +0.000 A 
ATOM      7  C   UNL     1       1.380   5.702  21.184  0.00  0.00    +0.000 A 
ATOM      8  C   UNL     1       0.990   6.902  20.586  0.00  0.00    +0.000 A 
ATOM      9  C   UNL     1       1.751   7.448  19.556  0.00  0.00    +0.000 A 
ATOM     10  C   UNL     1       2.870   6.751  19.114  0.00  0.00    +0.000 A 
ATOM     11  C   UNL     1       3.424   6.934  17.719  0.00  0.00    +0.000 C 
ATOM     12  C   UNL     1       4.058   5.604  17.220  0.00  0.00    +0.000 C 
BRANCH  12  13
ATOM     13  C   UNL     1       3.281   4.256  17.291  0.00  0.00    +0.000 C 
ATOM     14  O   UNL     1       3.878   3.168  17.270  0.00  0.00    +0.000 OA
ATOM     15  N   UNL     1       1.913   4.290  17.423  0.00  0.00    +0.000 N 
ATOM     16  H   UNL     1       1.468   5.056  17.922  0.00  0.00    +0.000 HD
BRANCH  15  17
ATOM     17  O   UNL     1       1.354   3.008  17.726  0.00  0.00    +0.000 OA
ATOM     18  H   UNL     1       0.421   3.225  17.943  0.00  0.00    +0.000 HD
ENDBRANCH  15  17
ENDBRANCH  12  13
ENDBRANCH   1   3
BRANCH   1  22
ATOM     19  C   UNL     1       8.464   9.209  18.349  0.00  0.00    +0.000 A 
ATOM     20  C   UNL     1       8.860   8.183  19.217  0.00  0.00    +0.000 A 
ATOM     21  C   UNL     1       8.414   6.873  19.021  0.00  0.00    +0.000 A 
ATOM     22  C   UNL     1       7.566   6.590  17.949  0.00  0.00    +0.000 A 
ATOM     23  C   UNL     1       7.159   7.622  17.081  0.00  0.00    +0.000 A 
ATOM     24  C   UNL     1       7.616   8.931  17.277  0.00  0.00    +0.000 A 
BRANCH  19  26
ATOM     25  C   UNL     1       9.382  10.615  20.035  0.00  0.00    +0.000 C 
ATOM     26  O   UNL     1       8.931  10.457  18.692  0.00  0.00    +0.000 OA
ENDBRANCH  19  26
ENDBRANCH   1  22
BRANCH   1  27
ATOM     27  O   UNL     1       6.315   4.995  16.046  0.00  0.00    +0.000 OA
BRANCH  27  28
ATOM     28  C   UNL     1       6.606   3.886  15.193  0.00  0.00    +0.000 C 
BRANCH  28  29
ATOM     29  C   UNL     1       6.514   4.197  13.709  0.00  0.00    +0.000 C 
BRANCH  29  30
ATOM     30  C   UNL     1       5.178   3.628  13.196  0.00  0.00    +0.000 C 
BRANCH  30  31
ATOM     31  C   UNL     1       5.188   3.171  11.756  0.00  0.00    +0.000 C 
ATOM     32  F   UNL     1       4.026   3.424  11.122  0.00  0.00    +0.000 F 
ATOM     33  F   UNL     1       6.180   3.783  11.071  0.00  0.00    +0.000 F 
ATOM     34  F   UNL     1       5.419   1.840  11.685  0.00  0.00    +0.000 F 
ENDBRANCH  30  31
ENDBRANCH  29  30
ENDBRANCH  28  29
ENDBRANCH  27  28
ENDBRANCH   1  27
TORSDOF 10
ENDMDL
MODEL 3
REMARK VINA RESULT:      -7.0      4.062      6.917
REMARK  Name = 
REMARK  11 active torsions:
REMARK  status: ('A' for Active; 'I' for Inactive)
REMARK    1  A    between atoms: C_1  and  O_2
REMARK    2  A    between atoms: O_2  and  C_3
REMARK    3  A    between atoms: C_6  and  P_7
REMARK    4  A    between atoms: P_7  and  O_9
REMARK    5  A    between atoms: P_7  and  N_17
REMARK    6  A    between atoms: O_9  and  C_10
REMARK    7  A    between atoms: C_10  and  C_11
REMARK    8  A    between atoms: C_11  and  C_12
REMARK    9  A    between atoms: C_12  and  C_13
REMARK   10  A    between atoms: C_26  and  C_27
REMARK   11  A    between atoms: N_29  and  O_30
REMARK                            x       y       z     vdW  Elec       q    Type
REMARK                         _______ _______ _______ _____ _____    ______ ____
ROOT
ATOM      1  P   UNL     1       2.812   4.735  17.399  0.00  0.00    +0.000 P 
ATOM      2  O   UNL     1       1.353   4.301  17.114  0.00  0.00    +0.000 OA
ENDROOT
BRANCH   1   3
ATOM      3  N   UNL     1       4.488   5.235  17.727  0.00  0.00    +0.000 NA
ATOM      4  C   UNL     1       4.727   6.696  17.563  0.00  0.00    +0.000 C 
ATOM      5  C   UNL     1       6.175   7.094  17.808  0.00  0.00    +0.000 A 
ATOM      6  C   UNL     1       6.740   8.235  17.244  0.00  0.00    +0.000 A 
ATOM      7  C   UNL     1       8.056   8.579  17.559  0.00  0.00    +0.000 A 
ATOM      8  C   UNL     1       8.756   7.863  18.532  0.00  0.00    +0.000 A 
ATOM      9  C   UNL     1       8.211   6.702  19.072  0.00  0.00    +0.000 A 
ATOM     10  C   UNL     1       6.985   6.255  18.589  0.00  0.00    +0.000 A 
ATOM     11  C   UNL     1       6.576   4.802  18.676  0.00  0.00    +0.000 C 
ATOM     12  C   UNL     1       5.672   4.431  17.465  0.00  0.00    +0.000 C 
BRANCH  12  13
ATOM     13  C   UNL     1       6.099   4.756  16.003  0.00  0.00    +0.000 C 
ATOM     14  O   UNL     1       5.254   4.933  15.111  0.00  0.00    +0.000 OA
ATOM     15  N   UNL     1       7.438   4.891  15.721  0.00  0.00    +0.000 N 
ATOM     16  H   UNL     1       8.075   5.243  16.431  0.00  0.00    +0.000 HD
BRANCH  15  17
ATOM     17  O   UNL     1       7.677   5.430  14.418  0.00  0.00    +0.000 OA
ATOM     18  H   UNL     1       8.412   4.869  14.084  0.00  0.00    +0.000 HD
ENDBRANCH  15  17
ENDBRANCH  12  13
ENDBRANCH   1   3
BRANCH   1  22
ATOM     19  C   UNL     1       1.450   8.557  19.872  0.00  0.00    +0.000 A 
ATOM     20  C   UNL     1       1.476   8.618  18.472  0.00  0.00    +0.000 A 
ATOM     21  C   UNL     1       1.834   7.497  17.718  0.00  0.00    +0.000 A 
ATOM     22  C   UNL     1       2.169   6.308  18.370  0.00  0.00    +0.000 A 
ATOM     23  C   UNL     1       2.154   6.249  19.777  0.00  0.00    +0.000 A 
ATOM     24  C   UNL     1       1.785   7.372  20.528  0.00  0.00    +0.000 A 
BRANCH  19  26
ATOM     25  C   UNL     1       1.000  10.881  19.637  0.00  0.00    +0.000 C 
ATOM     26  O   UNL     1       1.137   9.747  20.487  0.00  0.00    +0.000 OA
ENDBRANCH  19  26
ENDBRANCH   1  22
BRANCH   1  27
ATOM     27  O   UNL     1       2.957   3.667  18.727  0.00  0.00    +0.000 OA
BRANCH  27  28
ATOM     28  C   UNL     1       2.591   2.309  18.471  0.00  0.00    +0.000 C 
BRANCH  28  29
ATOM     29  C   UNL     1       1.533   1.758  19.410  0.00  0.00    +0.000 C 
BRANCH  29  30
ATOM     30  C   UNL     1       1.117   2.896  20.362  0.00  0.00    +0.000 C 
BRANCH  30  31
ATOM     31  C   UNL     1       1.750   2.847  21.732  0.00  0.00    +0.000 C 
ATOM     32  F   UNL     1       0.905   2.394  22.679  0.00  0.00    +0.000 F 
ATOM     33  F   UNL     1       2.838   2.043  21.724  0.00  0.00    +0.000 F 
ATOM     34  F   UNL     1       2.169   4.078  22.103  0.00  0.00    +0.000 F 
ENDBRANCH  30  31
ENDBRANCH  29  30
ENDBRANCH  28  29
ENDBRANCH  27  28
ENDBRANCH   1  27
TORSDOF 10
ENDMDL
MODEL 4
REMARK VINA RESULT:      -6.8      4.089      7.073
REMARK  Name = 
REMARK  11 active torsions:
REMARK  status: ('A' for Active; 'I' for Inactive)
REMARK    1  A    between atoms: C_1  and  O_2
REMARK    2  A    between atoms: O_2  and  C_3
REMARK    3  A    between atoms: C_6  and  P_7
REMARK    4  A    between atoms: P_7  and  O_9
REMARK    5  A    between atoms: P_7  and  N_17
REMARK    6  A    between atoms: O_9  and  C_10
REMARK    7  A    between atoms: C_10  and  C_11
REMARK    8  A    between atoms: C_11  and  C_12
REMARK    9  A    between atoms: C_12  and  C_13
REMARK   10  A    between atoms: C_26  and  C_27
REMARK   11  A    between atoms: N_29  and  O_30
REMARK                            x       y       z     vdW  Elec       q    Type
REMARK                         _______ _______ _______ _____ _____    ______ ____
ROOT
ATOM      1  P   UNL     1       2.838   4.930  17.511  0.00  0.00    +0.000 P 
ATOM      2  O   UNL     1       1.365   4.527  17.257  0.00  0.00    +0.000 OA
ENDROOT
BRANCH   1   3
ATOM      3  N   UNL     1       4.531   5.394  17.801  0.00  0.00    +0.000 NA
ATOM      4  C   UNL     1       4.793   6.853  17.656  0.00  0.00    +0.000 C 
ATOM      5  C   UNL     1       6.254   7.221  17.869  0.00  0.00    +0.000 A 
ATOM      6  C   UNL     1       6.824   8.362  17.309  0.00  0.00    +0.000 A 
ATOM      7  C   UNL     1       8.153   8.676  17.595  0.00  0.00    +0.000 A 
ATOM      8  C   UNL     1       8.867   7.932  18.537  0.00  0.00    +0.000 A 
ATOM      9  C   UNL     1       8.315   6.771  19.071  0.00  0.00    +0.000 A 
ATOM     10  C   UNL     1       7.069   6.355  18.613  0.00  0.00    +0.000 A 
ATOM     11  C   UNL     1       6.635   4.908  18.687  0.00  0.00    +0.000 C 
ATOM     12  C   UNL     1       5.693   4.574  17.495  0.00  0.00    +0.000 C 
BRANCH  12  13
ATOM     13  C   UNL     1       6.087   4.917  16.027  0.00  0.00    +0.000 C 
ATOM     14  O   UNL     1       5.232   5.259  15.196  0.00  0.00    +0.000 OA
ATOM     15  N   UNL     1       7.415   4.879  15.675  0.00  0.00    +0.000 N 
ATOM     16  H   UNL     1       8.131   5.099  16.362  0.00  0.00    +0.000 HD
BRANCH  15  17
ATOM     17  O   UNL     1       7.663   5.451  14.387  0.00  0.00    +0.000 OA
ATOM     18  H   UNL     1       8.635   5.592  14.397  0.00  0.00    +0.000 HD
ENDBRANCH  15  17
ENDBRANCH  12  13
ENDBRANCH   1   3
BRANCH   1  22
ATOM     19  C   UNL     1       1.220   8.665  19.961  0.00  0.00    +0.000 A 
ATOM     20  C   UNL     1       1.544   7.485  20.643  0.00  0.00    +0.000 A 
ATOM     21  C   UNL     1       2.060   6.383  19.954  0.00  0.00    +0.000 A 
ATOM     22  C   UNL     1       2.251   6.466  18.572  0.00  0.00    +0.000 A 
ATOM     23  C   UNL     1       1.915   7.648  17.885  0.00  0.00    +0.000 A 
ATOM     24  C   UNL     1       1.408   8.752  18.582  0.00  0.00    +0.000 A 
BRANCH  19  26
ATOM     25  C   UNL     1      -0.319  10.471  20.142  0.00  0.00    +0.000 C 
ATOM     26  O   UNL     1       0.670   9.646  20.753  0.00  0.00    +0.000 OA
ENDBRANCH  19  26
ENDBRANCH   1  22
BRANCH   1  27
ATOM     27  O   UNL     1       3.014   3.802  18.783  0.00  0.00    +0.000 OA
BRANCH  27  28
ATOM     28  C   UNL     1       2.707   2.445  18.454  0.00  0.00    +0.000 C 
BRANCH  28  29
ATOM     29  C   UNL     1       1.724   1.778  19.399  0.00  0.00    +0.000 C 
BRANCH  29  30
ATOM     30  C   UNL     1       1.183   2.863  20.349  0.00  0.00    +0.000 C 
BRANCH  30  31
ATOM     31  C   UNL     1       1.791   2.863  21.732  0.00  0.00    +0.000 C 
ATOM     32  F   UNL     1       2.193   4.089  22.123  0.00  0.00    +0.000 F 
ATOM     33  F   UNL     1       0.900   2.407  22.642  0.00  0.00    +0.000 F 
ATOM     34  F   UNL     1       2.863   2.040  21.777  0.00  0.00    +0.000 F 
ENDBRANCH  30  31
ENDBRANCH  29  30
ENDBRANCH  28  29
ENDBRANCH  27  28
ENDBRANCH   1  27
TORSDOF 10
ENDMDL
MODEL 5
REMARK VINA RESULT:      -6.7      1.288      1.903
REMARK  Name = 
REMARK  11 active torsions:
REMARK  status: ('A' for Active; 'I' for Inactive)
REMARK    1  A    between atoms: C_1  and  O_2
REMARK    2  A    between atoms: O_2  and  C_3
REMARK    3  A    between atoms: C_6  and  P_7
REMARK    4  A    between atoms: P_7  and  O_9
REMARK    5  A    between atoms: P_7  and  N_17
REMARK    6  A    between atoms: O_9  and  C_10
REMARK    7  A    between atoms: C_10  and  C_11
REMARK    8  A    between atoms: C_11  and  C_12
REMARK    9  A    between atoms: C_12  and  C_13
REMARK   10  A    between atoms: C_26  and  C_27
REMARK   11  A    between atoms: N_29  and  O_30
REMARK                            x       y       z     vdW  Elec       q    Type
REMARK                         _______ _______ _______ _____ _____    ______ ____
ROOT
ATOM      1  P   UNL     1       6.272   4.791  17.992  0.00  0.00    +0.000 P 
ATOM      2  O   UNL     1       7.588   4.022  17.720  0.00  0.00    +0.000 OA
ENDROOT
BRANCH   1   3
ATOM      3  N   UNL     1       4.760   5.675  18.304  0.00  0.00    +0.000 NA
ATOM      4  C   UNL     1       4.277   5.570  19.710  0.00  0.00    +0.000 C 
ATOM      5  C   UNL     1       2.962   6.300  19.944  0.00  0.00    +0.000 A 
ATOM      6  C   UNL     1       2.084   5.943  20.965  0.00  0.00    +0.000 A 
ATOM      7  C   UNL     1       0.924   6.692  21.166  0.00  0.00    +0.000 A 
ATOM      8  C   UNL     1       0.710   7.867  20.442  0.00  0.00    +0.000 A 
ATOM      9  C   UNL     1       1.564   8.208  19.398  0.00  0.00    +0.000 A 
ATOM     10  C   UNL     1       2.597   7.336  19.071  0.00  0.00    +0.000 A 
ATOM     11  C   UNL     1       3.210   7.308  17.689  0.00  0.00    +0.000 C 
ATOM     12  C   UNL     1       3.683   5.866  17.345  0.00  0.00    +0.000 C 
BRANCH  12  13
ATOM     13  C   UNL     1       2.737   4.640  17.510  0.00  0.00    +0.000 C 
ATOM     14  O   UNL     1       1.513   4.788  17.658  0.00  0.00    +0.000 OA
ATOM     15  N   UNL     1       3.276   3.377  17.444  0.00  0.00    +0.000 N 
ATOM     16  H   UNL     1       4.092   3.202  16.863  0.00  0.00    +0.000 HD
BRANCH  15  17
ATOM     17  O   UNL     1       2.281   2.354  17.359  0.00  0.00    +0.000 OA
ATOM     18  H   UNL     1       1.521   2.825  16.950  0.00  0.00    +0.000 HD
ENDBRANCH  15  17
ENDBRANCH  12  13
ENDBRANCH   1   3
BRANCH   1  22
ATOM     19  C   UNL     1       8.471   8.995  18.253  0.00  0.00    +0.000 A 
ATOM     20  C   UNL     1       8.829   7.976  19.146  0.00  0.00    +0.000 A 
ATOM     21  C   UNL     1       8.227   6.717  19.067  0.00  0.00    +0.000 A 
ATOM     22  C   UNL     1       7.260   6.477  18.087  0.00  0.00    +0.000 A 
ATOM     23  C   UNL     1       6.893   7.504  17.196  0.00  0.00    +0.000 A 
ATOM     24  C   UNL     1       7.505   8.761  17.274  0.00  0.00    +0.000 A 
BRANCH  19  26
ATOM     25  C   UNL     1       9.304  10.554  19.845  0.00  0.00    +0.000 C 
ATOM     26  O   UNL     1       9.099  10.197  18.481  0.00  0.00    +0.000 OA
ENDBRANCH  19  26
ENDBRANCH   1  22
BRANCH   1  27
ATOM     27  O   UNL     1       5.861   4.839  16.333  0.00  0.00    +0.000 OA
BRANCH  27  28
ATOM     28  C   UNL     1       6.662   4.025  15.473  0.00  0.00    +0.000 C 
BRANCH  28  29
ATOM     29  C   UNL     1       6.597   4.411  14.006  0.00  0.00    +0.000 C 
BRANCH  29  30
ATOM     30  C   UNL     1       5.414   3.651  13.377  0.00  0.00    +0.000 C 
BRANCH  30  31
ATOM     31  C   UNL     1       5.614   3.232  11.940  0.00  0.00    +0.000 C 
ATOM     32  F   UNL     1       6.771   3.691  11.420  0.00  0.00    +0.000 F 
ATOM     33  F   UNL     1       5.616   1.884  11.834  0.00  0.00    +0.000 F 
ATOM     34  F   UNL     1       4.602   3.690  11.169  0.00  0.00    +0.000 F 
ENDBRANCH  30  31
ENDBRANCH  29  30
ENDBRANCH  28  29
ENDBRANCH  27  28
ENDBRANCH   1  27
TORSDOF 10
ENDMDL
MODEL 6
REMARK VINA RESULT:      -6.7      0.699      1.346
REMARK  Name = 
REMARK  11 active torsions:
REMARK  status: ('A' for Active; 'I' for Inactive)
REMARK    1  A    between atoms: C_1  and  O_2
REMARK    2  A    between atoms: O_2  and  C_3
REMARK    3  A    between atoms: C_6  and  P_7
REMARK    4  A    between atoms: P_7  and  O_9
REMARK    5  A    between atoms: P_7  and  N_17
REMARK    6  A    between atoms: O_9  and  C_10
REMARK    7  A    between atoms: C_10  and  C_11
REMARK    8  A    between atoms: C_11  and  C_12
REMARK    9  A    between atoms: C_12  and  C_13
REMARK   10  A    between atoms: C_26  and  C_27
REMARK   11  A    between atoms: N_29  and  O_30
REMARK                            x       y       z     vdW  Elec       q    Type
REMARK                         _______ _______ _______ _____ _____    ______ ____
ROOT
ATOM      1  P   UNL     1       6.735   4.710  17.190  0.00  0.00    +0.000 P 
ATOM      2  O   UNL     1       8.102   4.231  16.643  0.00  0.00    +0.000 OA
ENDROOT
BRANCH   1   3
ATOM      3  N   UNL     1       5.164   5.259  17.820  0.00  0.00    +0.000 NA
ATOM      4  C   UNL     1       4.952   4.958  19.264  0.00  0.00    +0.000 C 
ATOM      5  C   UNL     1       3.587   5.401  19.771  0.00  0.00    +0.000 A 
ATOM      6  C   UNL     1       2.972   4.806  20.869  0.00  0.00    +0.000 A 
ATOM      7  C   UNL     1       1.748   5.300  21.322  0.00  0.00    +0.000 A 
ATOM      8  C   UNL     1       1.208   6.462  20.766  0.00  0.00    +0.000 A 
ATOM      9  C   UNL     1       1.800   7.039  19.647  0.00  0.00    +0.000 A 
ATOM     10  C   UNL     1       2.901   6.410  19.076  0.00  0.00    +0.000 A 
ATOM     11  C   UNL     1       3.267   6.605  17.623  0.00  0.00    +0.000 C 
ATOM     12  C   UNL     1       3.924   5.311  17.062  0.00  0.00    +0.000 C 
BRANCH  12  13
ATOM     13  C   UNL     1       3.253   3.916  17.238  0.00  0.00    +0.000 C 
ATOM     14  O   UNL     1       2.030   3.768  17.092  0.00  0.00    +0.000 OA
ATOM     15  N   UNL     1       4.050   2.832  17.517  0.00  0.00    +0.000 N 
ATOM     16  H   UNL     1       5.004   2.796  17.165  0.00  0.00    +0.000 HD
BRANCH  15  17
ATOM     17  O   UNL     1       3.352   1.588  17.407  0.00  0.00    +0.000 OA
ATOM     18  H   UNL     1       4.006   1.013  16.951  0.00  0.00    +0.000 HD
ENDBRANCH  15  17
ENDBRANCH  12  13
ENDBRANCH   1   3
BRANCH   1  22
ATOM     19  C   UNL     1       8.474   8.910  18.570  0.00  0.00    +0.000 A 
ATOM     20  C   UNL     1       8.727   7.773  19.349  0.00  0.00    +0.000 A 
ATOM     21  C   UNL     1       8.262   6.518  18.947  0.00  0.00    +0.000 A 
ATOM     22  C   UNL     1       7.538   6.402  17.758  0.00  0.00    +0.000 A 
ATOM     23  C   UNL     1       7.274   7.546  16.981  0.00  0.00    +0.000 A 
ATOM     24  C   UNL     1       7.751   8.800  17.383  0.00  0.00    +0.000 A 
BRANCH  19  26
ATOM     25  C   UNL     1       9.569  10.992  18.211  0.00  0.00    +0.000 C 
ATOM     26  O   UNL     1       8.940  10.085  19.113  0.00  0.00    +0.000 OA
ENDBRANCH  19  26
ENDBRANCH   1  22
BRANCH   1  27
ATOM     27  O   UNL     1       6.193   5.199  15.644  0.00  0.00    +0.000 OA
BRANCH  27  28
ATOM     28  C   UNL     1       6.438   4.274  14.582  0.00  0.00    +0.000 C 
BRANCH  28  29
ATOM     29  C   UNL     1       5.201   3.889  13.789  0.00  0.00    +0.000 C 
BRANCH  29  30
ATOM     30  C   UNL     1       5.673   3.323  12.436  0.00  0.00    +0.000 C 
BRANCH  30  31
ATOM     31  C   UNL     1       4.577   3.087  11.424  0.00  0.00    +0.000 C 
ATOM     32  F   UNL     1       4.790   1.989  10.673  0.00  0.00    +0.000 F 
ATOM     33  F   UNL     1       3.383   2.945  12.043  0.00  0.00    +0.000 F 
ATOM     34  F   UNL     1       4.468   4.146  10.590  0.00  0.00    +0.000 F 
ENDBRANCH  30  31
ENDBRANCH  29  30
ENDBRANCH  28  29
ENDBRANCH  27  28
ENDBRANCH   1  27
TORSDOF 10
ENDMDL
MODEL 7
REMARK VINA RESULT:      -6.7      1.069      1.249
REMARK  Name = 
REMARK  11 active torsions:
REMARK  status: ('A' for Active; 'I' for Inactive)
REMARK    1  A    between atoms: C_1  and  O_2
REMARK    2  A    between atoms: O_2  and  C_3
REMARK    3  A    between atoms: C_6  and  P_7
REMARK    4  A    between atoms: P_7  and  O_9
REMARK    5  A    between atoms: P_7  and  N_17
REMARK    6  A    between atoms: O_9  and  C_10
REMARK    7  A    between atoms: C_10  and  C_11
REMARK    8  A    between atoms: C_11  and  C_12
REMARK    9  A    between atoms: C_12  and  C_13
REMARK   10  A    between atoms: C_26  and  C_27
REMARK   11  A    between atoms: N_29  and  O_30
REMARK                            x       y       z     vdW  Elec       q    Type
REMARK                         _______ _______ _______ _____ _____    ______ ____
ROOT
ATOM      1  P   UNL     1       6.843   4.391  17.593  0.00  0.00    +0.000 P 
ATOM      2  O   UNL     1       8.306   4.159  17.143  0.00  0.00    +0.000 OA
ENDROOT
BRANCH   1   3
ATOM      3  N   UNL     1       5.161   4.659  18.111  0.00  0.00    +0.000 NA
ATOM      4  C   UNL     1       4.897   4.282  19.528  0.00  0.00    +0.000 C 
ATOM      5  C   UNL     1       3.445   4.482  19.937  0.00  0.00    +0.000 A 
ATOM      6  C   UNL     1       2.858   3.760  20.974  0.00  0.00    +0.000 A 
ATOM      7  C   UNL     1       1.540   4.035  21.341  0.00  0.00    +0.000 A 
ATOM      8  C   UNL     1       0.858   5.111  20.767  0.00  0.00    +0.000 A 
ATOM      9  C   UNL     1       1.427   5.810  19.707  0.00  0.00    +0.000 A 
ATOM     10  C   UNL     1       2.655   5.386  19.211  0.00  0.00    +0.000 A 
ATOM     11  C   UNL     1       3.089   5.683  17.794  0.00  0.00    +0.000 C 
ATOM     12  C   UNL     1       3.988   4.531  17.261  0.00  0.00    +0.000 C 
BRANCH  12  13
ATOM     13  C   UNL     1       3.544   3.042  17.359  0.00  0.00    +0.000 C 
ATOM     14  O   UNL     1       2.395   2.692  17.048  0.00  0.00    +0.000 OA
ATOM     15  N   UNL     1       4.468   2.104  17.756  0.00  0.00    +0.000 N 
ATOM     16  H   UNL     1       5.452   2.233  17.538  0.00  0.00    +0.000 HD
BRANCH  15  17
ATOM     17  O   UNL     1       4.011   0.762  17.565  0.00  0.00    +0.000 OA
ATOM     18  H   UNL     1       4.241   0.331  18.418  0.00  0.00    +0.000 HD
ENDBRANCH  15  17
ENDBRANCH  12  13
ENDBRANCH   1   3
BRANCH   1  22
ATOM     19  C   UNL     1       7.925   8.994  18.062  0.00  0.00    +0.000 A 
ATOM     20  C   UNL     1       6.873   8.618  17.215  0.00  0.00    +0.000 A 
ATOM     21  C   UNL     1       6.507   7.275  17.088  0.00  0.00    +0.000 A 
ATOM     22  C   UNL     1       7.199   6.303  17.814  0.00  0.00    +0.000 A 
ATOM     23  C   UNL     1       8.263   6.678  18.657  0.00  0.00    +0.000 A 
ATOM     24  C   UNL     1       8.619   8.026  18.788  0.00  0.00    +0.000 A 
BRANCH  19  26
ATOM     25  C   UNL     1       9.387  10.740  18.750  0.00  0.00    +0.000 C 
ATOM     26  O   UNL     1       8.215  10.338  18.046  0.00  0.00    +0.000 OA
ENDBRANCH  19  26
ENDBRANCH   1  22
BRANCH   1  27
ATOM     27  O   UNL     1       6.267   4.430  15.984  0.00  0.00    +0.000 OA
BRANCH  27  28
ATOM     28  C   UNL     1       7.066   5.171  15.059  0.00  0.00    +0.000 C 
BRANCH  28  29
ATOM     29  C   UNL     1       7.189   4.533  13.686  0.00  0.00    +0.000 C 
BRANCH  29  30
ATOM     30  C   UNL     1       5.925   3.685  13.452  0.00  0.00    +0.000 C 
BRANCH  30  31
ATOM     31  C   UNL     1       5.735   3.199  12.034  0.00  0.00    +0.000 C 
ATOM     32  F   UNL     1       4.657   3.747  11.437  0.00  0.00    +0.000 F 
ATOM     33  F   UNL     1       6.821   3.491  11.283  0.00  0.00    +0.000 F 
ATOM     34  F   UNL     1       5.584   1.856  12.012  0.00  0.00    +0.000 F 
ENDBRANCH  30  31
ENDBRANCH  29  30
ENDBRANCH  28  29
ENDBRANCH  27  28
ENDBRANCH   1  27
TORSDOF 10
ENDMDL
MODEL 8
REMARK VINA RESULT:      -6.6      7.601      9.911
REMARK  Name = 
REMARK  11 active torsions:
REMARK  status: ('A' for Active; 'I' for Inactive)
REMARK    1  A    between atoms: C_1  and  O_2
REMARK    2  A    between atoms: O_2  and  C_3
REMARK    3  A    between atoms: C_6  and  P_7
REMARK    4  A    between atoms: P_7  and  O_9
REMARK    5  A    between atoms: P_7  and  N_17
REMARK    6  A    between atoms: O_9  and  C_10
REMARK    7  A    between atoms: C_10  and  C_11
REMARK    8  A    between atoms: C_11  and  C_12
REMARK    9  A    between atoms: C_12  and  C_13
REMARK   10  A    between atoms: C_26  and  C_27
REMARK   11  A    between atoms: N_29  and  O_30
REMARK                            x       y       z     vdW  Elec       q    Type
REMARK                         _______ _______ _______ _____ _____    ______ ____
ROOT
ATOM      1  P   UNL     1      -0.114  10.929  20.058  0.00  0.00    +0.000 P 
ATOM      2  O   UNL     1      -1.119   9.846  20.522  0.00  0.00    +0.000 OA
ENDROOT
BRANCH   1   3
ATOM      3  N   UNL     1       1.042  12.173  19.525  0.00  0.00    +0.000 NA
ATOM      4  C   UNL     1       1.802  12.809  20.637  0.00  0.00    +0.000 C 
ATOM      5  C   UNL     1       2.754  13.896  20.163  0.00  0.00    +0.000 A 
ATOM      6  C   UNL     1       3.166  14.939  20.990  0.00  0.00    +0.000 A 
ATOM      7  C   UNL     1       4.090  15.870  20.513  0.00  0.00    +0.000 A 
ATOM      8  C   UNL     1       4.698  15.685  19.270  0.00  0.00    +0.000 A 
ATOM      9  C   UNL     1       4.265  14.668  18.426  0.00  0.00    +0.000 A 
ATOM     10  C   UNL     1       3.193  13.878  18.830  0.00  0.00    +0.000 A 
ATOM     11  C   UNL     1       2.316  13.155  17.834  0.00  0.00    +0.000 C 
ATOM     12  C   UNL     1       0.863  13.054  18.381  0.00  0.00    +0.000 C 
BRANCH  12  13
ATOM     13  C   UNL     1       0.107  14.306  18.917  0.00  0.00    +0.000 C 
ATOM     14  O   UNL     1       0.527  15.453  18.697  0.00  0.00    +0.000 OA
ATOM     15  N   UNL     1      -1.069  14.122  19.605  0.00  0.00    +0.000 N 
ATOM     16  H   UNL     1      -1.671  13.333  19.384  0.00  0.00    +0.000 HD
BRANCH  15  17
ATOM     17  O   UNL     1      -1.782  15.343  19.819  0.00  0.00    +0.000 OA
ATOM     18  H   UNL     1      -2.055  15.272  20.760  0.00  0.00    +0.000 HD
ENDBRANCH  15  17
ENDBRANCH  12  13
ENDBRANCH   1   3
BRANCH   1  22
ATOM     19  C   UNL     1       2.696   7.402  18.562  0.00  0.00    +0.000 A 
ATOM     20  C   UNL     1       2.403   8.462  17.693  0.00  0.00    +0.000 A 
ATOM     21  C   UNL     1       1.612   9.533  18.119  0.00  0.00    +0.000 A 
ATOM     22  C   UNL     1       1.110   9.541  19.423  0.00  0.00    +0.000 A 
ATOM     23  C   UNL     1       1.395   8.470  20.293  0.00  0.00    +0.000 A 
ATOM     24  C   UNL     1       2.197   7.405  19.864  0.00  0.00    +0.000 A 
BRANCH  19  26
ATOM     25  C   UNL     1       4.483   6.789  17.116  0.00  0.00    +0.000 C 
ATOM     26  O   UNL     1       3.435   6.390  17.994  0.00  0.00    +0.000 OA
ENDBRANCH  19  26
ENDBRANCH   1  22
BRANCH   1  27
ATOM     27  O   UNL     1      -0.957  11.203  18.596  0.00  0.00    +0.000 OA
BRANCH  27  28
ATOM     28  C   UNL     1      -2.313  10.750  18.569  0.00  0.00    +0.000 C 
BRANCH  28  29
ATOM     29  C   UNL     1      -3.249  11.623  17.752  0.00  0.00    +0.000 C 
BRANCH  29  30
ATOM     30  C   UNL     1      -4.058  10.698  16.825  0.00  0.00    +0.000 C 
BRANCH  30  31
ATOM     31  C   UNL     1      -3.360  10.308  15.543  0.00  0.00    +0.000 C 
ATOM     32  F   UNL     1      -2.502  11.254  15.110  0.00  0.00    +0.000 F 
ATOM     33  F   UNL     1      -2.666   9.160  15.711  0.00  0.00    +0.000 F 
ATOM     34  F   UNL     1      -4.264  10.087  14.562  0.00  0.00    +0.000 F 
ENDBRANCH  30  31
ENDBRANCH  29  30
ENDBRANCH  28  29
ENDBRANCH  27  28
ENDBRANCH   1  27
TORSDOF 10
ENDMDL
MODEL 9
REMARK VINA RESULT:      -6.5      8.013     10.612
REMARK  Name = 
REMARK  11 active torsions:
REMARK  status: ('A' for Active; 'I' for Inactive)
REMARK    1  A    between atoms: C_1  and  O_2
REMARK    2  A    between atoms: O_2  and  C_3
REMARK    3  A    between atoms: C_6  and  P_7
REMARK    4  A    between atoms: P_7  and  O_9
REMARK    5  A    between atoms: P_7  and  N_17
REMARK    6  A    between atoms: O_9  and  C_10
REMARK    7  A    between atoms: C_10  and  C_11
REMARK    8  A    between atoms: C_11  and  C_12
REMARK    9  A    between atoms: C_12  and  C_13
REMARK   10  A    between atoms: C_26  and  C_27
REMARK   11  A    between atoms: N_29  and  O_30
REMARK                            x       y       z     vdW  Elec       q    Type
REMARK                         _______ _______ _______ _____ _____    ______ ____
ROOT
ATOM      1  P   UNL     1      -0.513  12.375  20.895  0.00  0.00    +0.000 P 
ATOM      2  O   UNL     1      -1.670  11.695  21.666  0.00  0.00    +0.000 OA
ENDROOT
BRANCH   1   3
ATOM      3  N   UNL     1       0.818  13.157  20.009  0.00  0.00    +0.000 NA
ATOM      4  C   UNL     1       1.755  13.924  20.877  0.00  0.00    +0.000 C 
ATOM      5  C   UNL     1       2.861  14.616  20.094  0.00  0.00    +0.000 A 
ATOM      6  C   UNL     1       3.514  15.750  20.571  0.00  0.00    +0.000 A 
ATOM      7  C   UNL     1       4.563  16.300  19.834  0.00  0.00    +0.000 A 
ATOM      8  C   UNL     1       5.044  15.647  18.697  0.00  0.00    +0.000 A 
ATOM      9  C   UNL     1       4.373  14.535  18.196  0.00  0.00    +0.000 A 
ATOM     10  C   UNL     1       3.201  14.125  18.824  0.00  0.00    +0.000 A 
ATOM     11  C   UNL     1       2.140  13.334  18.094  0.00  0.00    +0.000 C 
ATOM     12  C   UNL     1       0.733  13.686  18.656  0.00  0.00    +0.000 C 
BRANCH  12  13
ATOM     13  C   UNL     1       0.262  15.163  18.801  0.00  0.00    +0.000 C 
ATOM     14  O   UNL     1       0.957  16.103  18.386  0.00  0.00    +0.000 OA
ATOM     15  N   UNL     1      -0.970  15.411  19.360  0.00  0.00    +0.000 N 
ATOM     16  H   UNL     1      -1.725  14.739  19.247  0.00  0.00    +0.000 HD
BRANCH  15  17
ATOM     17  O   UNL     1      -1.384  16.771  19.207  0.00  0.00    +0.000 OA
ATOM     18  H   UNL     1      -0.833  17.241  19.870  0.00  0.00    +0.000 HD
ENDBRANCH  15  17
ENDBRANCH  12  13
ENDBRANCH   1   3
BRANCH   1  22
ATOM     19  C   UNL     1       1.681   8.252  20.024  0.00  0.00    +0.000 A 
ATOM     20  C   UNL     1       1.296   8.561  21.335  0.00  0.00    +0.000 A 
ATOM     21  C   UNL     1       0.613   9.749  21.615  0.00  0.00    +0.000 A 
ATOM     22  C   UNL     1       0.317  10.632  20.574  0.00  0.00    +0.000 A 
ATOM     23  C   UNL     1       0.714  10.327  19.258  0.00  0.00    +0.000 A 
ATOM     24  C   UNL     1       1.389   9.132  18.981  0.00  0.00    +0.000 A 
BRANCH  19  26
ATOM     25  C   UNL     1       2.580   6.590  18.577  0.00  0.00    +0.000 C 
ATOM     26  O   UNL     1       2.394   7.082  19.902  0.00  0.00    +0.000 OA
ENDBRANCH  19  26
ENDBRANCH   1  22
BRANCH   1  27
ATOM     27  O   UNL     1      -1.426  12.484  19.454  0.00  0.00    +0.000 OA
BRANCH  27  28
ATOM     28  C   UNL     1      -2.828  12.236  19.590  0.00  0.00    +0.000 C 
BRANCH  28  29
ATOM     29  C   UNL     1      -3.459  11.537  18.398  0.00  0.00    +0.000 C 
BRANCH  29  30
ATOM     30  C   UNL     1      -2.376  11.400  17.312  0.00  0.00    +0.000 C 
BRANCH  30  31
ATOM     31  C   UNL     1      -2.383  10.089  16.562  0.00  0.00    +0.000 C 
ATOM     32  F   UNL     1      -3.448   9.321  16.869  0.00  0.00    +0.000 F 
ATOM     33  F   UNL     1      -2.395  10.305  15.228  0.00  0.00    +0.000 F 
ATOM     34  F   UNL     1      -1.266   9.380  16.841  0.00  0.00    +0.000 F 
ENDBRANCH  30  31
ENDBRANCH  29  30
ENDBRANCH  28  29
ENDBRANCH  27  28
ENDBRANCH   1  27
TORSDOF 10
ENDMDL
