MODEL 1
REMARK VINA RESULT:      -7.6      0.000      0.000
REMARK  Name = 
REMARK  4 active torsions:
REMARK  status: ('A' for Active; 'I' for Inactive)
REMARK    1  A    between atoms: C_1  and  C_2
REMARK    2  A    between atoms: C_2  and  N_3
REMARK    3  A    between atoms: C_10  and  C_12
REMARK    4  A    between atoms: C_17  and  N_18
REMARK                            x       y       z     vdW  Elec       q    Type
REMARK                         _______ _______ _______ _____ _____    ______ ____
ROOT
ATOM      1  N   UNL     1       1.344   3.836  20.475  0.00  0.00    +0.000 N 
ATOM      2  C   UNL     1       1.643   5.259  20.364  0.00  0.00    +0.000 C 
ATOM      3  C   UNL     1       2.271   5.591  19.003  0.00  0.00    +0.000 C 
ATOM      4  C   UNL     1       2.476   7.114  18.853  0.00  0.00    +0.000 C 
ATOM      5  C   UNL     1       3.186   7.452  17.544  0.00  0.00    +0.000 C 
ATOM      6  C   UNL     1       4.455   6.628  17.322  0.00  0.00    +0.000 C 
ATOM      7  N   UNL     1       4.309   5.202  17.638  0.00  0.00    +0.000 N 
ATOM      8  C   UNL     1       4.970   4.117  17.011  0.00  0.00    +0.000 C 
ATOM      9  O   UNL     1       4.936   2.985  17.494  0.00  0.00    +0.000 OA
ATOM     10  C   UNL     1       3.657   4.921  18.912  0.00  0.00    +0.000 C 
ATOM     11  C   UNL     1       1.289   5.081  17.920  0.00  0.00    +0.000 C 
ATOM     12  C   UNL     1       0.935   3.612  18.076  0.00  0.00    +0.000 C 
ATOM     13  C   UNL     1       0.637   3.165  19.490  0.00  0.00    +0.000 C 
ATOM     14  O   UNL     1      -0.018   2.145  19.704  0.00  0.00    +0.000 OA
ENDROOT
BRANCH   8  15
ATOM     15  C   UNL     1       5.735   4.322  15.749  0.00  0.00    +0.000 A 
ATOM     16  C   UNL     1       5.080   3.966  14.553  0.00  0.00    +0.000 A 
ATOM     17  C   UNL     1       5.713   4.062  13.319  0.00  0.00    +0.000 A 
ATOM     18  C   UNL     1       6.980   4.614  13.255  0.00  0.00    +0.000 A 
ATOM     19  C   UNL     1       7.593   5.084  14.421  0.00  0.00    +0.000 A 
ATOM     20  C   UNL     1       7.003   4.972  15.700  0.00  0.00    +0.000 A 
BRANCH  20  21
ATOM     21  N   UNL     1       7.672   5.494  16.794  0.00  0.00    +0.000 N 
ATOM     22  C   UNL     1       7.987   4.741  18.005  0.00  0.00    +0.000 C 
ATOM     23  C   UNL     1       7.599   5.689  19.134  0.00  0.00    +0.000 C 
ATOM     24  C   UNL     1       7.946   7.056  18.568  0.00  0.00    +0.000 C 
ATOM     25  C   UNL     1       7.712   6.934  17.056  0.00  0.00    +0.000 C 
ENDBRANCH  20  21
ENDBRANCH   8  15
BRANCH   1  27
ATOM     26  C   UNL     1       3.116   2.318  21.351  0.00  0.00    +0.000 C 
ATOM     27  C   UNL     1       1.834   3.076  21.614  0.00  0.00    +0.000 C 
ENDBRANCH   1  27
TORSDOF 3
ENDMDL
MODEL 2
REMARK VINA RESULT:      -6.4      4.154      7.147
REMARK  Name = 
REMARK  4 active torsions:
REMARK  status: ('A' for Active; 'I' for Inactive)
REMARK    1  A    between atoms: C_1  and  C_2
REMARK    2  A    between atoms: C_2  and  N_3
REMARK    3  A    between atoms: C_10  and  C_12
REMARK    4  A    between atoms: C_17  and  N_18
REMARK                            x       y       z     vdW  Elec       q    Type
REMARK                         _______ _______ _______ _____ _____    ______ ____
ROOT
ATOM      1  N   UNL     1       4.504   5.096  18.333  0.00  0.00    +0.000 N 
ATOM      2  C   UNL     1       4.044   5.295  19.703  0.00  0.00    +0.000 C 
ATOM      3  C   UNL     1       2.715   6.063  19.737  0.00  0.00    +0.000 C 
ATOM      4  C   UNL     1       2.182   6.166  21.182  0.00  0.00    +0.000 C 
ATOM      5  C   UNL     1       0.910   7.010  21.245  0.00  0.00    +0.000 C 
ATOM      6  C   UNL     1       1.050   8.357  20.536  0.00  0.00    +0.000 C 
ATOM      7  N   UNL     1       1.723   8.283  19.233  0.00  0.00    +0.000 N 
ATOM      8  C   UNL     1       1.483   9.101  18.102  0.00  0.00    +0.000 C 
ATOM      9  O   UNL     1       2.247   9.094  17.136  0.00  0.00    +0.000 OA
ATOM     10  C   UNL     1       2.952   7.498  19.222  0.00  0.00    +0.000 C 
ATOM     11  C   UNL     1       1.716   5.271  18.860  0.00  0.00    +0.000 C 
ATOM     12  C   UNL     1       2.226   5.015  17.452  0.00  0.00    +0.000 C 
ATOM     13  C   UNL     1       3.670   4.575  17.357  0.00  0.00    +0.000 C 
ATOM     14  O   UNL     1       4.084   3.979  16.362  0.00  0.00    +0.000 OA
ENDROOT
BRANCH   8  15
ATOM     15  C   UNL     1       0.297  10.003  18.054  0.00  0.00    +0.000 A 
ATOM     16  C   UNL     1      -0.899   9.442  17.565  0.00  0.00    +0.000 A 
ATOM     17  C   UNL     1      -2.055  10.200  17.424  0.00  0.00    +0.000 A 
ATOM     18  C   UNL     1      -2.059  11.511  17.870  0.00  0.00    +0.000 A 
ATOM     19  C   UNL     1      -0.913  12.043  18.470  0.00  0.00    +0.000 A 
ATOM     20  C   UNL     1       0.296  11.321  18.599  0.00  0.00    +0.000 A 
BRANCH  20  21
ATOM     21  N   UNL     1       1.369  11.921  19.236  0.00  0.00    +0.000 N 
ATOM     22  C   UNL     1       1.423  12.209  20.667  0.00  0.00    +0.000 C 
ATOM     23  C   UNL     1       1.958  13.634  20.731  0.00  0.00    +0.000 C 
ATOM     24  C   UNL     1       2.926  13.690  19.560  0.00  0.00    +0.000 C 
ATOM     25  C   UNL     1       2.334  12.745  18.506  0.00  0.00    +0.000 C 
ENDBRANCH  20  21
ENDBRANCH   8  15
BRANCH   1  27
ATOM     26  C   UNL     1       5.919   6.791  17.175  0.00  0.00    +0.000 C 
ATOM     27  C   UNL     1       5.850   5.495  17.953  0.00  0.00    +0.000 C 
ENDBRANCH   1  27
TORSDOF 3
ENDMDL
MODEL 3
REMARK VINA RESULT:      -6.3     11.392     14.412
REMARK  Name = 
REMARK  4 active torsions:
REMARK  status: ('A' for Active; 'I' for Inactive)
REMARK    1  A    between atoms: C_1  and  C_2
REMARK    2  A    between atoms: C_2  and  N_3
REMARK    3  A    between atoms: C_10  and  C_12
REMARK    4  A    between atoms: C_17  and  N_18
REMARK                            x       y       z     vdW  Elec       q    Type
REMARK                         _______ _______ _______ _____ _____    ______ ____
ROOT
ATOM      1  N   UNL     1      -6.355  12.413  17.490  0.00  0.00    +0.000 N 
ATOM      2  C   UNL     1      -6.958  11.642  18.572  0.00  0.00    +0.000 C 
ATOM      3  C   UNL     1      -6.996  12.449  19.877  0.00  0.00    +0.000 C 
ATOM      4  C   UNL     1      -7.738  11.667  20.982  0.00  0.00    +0.000 C 
ATOM      5  C   UNL     1      -7.701  12.416  22.312  0.00  0.00    +0.000 C 
ATOM      6  C   UNL     1      -6.295  12.866  22.707  0.00  0.00    +0.000 C 
ATOM      7  N   UNL     1      -5.520  13.450  21.605  0.00  0.00    +0.000 N 
ATOM      8  C   UNL     1      -4.542  14.471  21.697  0.00  0.00    +0.000 C 
ATOM      9  O   UNL     1      -3.804  14.736  20.748  0.00  0.00    +0.000 OA
ATOM     10  C   UNL     1      -5.551  12.687  20.362  0.00  0.00    +0.000 C 
ATOM     11  C   UNL     1      -7.747  13.767  19.567  0.00  0.00    +0.000 C 
ATOM     12  C   UNL     1      -7.150  14.537  18.401  0.00  0.00    +0.000 C 
ATOM     13  C   UNL     1      -6.775  13.701  17.198  0.00  0.00    +0.000 C 
ATOM     14  O   UNL     1      -6.655  14.214  16.086  0.00  0.00    +0.000 OA
ENDROOT
BRANCH   8  15
ATOM     15  C   UNL     1      -4.375  15.251  22.957  0.00  0.00    +0.000 A 
ATOM     16  C   UNL     1      -5.334  16.253  23.207  0.00  0.00    +0.000 A 
ATOM     17  C   UNL     1      -5.251  17.079  24.321  0.00  0.00    +0.000 A 
ATOM     18  C   UNL     1      -4.260  16.845  25.259  0.00  0.00    +0.000 A 
ATOM     19  C   UNL     1      -3.376  15.775  25.084  0.00  0.00    +0.000 A 
ATOM     20  C   UNL     1      -3.400  14.934  23.948  0.00  0.00    +0.000 A 
BRANCH  20  21
ATOM     21  N   UNL     1      -2.505  13.881  23.876  0.00  0.00    +0.000 N 
ATOM     22  C   UNL     1      -1.153  13.983  23.330  0.00  0.00    +0.000 C 
ATOM     23  C   UNL     1      -1.029  12.754  22.437  0.00  0.00    +0.000 C 
ATOM     24  C   UNL     1      -1.838  11.705  23.182  0.00  0.00    +0.000 C 
ATOM     25  C   UNL     1      -2.953  12.487  23.888  0.00  0.00    +0.000 C 
ENDBRANCH  20  21
ENDBRANCH   8  15
BRANCH   1  27
ATOM     26  C   UNL     1      -4.365  10.912  17.507  0.00  0.00    +0.000 C 
ATOM     27  C   UNL     1      -5.254  11.853  16.724  0.00  0.00    +0.000 C 
ENDBRANCH   1  27
TORSDOF 3
ENDMDL
MODEL 4
REMARK VINA RESULT:      -6.2      9.596     11.862
REMARK  Name = 
REMARK  4 active torsions:
REMARK  status: ('A' for Active; 'I' for Inactive)
REMARK    1  A    between atoms: C_1  and  C_2
REMARK    2  A    between atoms: C_2  and  N_3
REMARK    3  A    between atoms: C_10  and  C_12
REMARK    4  A    between atoms: C_17  and  N_18
REMARK                            x       y       z     vdW  Elec       q    Type
REMARK                         _______ _______ _______ _____ _____    ______ ____
ROOT
ATOM      1  N   UNL     1       6.856  13.937  24.599  0.00  0.00    +0.000 N 
ATOM      2  C   UNL     1       8.152  14.492  24.972  0.00  0.00    +0.000 C 
ATOM      3  C   UNL     1       8.747  15.331  23.832  0.00  0.00    +0.000 C 
ATOM      4  C   UNL     1      10.061  16.006  24.280  0.00  0.00    +0.000 C 
ATOM      5  C   UNL     1      10.714  16.767  23.128  0.00  0.00    +0.000 C 
ATOM      6  C   UNL     1      10.848  15.928  21.856  0.00  0.00    +0.000 C 
ATOM      7  N   UNL     1       9.652  15.142  21.528  0.00  0.00    +0.000 N 
ATOM      8  C   UNL     1       9.187  14.797  20.234  0.00  0.00    +0.000 C 
ATOM      9  O   UNL     1       8.298  13.959  20.079  0.00  0.00    +0.000 OA
ATOM     10  C   UNL     1       9.078  14.402  22.646  0.00  0.00    +0.000 C 
ATOM     11  C   UNL     1       7.695  16.408  23.471  0.00  0.00    +0.000 C 
ATOM     12  C   UNL     1       6.331  15.827  23.141  0.00  0.00    +0.000 C 
ATOM     13  C   UNL     1       5.852  14.732  24.068  0.00  0.00    +0.000 C 
ATOM     14  O   UNL     1       4.656  14.457  24.155  0.00  0.00    +0.000 OA
ENDROOT
BRANCH   8  15
ATOM     15  C   UNL     1       9.772  15.436  19.022  0.00  0.00    +0.000 A 
ATOM     16  C   UNL     1       9.406  16.776  18.780  0.00  0.00    +0.000 A 
ATOM     17  C   UNL     1       9.846  17.459  17.653  0.00  0.00    +0.000 A 
ATOM     18  C   UNL     1      10.745  16.842  16.800  0.00  0.00    +0.000 A 
ATOM     19  C   UNL     1      11.210  15.556  17.094  0.00  0.00    +0.000 A 
ATOM     20  C   UNL     1      10.762  14.811  18.208  0.00  0.00    +0.000 A 
BRANCH  20  21
ATOM     21  N   UNL     1      11.303  13.557  18.436  0.00  0.00    +0.000 N 
ATOM     22  C   UNL     1      10.674  12.301  18.034  0.00  0.00    +0.000 C 
ATOM     23  C   UNL     1      10.815  11.413  19.264  0.00  0.00    +0.000 C 
ATOM     24  C   UNL     1      12.156  11.836  19.842  0.00  0.00    +0.000 C 
ATOM     25  C   UNL     1      12.289  13.325  19.493  0.00  0.00    +0.000 C 
ENDBRANCH  20  21
ENDBRANCH   8  15
BRANCH   1  27
ATOM     26  C   UNL     1       6.836  11.718  23.463  0.00  0.00    +0.000 C 
ATOM     27  C   UNL     1       6.610  12.509  24.732  0.00  0.00    +0.000 C 
ENDBRANCH   1  27
TORSDOF 3
ENDMDL
MODEL 5
REMARK VINA RESULT:      -6.1      8.819     11.056
REMARK  Name = 
REMARK  4 active torsions:
REMARK  status: ('A' for Active; 'I' for Inactive)
REMARK    1  A    between atoms: C_1  and  C_2
REMARK    2  A    between atoms: C_2  and  N_3
REMARK    3  A    between atoms: C_10  and  C_12
REMARK    4  A    between atoms: C_17  and  N_18
REMARK                            x       y       z     vdW  Elec       q    Type
REMARK                         _______ _______ _______ _____ _____    ______ ____
ROOT
ATOM      1  N   UNL     1       3.572  15.154  19.926  0.00  0.00    +0.000 N 
ATOM      2  C   UNL     1       4.364  15.466  21.110  0.00  0.00    +0.000 C 
ATOM      3  C   UNL     1       5.775  15.934  20.729  0.00  0.00    +0.000 C 
ATOM      4  C   UNL     1       6.563  16.370  21.983  0.00  0.00    +0.000 C 
ATOM      5  C   UNL     1       8.001  16.748  21.631  0.00  0.00    +0.000 C 
ATOM      6  C   UNL     1       8.710  15.687  20.788  0.00  0.00    +0.000 C 
ATOM      7  N   UNL     1       7.891  15.140  19.700  0.00  0.00    +0.000 N 
ATOM      8  C   UNL     1       8.346  14.681  18.438  0.00  0.00    +0.000 C 
ATOM      9  O   UNL     1       7.606  14.047  17.685  0.00  0.00    +0.000 OA
ATOM     10  C   UNL     1       6.536  14.758  20.083  0.00  0.00    +0.000 C 
ATOM     11  C   UNL     1       5.605  17.135  19.767  0.00  0.00    +0.000 C 
ATOM     12  C   UNL     1       4.730  16.821  18.565  0.00  0.00    +0.000 C 
ATOM     13  C   UNL     1       3.469  16.044  18.868  0.00  0.00    +0.000 C 
ATOM     14  O   UNL     1       2.515  16.061  18.091  0.00  0.00    +0.000 OA
ENDROOT
BRANCH   8  15
ATOM     15  C   UNL     1       9.742  14.948  17.992  0.00  0.00    +0.000 A 
ATOM     16  C   UNL     1      10.033  16.268  17.592  0.00  0.00    +0.000 A 
ATOM     17  C   UNL     1      11.285  16.623  17.106  0.00  0.00    +0.000 A 
ATOM     18  C   UNL     1      12.300  15.682  17.110  0.00  0.00    +0.000 A 
ATOM     19  C   UNL     1      12.058  14.401  17.618  0.00  0.00    +0.000 A 
ATOM     20  C   UNL     1      10.790  13.985  18.087  0.00  0.00    +0.000 A 
BRANCH  20  21
ATOM     21  N   UNL     1      10.654  12.707  18.601  0.00  0.00    +0.000 N 
ATOM     22  C   UNL     1      10.274  11.537  17.813  0.00  0.00    +0.000 C 
ATOM     23  C   UNL     1       9.223  10.845  18.672  0.00  0.00    +0.000 C 
ATOM     24  C   UNL     1       9.709  11.107  20.088  0.00  0.00    +0.000 C 
ATOM     25  C   UNL     1      10.405  12.473  20.025  0.00  0.00    +0.000 C 
ENDBRANCH  20  21
ENDBRANCH   8  15
BRANCH   1  27
ATOM     26  C   UNL     1       1.749  13.675  20.763  0.00  0.00    +0.000 C 
ATOM     27  C   UNL     1       2.910  13.864  19.812  0.00  0.00    +0.000 C 
ENDBRANCH   1  27
TORSDOF 3
ENDMDL
MODEL 6
REMARK VINA RESULT:      -6.1     11.026     14.080
REMARK  Name = 
REMARK  4 active torsions:
REMARK  status: ('A' for Active; 'I' for Inactive)
REMARK    1  A    between atoms: C_1  and  C_2
REMARK    2  A    between atoms: C_2  and  N_3
REMARK    3  A    between atoms: C_10  and  C_12
REMARK    4  A    between atoms: C_17  and  N_18
REMARK                            x       y       z     vdW  Elec       q    Type
REMARK                         _______ _______ _______ _____ _____    ______ ____
ROOT
ATOM      1  N   UNL     1      -7.231  11.936  18.869  0.00  0.00    +0.000 N 
ATOM      2  C   UNL     1      -7.638  11.379  20.155  0.00  0.00    +0.000 C 
ATOM      3  C   UNL     1      -7.240  12.305  21.313  0.00  0.00    +0.000 C 
ATOM      4  C   UNL     1      -7.778  11.763  22.655  0.00  0.00    +0.000 C 
ATOM      5  C   UNL     1      -7.310  12.622  23.828  0.00  0.00    +0.000 C 
ATOM      6  C   UNL     1      -5.802  12.877  23.819  0.00  0.00    +0.000 C 
ATOM      7  N   UNL     1      -5.259  13.220  22.498  0.00  0.00    +0.000 N 
ATOM      8  C   UNL     1      -4.164  14.075  22.222  0.00  0.00    +0.000 C 
ATOM      9  O   UNL     1      -3.661  14.125  21.100  0.00  0.00    +0.000 OA
ATOM     10  C   UNL     1      -5.702  12.355  21.410  0.00  0.00    +0.000 C 
ATOM     11  C   UNL     1      -7.865  13.690  21.015  0.00  0.00    +0.000 C 
ATOM     12  C   UNL     1      -7.485  14.238  19.650  0.00  0.00    +0.000 C 
ATOM     13  C   UNL     1      -7.538  13.240  18.514  0.00  0.00    +0.000 C 
ATOM     14  O   UNL     1      -7.634  13.617  17.347  0.00  0.00    +0.000 OA
ENDROOT
BRANCH   8  15
ATOM     15  C   UNL     1      -3.585  14.937  23.292  0.00  0.00    +0.000 A 
ATOM     16  C   UNL     1      -4.462  15.857  23.901  0.00  0.00    +0.000 A 
ATOM     17  C   UNL     1      -4.023  16.748  24.873  0.00  0.00    +0.000 A 
ATOM     18  C   UNL     1      -2.718  16.661  25.324  0.00  0.00    +0.000 A 
ATOM     19  C   UNL     1      -1.871  15.672  24.815  0.00  0.00    +0.000 A 
ATOM     20  C   UNL     1      -2.263  14.770  23.800  0.00  0.00    +0.000 A 
BRANCH  20  21
ATOM     21  N   UNL     1      -1.366  13.802  23.380  0.00  0.00    +0.000 N 
ATOM     22  C   UNL     1      -0.277  14.042  22.437  0.00  0.00    +0.000 C 
ATOM     23  C   UNL     1      -0.360  12.861  21.477  0.00  0.00    +0.000 C 
ATOM     24  C   UNL     1      -0.805  11.719  22.376  0.00  0.00    +0.000 C 
ATOM     25  C   UNL     1      -1.684  12.375  23.450  0.00  0.00    +0.000 C 
ENDBRANCH  20  21
ENDBRANCH   8  15
BRANCH   1  27
ATOM     26  C   UNL     1      -4.963  11.457  17.952  0.00  0.00    +0.000 C 
ATOM     27  C   UNL     1      -6.441  11.135  17.948  0.00  0.00    +0.000 C 
ENDBRANCH   1  27
TORSDOF 3
ENDMDL
MODEL 7
REMARK VINA RESULT:      -6.1      7.672     10.342
REMARK  Name = 
REMARK  4 active torsions:
REMARK  status: ('A' for Active; 'I' for Inactive)
REMARK    1  A    between atoms: C_1  and  C_2
REMARK    2  A    between atoms: C_2  and  N_3
REMARK    3  A    between atoms: C_10  and  C_12
REMARK    4  A    between atoms: C_17  and  N_18
REMARK                            x       y       z     vdW  Elec       q    Type
REMARK                         _______ _______ _______ _____ _____    ______ ____
ROOT
ATOM      1  N   UNL     1       4.389  15.578  22.570  0.00  0.00    +0.000 N 
ATOM      2  C   UNL     1       4.755  15.644  21.159  0.00  0.00    +0.000 C 
ATOM      3  C   UNL     1       3.588  15.214  20.260  0.00  0.00    +0.000 C 
ATOM      4  C   UNL     1       3.950  15.398  18.770  0.00  0.00    +0.000 C 
ATOM      5  C   UNL     1       2.835  14.885  17.862  0.00  0.00    +0.000 C 
ATOM      6  C   UNL     1       2.373  13.472  18.220  0.00  0.00    +0.000 C 
ATOM      7  N   UNL     1       2.201  13.244  19.660  0.00  0.00    +0.000 N 
ATOM      8  C   UNL     1       1.262  12.383  20.281  0.00  0.00    +0.000 C 
ATOM      9  O   UNL     1       1.345  12.106  21.478  0.00  0.00    +0.000 OA
ATOM     10  C   UNL     1       3.302  13.716  20.491  0.00  0.00    +0.000 C 
ATOM     11  C   UNL     1       2.384  16.115  20.627  0.00  0.00    +0.000 C 
ATOM     12  C   UNL     1       2.044  16.088  22.107  0.00  0.00    +0.000 C 
ATOM     13  C   UNL     1       3.228  16.168  23.045  0.00  0.00    +0.000 C 
ATOM     14  O   UNL     1       3.086  16.537  24.210  0.00  0.00    +0.000 OA
ENDROOT
BRANCH   8  15
ATOM     15  C   UNL     1       0.147  11.782  19.495  0.00  0.00    +0.000 A 
ATOM     16  C   UNL     1      -0.927  12.636  19.174  0.00  0.00    +0.000 A 
ATOM     17  C   UNL     1      -2.046  12.174  18.491  0.00  0.00    +0.000 A 
ATOM     18  C   UNL     1      -2.060  10.870  18.028  0.00  0.00    +0.000 A 
ATOM     19  C   UNL     1      -0.948  10.047  18.234  0.00  0.00    +0.000 A 
ATOM     20  C   UNL     1       0.195  10.463  18.955  0.00  0.00    +0.000 A 
BRANCH  20  21
ATOM     21  N   UNL     1       1.261   9.589  19.081  0.00  0.00    +0.000 N 
ATOM     22  C   UNL     1       2.117   9.168  17.975  0.00  0.00    +0.000 C 
ATOM     23  C   UNL     1       2.239   7.660  18.163  0.00  0.00    +0.000 C 
ATOM     24  C   UNL     1       2.235   7.501  19.675  0.00  0.00    +0.000 C 
ATOM     25  C   UNL     1       1.353   8.643  20.195  0.00  0.00    +0.000 C 
ENDBRANCH  20  21
ENDBRANCH   8  15
BRANCH   1  27
ATOM     26  C   UNL     1       5.828  13.576  22.933  0.00  0.00    +0.000 C 
ATOM     27  C   UNL     1       5.222  14.838  23.504  0.00  0.00    +0.000 C 
ENDBRANCH   1  27
TORSDOF 3
ENDMDL
MODEL 8
REMARK VINA RESULT:      -6.0      8.882     11.267
REMARK  Name = 
REMARK  4 active torsions:
REMARK  status: ('A' for Active; 'I' for Inactive)
REMARK    1  A    between atoms: C_1  and  C_2
REMARK    2  A    between atoms: C_2  and  N_3
REMARK    3  A    between atoms: C_10  and  C_12
REMARK    4  A    between atoms: C_17  and  N_18
REMARK                            x       y       z     vdW  Elec       q    Type
REMARK                         _______ _______ _______ _____ _____    ______ ____
ROOT
ATOM      1  N   UNL     1      -7.097  12.420  20.444  0.00  0.00    +0.000 N 
ATOM      2  C   UNL     1      -6.545  12.732  21.758  0.00  0.00    +0.000 C 
ATOM      3  C   UNL     1      -5.141  13.340  21.642  0.00  0.00    +0.000 C 
ATOM      4  C   UNL     1      -4.616  13.772  23.028  0.00  0.00    +0.000 C 
ATOM      5  C   UNL     1      -3.182  14.291  22.941  0.00  0.00    +0.000 C 
ATOM      6  C   UNL     1      -2.247  13.344  22.189  0.00  0.00    +0.000 C 
ATOM      7  N   UNL     1      -2.819  12.790  20.955  0.00  0.00    +0.000 N 
ATOM      8  C   UNL     1      -2.120  12.444  19.772  0.00  0.00    +0.000 C 
ATOM      9  O   UNL     1      -2.662  11.792  18.879  0.00  0.00    +0.000 OA
ATOM     10  C   UNL     1      -4.176  12.272  21.087  0.00  0.00    +0.000 C 
ATOM     11  C   UNL     1      -5.262  14.575  20.715  0.00  0.00    +0.000 C 
ATOM     12  C   UNL     1      -5.892  14.254  19.370  0.00  0.00    +0.000 C 
ATOM     13  C   UNL     1      -7.107  13.355  19.422  0.00  0.00    +0.000 C 
ATOM     14  O   UNL     1      -7.916  13.334  18.495  0.00  0.00    +0.000 OA
ENDROOT
BRANCH   8  15
ATOM     15  C   UNL     1      -0.700  12.854  19.581  0.00  0.00    +0.000 A 
ATOM     16  C   UNL     1      -0.480  14.192  19.196  0.00  0.00    +0.000 A 
ATOM     17  C   UNL     1       0.798  14.674  18.936  0.00  0.00    +0.000 A 
ATOM     18  C   UNL     1       1.886  13.849  19.160  0.00  0.00    +0.000 A 
ATOM     19  C   UNL     1       1.689  12.558  19.659  0.00  0.00    +0.000 A 
ATOM     20  C   UNL     1       0.407  12.014  19.901  0.00  0.00    +0.000 A 
BRANCH  20  21
ATOM     21  N   UNL     1       0.310  10.736  20.426  0.00  0.00    +0.000 N 
ATOM     22  C   UNL     1       0.129  10.439  21.845  0.00  0.00    +0.000 C 
ATOM     23  C   UNL     1       1.131   9.323  22.114  0.00  0.00    +0.000 C 
ATOM     24  C   UNL     1       1.124   8.534  20.815  0.00  0.00    +0.000 C 
ATOM     25  C   UNL     1       0.845   9.571  19.719  0.00  0.00    +0.000 C 
ENDBRANCH  20  21
ENDBRANCH   8  15
BRANCH   1  27
ATOM     26  C   UNL     1      -6.792  10.305  19.160  0.00  0.00    +0.000 C 
ATOM     27  C   UNL     1      -7.607  11.086  20.167  0.00  0.00    +0.000 C 
ENDBRANCH   1  27
TORSDOF 3
ENDMDL
MODEL 9
REMARK VINA RESULT:      -6.0      4.495      6.891
REMARK  Name = 
REMARK  4 active torsions:
REMARK  status: ('A' for Active; 'I' for Inactive)
REMARK    1  A    between atoms: C_1  and  C_2
REMARK    2  A    between atoms: C_2  and  N_3
REMARK    3  A    between atoms: C_10  and  C_12
REMARK    4  A    between atoms: C_17  and  N_18
REMARK                            x       y       z     vdW  Elec       q    Type
REMARK                         _______ _______ _______ _____ _____    ______ ____
ROOT
ATOM      1  N   UNL     1      -1.307  11.754  19.296  0.00  0.00    +0.000 N 
ATOM      2  C   UNL     1      -1.058  11.143  20.597  0.00  0.00    +0.000 C 
ATOM      3  C   UNL     1       0.267  10.369  20.604  0.00  0.00    +0.000 C 
ATOM      4  C   UNL     1       0.574   9.825  22.016  0.00  0.00    +0.000 C 
ATOM      5  C   UNL     1       1.841   8.972  22.018  0.00  0.00    +0.000 C 
ATOM      6  C   UNL     1       1.846   7.903  20.925  0.00  0.00    +0.000 C 
ATOM      7  N   UNL     1       1.380   8.380  19.617  0.00  0.00    +0.000 N 
ATOM      8  C   UNL     1       1.812   7.934  18.344  0.00  0.00    +0.000 C 
ATOM      9  O   UNL     1       1.206   8.248  17.318  0.00  0.00    +0.000 OA
ATOM     10  C   UNL     1       0.149   9.161  19.652  0.00  0.00    +0.000 C 
ATOM     11  C   UNL     1       1.371  11.365  20.170  0.00  0.00    +0.000 C 
ATOM     12  C   UNL     1       1.077  12.042  18.842  0.00  0.00    +0.000 C 
ATOM     13  C   UNL     1      -0.345  12.524  18.662  0.00  0.00    +0.000 C 
ATOM     14  O   UNL     1      -0.615  13.400  17.840  0.00  0.00    +0.000 OA
ENDROOT
BRANCH   8  15
ATOM     15  C   UNL     1       3.012   7.060  18.212  0.00  0.00    +0.000 A 
ATOM     16  C   UNL     1       4.222   7.702  17.879  0.00  0.00    +0.000 A 
ATOM     17  C   UNL     1       5.395   6.985  17.676  0.00  0.00    +0.000 A 
ATOM     18  C   UNL     1       5.398   5.621  17.906  0.00  0.00    +0.000 A 
ATOM     19  C   UNL     1       4.233   4.990  18.356  0.00  0.00    +0.000 A 
ATOM     20  C   UNL     1       3.009   5.672  18.538  0.00  0.00    +0.000 A 
BRANCH  20  21
ATOM     21  N   UNL     1       1.916   4.970  19.017  0.00  0.00    +0.000 N 
ATOM     22  C   UNL     1       1.587   4.820  20.432  0.00  0.00    +0.000 C 
ATOM     23  C   UNL     1       1.255   3.339  20.574  0.00  0.00    +0.000 C 
ATOM     24  C   UNL     1       0.588   3.008  19.248  0.00  0.00    +0.000 C 
ATOM     25  C   UNL     1       1.261   3.929  18.222  0.00  0.00    +0.000 C 
ENDBRANCH  20  21
ENDBRANCH   8  15
BRANCH   1  27
ATOM     26  C   UNL     1      -2.574  10.294  17.722  0.00  0.00    +0.000 C 
ATOM     27  C   UNL     1      -2.568  11.519  18.610  0.00  0.00    +0.000 C 
ENDBRANCH   1  27
TORSDOF 3
ENDMDL
