MODEL 1
REMARK VINA RESULT:      -8.3      0.000      0.000
REMARK  Name = 
REMARK  6 active torsions:
REMARK  status: ('A' for Active; 'I' for Inactive)
REMARK    1  A    between atoms: C_1  and  C_2
REMARK    2  A    between atoms: C_5  and  N_6
REMARK    3  A    between atoms: N_6  and  C_7
REMARK    4  A    between atoms: C_10  and  C_11
REMARK    5  A    between atoms: C_11  and  C_12
REMARK    6  A    between atoms: C_12  and  C_13
REMARK                            x       y       z     vdW  Elec       q    Type
REMARK                         _______ _______ _______ _____ _____    ______ ____
ROOT
ATOM      1  C   UNL     1       6.800   5.183  17.949  0.00  0.00    +0.000 A 
ATOM      2  C   UNL     1       7.733   5.640  18.888  0.00  0.00    +0.000 A 
ATOM      3  C   UNL     1       8.204   6.955  18.864  0.00  0.00    +0.000 A 
ATOM      4  C   UNL     1       7.775   7.838  17.869  0.00  0.00    +0.000 A 
ATOM      5  C   UNL     1       6.898   7.365  16.884  0.00  0.00    +0.000 A 
ATOM      6  C   UNL     1       6.418   6.048  16.919  0.00  0.00    +0.000 A 
ENDROOT
BRANCH   1   7
ATOM      7  N   UNL     1       6.221   3.901  18.068  0.00  0.00    +0.000 N 
ATOM      8  H   UNL     1       6.632   3.205  17.455  0.00  0.00    +0.000 HD
BRANCH   7  13
ATOM      9  C   UNL     1       0.681   2.702  18.966  0.00  0.00    +0.000 C 
ATOM     10  C   UNL     1       2.127   3.020  18.739  0.00  0.00    +0.000 A 
ATOM     11  C   UNL     1       3.007   3.121  19.818  0.00  0.00    +0.000 A 
ATOM     12  C   UNL     1       4.351   3.430  19.601  0.00  0.00    +0.000 A 
ATOM     13  C   UNL     1       4.856   3.629  18.309  0.00  0.00    +0.000 A 
ATOM     14  C   UNL     1       3.966   3.537  17.231  0.00  0.00    +0.000 A 
ATOM     15  C   UNL     1       2.615   3.233  17.444  0.00  0.00    +0.000 A 
ENDBRANCH   7  13
ENDBRANCH   1   7
BRANCH   4  16
ATOM     16  C   UNL     1       8.204   9.284  17.888  0.00  0.00    +0.000 C 
BRANCH  16  17
ATOM     17  C   UNL     1       9.129   9.677  19.047  0.00  0.00    +0.000 C 
BRANCH  17  18
ATOM     18  C   UNL     1       9.417  11.174  19.131  0.00  0.00    +0.000 C 
ATOM     19  C   UNL     1      10.837  11.516  19.539  0.00  0.00    +0.000 C 
ATOM     20  O   UNL     1      11.117  12.697  18.804  0.00  0.00    +0.000 OA
ATOM     21  C   UNL     1      10.236  12.654  17.777  0.00  0.00    +0.000 C 
ATOM     22  N   UNL     1      10.495  13.562  16.818  0.00  0.00    +0.000 N 
ATOM     23  N   UNL     1       9.264  11.806  17.804  0.00  0.00    +0.000 NA
ATOM     24  H   UNL     1      11.034  14.354  17.141  0.00  0.00    +0.000 HD
ATOM     25  H   UNL     1       9.681  13.800  16.266  0.00  0.00    +0.000 HD
ENDBRANCH  17  18
ENDBRANCH  16  17
ENDBRANCH   4  16
TORSDOF 5
ENDMDL
MODEL 2
REMARK VINA RESULT:      -8.2      0.264      1.029
REMARK  Name = 
REMARK  6 active torsions:
REMARK  status: ('A' for Active; 'I' for Inactive)
REMARK    1  A    between atoms: C_1  and  C_2
REMARK    2  A    between atoms: C_5  and  N_6
REMARK    3  A    between atoms: N_6  and  C_7
REMARK    4  A    between atoms: C_10  and  C_11
REMARK    5  A    between atoms: C_11  and  C_12
REMARK    6  A    between atoms: C_12  and  C_13
REMARK                            x       y       z     vdW  Elec       q    Type
REMARK                         _______ _______ _______ _____ _____    ______ ____
ROOT
ATOM      1  C   UNL     1       6.726   5.167  18.082  0.00  0.00    +0.000 A 
ATOM      2  C   UNL     1       7.767   5.603  18.911  0.00  0.00    +0.000 A 
ATOM      3  C   UNL     1       8.250   6.911  18.846  0.00  0.00    +0.000 A 
ATOM      4  C   UNL     1       7.723   7.810  17.914  0.00  0.00    +0.000 A 
ATOM      5  C   UNL     1       6.733   7.359  17.032  0.00  0.00    +0.000 A 
ATOM      6  C   UNL     1       6.241   6.048  17.110  0.00  0.00    +0.000 A 
ENDROOT
BRANCH   1   7
ATOM      7  N   UNL     1       6.147   3.892  18.255  0.00  0.00    +0.000 N 
ATOM      8  H   UNL     1       6.614   3.154  17.739  0.00  0.00    +0.000 HD
BRANCH   7  13
ATOM      9  C   UNL     1       0.544   2.856  18.943  0.00  0.00    +0.000 C 
ATOM     10  C   UNL     1       2.006   3.124  18.754  0.00  0.00    +0.000 A 
ATOM     11  C   UNL     1       2.472   3.704  17.573  0.00  0.00    +0.000 A 
ATOM     12  C   UNL     1       3.836   3.940  17.399  0.00  0.00    +0.000 A 
ATOM     13  C   UNL     1       4.767   3.622  18.397  0.00  0.00    +0.000 A 
ATOM     14  C   UNL     1       4.294   3.029  19.575  0.00  0.00    +0.000 A 
ATOM     15  C   UNL     1       2.927   2.785  19.753  0.00  0.00    +0.000 A 
ENDBRANCH   7  13
ENDBRANCH   1   7
BRANCH   4  16
ATOM     16  C   UNL     1       8.172   9.250  17.897  0.00  0.00    +0.000 C 
BRANCH  16  17
ATOM     17  C   UNL     1       9.116   9.654  19.036  0.00  0.00    +0.000 C 
BRANCH  17  18
ATOM     18  C   UNL     1       9.314  11.162  19.172  0.00  0.00    +0.000 C 
ATOM     19  C   UNL     1      10.737  11.581  19.490  0.00  0.00    +0.000 C 
ATOM     20  O   UNL     1      10.884  12.809  18.795  0.00  0.00    +0.000 OA
ATOM     21  C   UNL     1       9.930  12.753  17.836  0.00  0.00    +0.000 C 
ATOM     22  N   UNL     1      10.056  13.717  16.906  0.00  0.00    +0.000 N 
ATOM     23  N   UNL     1       9.020  11.840  17.893  0.00  0.00    +0.000 NA
ATOM     24  H   UNL     1      10.568  14.529  17.227  0.00  0.00    +0.000 HD
ATOM     25  H   UNL     1       9.189  13.924  16.428  0.00  0.00    +0.000 HD
ENDBRANCH  17  18
ENDBRANCH  16  17
ENDBRANCH   4  16
TORSDOF 5
ENDMDL
MODEL 3
REMARK VINA RESULT:      -8.2      0.317      1.455
REMARK  Name = 
REMARK  6 active torsions:
REMARK  status: ('A' for Active; 'I' for Inactive)
REMARK    1  A    between atoms: C_1  and  C_2
REMARK    2  A    between atoms: C_5  and  N_6
REMARK    3  A    between atoms: N_6  and  C_7
REMARK    4  A    between atoms: C_10  and  C_11
REMARK    5  A    between atoms: C_11  and  C_12
REMARK    6  A    between atoms: C_12  and  C_13
REMARK                            x       y       z     vdW  Elec       q    Type
REMARK                         _______ _______ _______ _____ _____    ______ ____
ROOT
ATOM      1  C   UNL     1       6.469   5.333  17.945  0.00  0.00    +0.000 A 
ATOM      2  C   UNL     1       5.917   6.389  17.210  0.00  0.00    +0.000 A 
ATOM      3  C   UNL     1       6.508   7.653  17.198  0.00  0.00    +0.000 A 
ATOM      4  C   UNL     1       7.654   7.902  17.960  0.00  0.00    +0.000 A 
ATOM      5  C   UNL     1       8.169   6.869  18.755  0.00  0.00    +0.000 A 
ATOM      6  C   UNL     1       7.580   5.597  18.753  0.00  0.00    +0.000 A 
ENDROOT
BRANCH   1   7
ATOM      7  N   UNL     1       5.951   4.024  17.836  0.00  0.00    +0.000 N 
ATOM      8  H   UNL     1       6.332   3.493  17.060  0.00  0.00    +0.000 HD
BRANCH   7  13
ATOM      9  C   UNL     1       0.558   2.509  19.086  0.00  0.00    +0.000 C 
ATOM     10  C   UNL     1       1.965   2.901  18.751  0.00  0.00    +0.000 A 
ATOM     11  C   UNL     1       2.270   3.439  17.500  0.00  0.00    +0.000 A 
ATOM     12  C   UNL     1       3.584   3.791  17.190  0.00  0.00    +0.000 A 
ATOM     13  C   UNL     1       4.622   3.635  18.118  0.00  0.00    +0.000 A 
ATOM     14  C   UNL     1       4.311   3.083  19.368  0.00  0.00    +0.000 A 
ATOM     15  C   UNL     1       2.995   2.723  19.682  0.00  0.00    +0.000 A 
ENDBRANCH   7  13
ENDBRANCH   1   7
BRANCH   4  16
ATOM     16  C   UNL     1       8.353   9.236  17.882  0.00  0.00    +0.000 C 
BRANCH  16  17
ATOM     17  C   UNL     1       9.107   9.655  19.150  0.00  0.00    +0.000 C 
BRANCH  17  18
ATOM     18  C   UNL     1       9.451  11.141  19.206  0.00  0.00    +0.000 C 
ATOM     19  C   UNL     1      10.916  11.436  19.461  0.00  0.00    +0.000 C 
ATOM     20  O   UNL     1      11.155  12.611  18.702  0.00  0.00    +0.000 OA
ATOM     21  C   UNL     1      10.168  12.602  17.776  0.00  0.00    +0.000 C 
ATOM     22  N   UNL     1      10.353  13.506  16.796  0.00  0.00    +0.000 N 
ATOM     23  N   UNL     1       9.178  11.785  17.904  0.00  0.00    +0.000 NA
ATOM     24  H   UNL     1      10.949  14.279  17.061  0.00  0.00    +0.000 HD
ATOM     25  H   UNL     1       9.494  13.773  16.335  0.00  0.00    +0.000 HD
ENDBRANCH  17  18
ENDBRANCH  16  17
ENDBRANCH   4  16
TORSDOF 5
ENDMDL
MODEL 4
REMARK VINA RESULT:      -8.2      6.874      9.663
REMARK  Name = 
REMARK  6 active torsions:
REMARK  status: ('A' for Active; 'I' for Inactive)
REMARK    1  A    between atoms: C_1  and  C_2
REMARK    2  A    between atoms: C_5  and  N_6
REMARK    3  A    between atoms: N_6  and  C_7
REMARK    4  A    between atoms: C_10  and  C_11
REMARK    5  A    between atoms: C_11  and  C_12
REMARK    6  A    between atoms: C_12  and  C_13
REMARK                            x       y       z     vdW  Elec       q    Type
REMARK                         _______ _______ _______ _____ _____    ______ ____
ROOT
ATOM      1  C   UNL     1       1.215   9.445  18.701  0.00  0.00    +0.000 A 
ATOM      2  C   UNL     1       1.948   8.681  17.783  0.00  0.00    +0.000 A 
ATOM      3  C   UNL     1       2.507   7.454  18.142  0.00  0.00    +0.000 A 
ATOM      4  C   UNL     1       2.377   6.976  19.449  0.00  0.00    +0.000 A 
ATOM      5  C   UNL     1       1.708   7.770  20.391  0.00  0.00    +0.000 A 
ATOM      6  C   UNL     1       1.136   8.996  20.023  0.00  0.00    +0.000 A 
ENDROOT
BRANCH   1   7
ATOM      7  N   UNL     1       0.532  10.610  18.291  0.00  0.00    +0.000 N 
ATOM      8  H   UNL     1       0.960  11.472  18.610  0.00  0.00    +0.000 HD
BRANCH   7  13
ATOM      9  C   UNL     1      -5.172  11.051  17.831  0.00  0.00    +0.000 C 
ATOM     10  C   UNL     1      -3.682  10.946  17.951  0.00  0.00    +0.000 A 
ATOM     11  C   UNL     1      -2.975  11.825  18.772  0.00  0.00    +0.000 A 
ATOM     12  C   UNL     1      -1.586  11.728  18.871  0.00  0.00    +0.000 A 
ATOM     13  C   UNL     1      -0.870  10.748  18.171  0.00  0.00    +0.000 A 
ATOM     14  C   UNL     1      -1.584   9.876  17.340  0.00  0.00    +0.000 A 
ATOM     15  C   UNL     1      -2.977   9.972  17.233  0.00  0.00    +0.000 A 
ENDBRANCH   7  13
ENDBRANCH   1   7
BRANCH   4  16
ATOM     16  C   UNL     1       2.897   5.610  19.824  0.00  0.00    +0.000 C 
BRANCH  16  17
ATOM     17  C   UNL     1       1.837   4.621  20.324  0.00  0.00    +0.000 C 
BRANCH  17  18
ATOM     18  C   UNL     1       1.686   3.378  19.450  0.00  0.00    +0.000 C 
ATOM     19  C   UNL     1       1.853   3.634  17.964  0.00  0.00    +0.000 C 
ATOM     20  O   UNL     1       2.481   2.451  17.494  0.00  0.00    +0.000 OA
ATOM     21  C   UNL     1       3.054   1.927  18.603  0.00  0.00    +0.000 C 
ATOM     22  N   UNL     1       3.910   0.925  18.334  0.00  0.00    +0.000 N 
ATOM     23  N   UNL     1       2.742   2.394  19.764  0.00  0.00    +0.000 NA
ATOM     24  H   UNL     1       3.737   0.466  17.449  0.00  0.00    +0.000 HD
ATOM     25  H   UNL     1       4.046   0.297  19.116  0.00  0.00    +0.000 HD
ENDBRANCH  17  18
ENDBRANCH  16  17
ENDBRANCH   4  16
TORSDOF 5
ENDMDL
MODEL 5
REMARK VINA RESULT:      -8.2      0.313      1.064
REMARK  Name = 
REMARK  6 active torsions:
REMARK  status: ('A' for Active; 'I' for Inactive)
REMARK    1  A    between atoms: C_1  and  C_2
REMARK    2  A    between atoms: C_5  and  N_6
REMARK    3  A    between atoms: N_6  and  C_7
REMARK    4  A    between atoms: C_10  and  C_11
REMARK    5  A    between atoms: C_11  and  C_12
REMARK    6  A    between atoms: C_12  and  C_13
REMARK                            x       y       z     vdW  Elec       q    Type
REMARK                         _______ _______ _______ _____ _____    ______ ____
ROOT
ATOM      1  C   UNL     1       6.641   5.485  17.927  0.00  0.00    +0.000 A 
ATOM      2  C   UNL     1       6.172   6.514  17.101  0.00  0.00    +0.000 A 
ATOM      3  C   UNL     1       6.763   7.779  17.108  0.00  0.00    +0.000 A 
ATOM      4  C   UNL     1       7.822   8.055  17.978  0.00  0.00    +0.000 A 
ATOM      5  C   UNL     1       8.247   7.052  18.859  0.00  0.00    +0.000 A 
ATOM      6  C   UNL     1       7.659   5.780  18.839  0.00  0.00    +0.000 A 
ENDROOT
BRANCH   1   7
ATOM      7  N   UNL     1       6.135   4.173  17.808  0.00  0.00    +0.000 N 
ATOM      8  H   UNL     1       6.518   3.653  17.026  0.00  0.00    +0.000 HD
BRANCH   7  13
ATOM      9  C   UNL     1       0.765   2.447  18.872  0.00  0.00    +0.000 C 
ATOM     10  C   UNL     1       2.167   2.902  18.603  0.00  0.00    +0.000 A 
ATOM     11  C   UNL     1       3.112   2.927  19.629  0.00  0.00    +0.000 A 
ATOM     12  C   UNL     1       4.413   3.363  19.374  0.00  0.00    +0.000 A 
ATOM     13  C   UNL     1       4.811   3.768  18.093  0.00  0.00    +0.000 A 
ATOM     14  C   UNL     1       3.855   3.751  17.069  0.00  0.00    +0.000 A 
ATOM     15  C   UNL     1       2.547   3.319  17.321  0.00  0.00    +0.000 A 
ENDBRANCH   7  13
ENDBRANCH   1   7
BRANCH   4  16
ATOM     16  C   UNL     1       8.528   9.388  17.930  0.00  0.00    +0.000 C 
BRANCH  16  17
ATOM     17  C   UNL     1       9.107   9.870  19.265  0.00  0.00    +0.000 C 
BRANCH  17  18
ATOM     18  C   UNL     1       9.633  11.303  19.232  0.00  0.00    +0.000 C 
ATOM     19  C   UNL     1      11.145  11.415  19.256  0.00  0.00    +0.000 C 
ATOM     20  O   UNL     1      11.407  12.548  18.441  0.00  0.00    +0.000 OA
ATOM     21  C   UNL     1      10.297  12.655  17.674  0.00  0.00    +0.000 C 
ATOM     22  N   UNL     1      10.439  13.523  16.656  0.00  0.00    +0.000 N 
ATOM     23  N   UNL     1       9.246  11.968  17.970  0.00  0.00    +0.000 NA
ATOM     24  H   UNL     1      11.158  14.218  16.809  0.00  0.00    +0.000 HD
ATOM     25  H   UNL     1       9.558  13.892  16.322  0.00  0.00    +0.000 HD
ENDBRANCH  17  18
ENDBRANCH  16  17
ENDBRANCH   4  16
TORSDOF 5
ENDMDL
MODEL 6
REMARK VINA RESULT:      -8.1      1.108      1.284
REMARK  Name = 
REMARK  6 active torsions:
REMARK  status: ('A' for Active; 'I' for Inactive)
REMARK    1  A    between atoms: C_1  and  C_2
REMARK    2  A    between atoms: C_5  and  N_6
REMARK    3  A    between atoms: N_6  and  C_7
REMARK    4  A    between atoms: C_10  and  C_11
REMARK    5  A    between atoms: C_11  and  C_12
REMARK    6  A    between atoms: C_12  and  C_13
REMARK                            x       y       z     vdW  Elec       q    Type
REMARK                         _______ _______ _______ _____ _____    ______ ____
ROOT
ATOM      1  C   UNL     1       6.813   5.341  18.182  0.00  0.00    +0.000 A 
ATOM      2  C   UNL     1       7.807   5.792  19.059  0.00  0.00    +0.000 A 
ATOM      3  C   UNL     1       8.336   7.080  18.958  0.00  0.00    +0.000 A 
ATOM      4  C   UNL     1       7.905   7.940  17.943  0.00  0.00    +0.000 A 
ATOM      5  C   UNL     1       6.964   7.468  17.018  0.00  0.00    +0.000 A 
ATOM      6  C   UNL     1       6.427   6.179  17.131  0.00  0.00    +0.000 A 
ENDROOT
BRANCH   1   7
ATOM      7  N   UNL     1       6.182   4.094  18.381  0.00  0.00    +0.000 N 
ATOM      8  H   UNL     1       6.350   3.424  17.639  0.00  0.00    +0.000 HD
BRANCH   7  13
ATOM      9  C   UNL     1       0.991   3.368  20.720  0.00  0.00    +0.000 C 
ATOM     10  C   UNL     1       2.349   3.549  20.114  0.00  0.00    +0.000 A 
ATOM     11  C   UNL     1       3.052   2.453  19.612  0.00  0.00    +0.000 A 
ATOM     12  C   UNL     1       4.321   2.628  19.058  0.00  0.00    +0.000 A 
ATOM     13  C   UNL     1       4.915   3.894  18.975  0.00  0.00    +0.000 A 
ATOM     14  C   UNL     1       4.210   4.988  19.492  0.00  0.00    +0.000 A 
ATOM     15  C   UNL     1       2.938   4.818  20.053  0.00  0.00    +0.000 A 
ENDBRANCH   7  13
ENDBRANCH   1   7
BRANCH   4  16
ATOM     16  C   UNL     1       8.400   9.364  17.880  0.00  0.00    +0.000 C 
BRANCH  16  17
ATOM     17  C   UNL     1       8.990   9.909  19.186  0.00  0.00    +0.000 C 
BRANCH  17  18
ATOM     18  C   UNL     1       9.797  11.194  19.014  0.00  0.00    +0.000 C 
ATOM     19  C   UNL     1      10.634  11.243  17.751  0.00  0.00    +0.000 C 
ATOM     20  O   UNL     1      10.590  12.611  17.377  0.00  0.00    +0.000 OA
ATOM     21  C   UNL     1       9.478  13.077  17.991  0.00  0.00    +0.000 C 
ATOM     22  N   UNL     1       9.114  14.302  17.570  0.00  0.00    +0.000 N 
ATOM     23  N   UNL     1       8.896  12.358  18.891  0.00  0.00    +0.000 NA
ATOM     24  H   UNL     1       9.872  14.838  17.167  0.00  0.00    +0.000 HD
ATOM     25  H   UNL     1       8.552  14.804  18.245  0.00  0.00    +0.000 HD
ENDBRANCH  17  18
ENDBRANCH  16  17
ENDBRANCH   4  16
TORSDOF 5
ENDMDL
MODEL 7
REMARK VINA RESULT:      -8.0      6.908      9.728
REMARK  Name = 
REMARK  6 active torsions:
REMARK  status: ('A' for Active; 'I' for Inactive)
REMARK    1  A    between atoms: C_1  and  C_2
REMARK    2  A    between atoms: C_5  and  N_6
REMARK    3  A    between atoms: N_6  and  C_7
REMARK    4  A    between atoms: C_10  and  C_11
REMARK    5  A    between atoms: C_11  and  C_12
REMARK    6  A    between atoms: C_12  and  C_13
REMARK                            x       y       z     vdW  Elec       q    Type
REMARK                         _______ _______ _______ _____ _____    ______ ____
ROOT
ATOM      1  C   UNL     1       1.278   9.354  18.636  0.00  0.00    +0.000 A 
ATOM      2  C   UNL     1       2.053   8.549  17.792  0.00  0.00    +0.000 A 
ATOM      3  C   UNL     1       2.592   7.339  18.234  0.00  0.00    +0.000 A 
ATOM      4  C   UNL     1       2.397   6.923  19.555  0.00  0.00    +0.000 A 
ATOM      5  C   UNL     1       1.684   7.760  20.424  0.00  0.00    +0.000 A 
ATOM      6  C   UNL     1       1.134   8.967  19.972  0.00  0.00    +0.000 A 
ENDROOT
BRANCH   1   7
ATOM      7  N   UNL     1       0.618  10.499  18.139  0.00  0.00    +0.000 N 
ATOM      8  H   UNL     1       1.121  11.365  18.297  0.00  0.00    +0.000 HD
BRANCH   7  13
ATOM      9  C   UNL     1      -5.036  11.484  18.105  0.00  0.00    +0.000 C 
ATOM     10  C   UNL     1      -3.562  11.217  18.113  0.00  0.00    +0.000 A 
ATOM     11  C   UNL     1      -3.014  10.243  17.276  0.00  0.00    +0.000 A 
ATOM     12  C   UNL     1      -1.642   9.992  17.297  0.00  0.00    +0.000 A 
ATOM     13  C   UNL     1      -0.779  10.711  18.135  0.00  0.00    +0.000 A 
ATOM     14  C   UNL     1      -1.336  11.679  18.981  0.00  0.00    +0.000 A 
ATOM     15  C   UNL     1      -2.713  11.932  18.968  0.00  0.00    +0.000 A 
ENDBRANCH   7  13
ENDBRANCH   1   7
BRANCH   4  16
ATOM     16  C   UNL     1       2.895   5.576  20.017  0.00  0.00    +0.000 C 
BRANCH  16  17
ATOM     17  C   UNL     1       1.818   4.636  20.571  0.00  0.00    +0.000 C 
BRANCH  17  18
ATOM     18  C   UNL     1       1.612   3.371  19.741  0.00  0.00    +0.000 C 
ATOM     19  C   UNL     1       1.503   3.613  18.248  0.00  0.00    +0.000 C 
ATOM     20  O   UNL     1       2.126   2.471  17.681  0.00  0.00    +0.000 OA
ATOM     21  C   UNL     1       2.917   2.008  18.676  0.00  0.00    +0.000 C 
ATOM     22  N   UNL     1       3.786   1.065  18.268  0.00  0.00    +0.000 N 
ATOM     23  N   UNL     1       2.775   2.470  19.873  0.00  0.00    +0.000 NA
ATOM     24  H   UNL     1       3.498   0.581  17.428  0.00  0.00    +0.000 HD
ATOM     25  H   UNL     1       4.099   0.462  19.017  0.00  0.00    +0.000 HD
ENDBRANCH  17  18
ENDBRANCH  16  17
ENDBRANCH   4  16
TORSDOF 5
ENDMDL
MODEL 8
REMARK VINA RESULT:      -7.9      0.959      1.036
REMARK  Name = 
REMARK  6 active torsions:
REMARK  status: ('A' for Active; 'I' for Inactive)
REMARK    1  A    between atoms: C_1  and  C_2
REMARK    2  A    between atoms: C_5  and  N_6
REMARK    3  A    between atoms: N_6  and  C_7
REMARK    4  A    between atoms: C_10  and  C_11
REMARK    5  A    between atoms: C_11  and  C_12
REMARK    6  A    between atoms: C_12  and  C_13
REMARK                            x       y       z     vdW  Elec       q    Type
REMARK                         _______ _______ _______ _____ _____    ______ ____
ROOT
ATOM      1  C   UNL     1       6.560   5.129  17.672  0.00  0.00    +0.000 A 
ATOM      2  C   UNL     1       7.361   5.160  18.821  0.00  0.00    +0.000 A 
ATOM      3  C   UNL     1       8.096   6.296  19.165  0.00  0.00    +0.000 A 
ATOM      4  C   UNL     1       8.075   7.423  18.339  0.00  0.00    +0.000 A 
ATOM      5  C   UNL     1       7.334   7.372  17.150  0.00  0.00    +0.000 A 
ATOM      6  C   UNL     1       6.588   6.234  16.816  0.00  0.00    +0.000 A 
ENDROOT
BRANCH   1   7
ATOM      7  N   UNL     1       5.710   4.033  17.411  0.00  0.00    +0.000 N 
ATOM      8  H   UNL     1       5.702   3.740  16.440  0.00  0.00    +0.000 HD
BRANCH   7  13
ATOM      9  C   UNL     1       0.608   2.980  19.822  0.00  0.00    +0.000 C 
ATOM     10  C   UNL     1       1.944   3.257  19.201  0.00  0.00    +0.000 A 
ATOM     11  C   UNL     1       3.118   2.861  19.844  0.00  0.00    +0.000 A 
ATOM     12  C   UNL     1       4.359   3.133  19.265  0.00  0.00    +0.000 A 
ATOM     13  C   UNL     1       4.464   3.787  18.031  0.00  0.00    +0.000 A 
ATOM     14  C   UNL     1       3.282   4.192  17.396  0.00  0.00    +0.000 A 
ATOM     15  C   UNL     1       2.034   3.927  17.975  0.00  0.00    +0.000 A 
ENDBRANCH   7  13
ENDBRANCH   1   7
BRANCH   4  16
ATOM     16  C   UNL     1       8.790   8.688  18.747  0.00  0.00    +0.000 C 
BRANCH  16  17
ATOM     17  C   UNL     1       8.322   9.963  18.034  0.00  0.00    +0.000 C 
BRANCH  17  18
ATOM     18  C   UNL     1       9.034  11.231  18.500  0.00  0.00    +0.000 C 
ATOM     19  C   UNL     1       9.570  11.163  19.917  0.00  0.00    +0.000 C 
ATOM     20  O   UNL     1      10.767  11.923  19.855  0.00  0.00    +0.000 OA
ATOM     21  C   UNL     1      11.093  11.904  18.542  0.00  0.00    +0.000 C 
ATOM     22  N   UNL     1      12.333  12.364  18.297  0.00  0.00    +0.000 N 
ATOM     23  N   UNL     1      10.234  11.483  17.676  0.00  0.00    +0.000 NA
ATOM     24  H   UNL     1      12.690  12.979  19.016  0.00  0.00    +0.000 HD
ATOM     25  H   UNL     1      12.452  12.705  17.352  0.00  0.00    +0.000 HD
ENDBRANCH  17  18
ENDBRANCH  16  17
ENDBRANCH   4  16
TORSDOF 5
ENDMDL
MODEL 9
REMARK VINA RESULT:      -7.9      1.517      1.862
REMARK  Name = 
REMARK  6 active torsions:
REMARK  status: ('A' for Active; 'I' for Inactive)
REMARK    1  A    between atoms: C_1  and  C_2
REMARK    2  A    between atoms: C_5  and  N_6
REMARK    3  A    between atoms: N_6  and  C_7
REMARK    4  A    between atoms: C_10  and  C_11
REMARK    5  A    between atoms: C_11  and  C_12
REMARK    6  A    between atoms: C_12  and  C_13
REMARK                            x       y       z     vdW  Elec       q    Type
REMARK                         _______ _______ _______ _____ _____    ______ ____
ROOT
ATOM      1  C   UNL     1       6.343   4.849  17.200  0.00  0.00    +0.000 A 
ATOM      2  C   UNL     1       6.968   4.789  18.452  0.00  0.00    +0.000 A 
ATOM      3  C   UNL     1       7.698   5.868  18.953  0.00  0.00    +0.000 A 
ATOM      4  C   UNL     1       7.852   7.028  18.188  0.00  0.00    +0.000 A 
ATOM      5  C   UNL     1       7.291   7.066  16.904  0.00  0.00    +0.000 A 
ATOM      6  C   UNL     1       6.547   5.985  16.412  0.00  0.00    +0.000 A 
ENDROOT
BRANCH   1   7
ATOM      7  N   UNL     1       5.488   3.812  16.767  0.00  0.00    +0.000 N 
ATOM      8  H   UNL     1       5.509   3.653  15.765  0.00  0.00    +0.000 HD
BRANCH   7  13
ATOM      9  C   UNL     1       0.389   2.526  19.066  0.00  0.00    +0.000 C 
ATOM     10  C   UNL     1       1.716   2.867  18.459  0.00  0.00    +0.000 A 
ATOM     11  C   UNL     1       1.948   4.140  17.937  0.00  0.00    +0.000 A 
ATOM     12  C   UNL     1       3.183   4.447  17.362  0.00  0.00    +0.000 A 
ATOM     13  C   UNL     1       4.219   3.506  17.307  0.00  0.00    +0.000 A 
ATOM     14  C   UNL     1       3.975   2.226  17.823  0.00  0.00    +0.000 A 
ATOM     15  C   UNL     1       2.737   1.911  18.396  0.00  0.00    +0.000 A 
ENDBRANCH   7  13
ENDBRANCH   1   7
BRANCH   4  16
ATOM     16  C   UNL     1       8.559   8.234  18.755  0.00  0.00    +0.000 C 
BRANCH  16  17
ATOM     17  C   UNL     1       8.385   9.531  17.956  0.00  0.00    +0.000 C 
BRANCH  17  18
ATOM     18  C   UNL     1       9.359  10.639  18.351  0.00  0.00    +0.000 C 
ATOM     19  C   UNL     1       8.791  12.041  18.238  0.00  0.00    +0.000 C 
ATOM     20  O   UNL     1       9.402  12.733  19.317  0.00  0.00    +0.000 OA
ATOM     21  C   UNL     1       9.763  11.746  20.169  0.00  0.00    +0.000 C 
ATOM     22  N   UNL     1      10.144  12.202  21.376  0.00  0.00    +0.000 N 
ATOM     23  N   UNL     1       9.731  10.518  19.776  0.00  0.00    +0.000 NA
ATOM     24  H   UNL     1      10.459  13.163  21.369  0.00  0.00    +0.000 HD
ATOM     25  H   UNL     1      10.751  11.561  21.870  0.00  0.00    +0.000 HD
ENDBRANCH  17  18
ENDBRANCH  16  17
ENDBRANCH   4  16
TORSDOF 5
ENDMDL
