MODEL 1
REMARK VINA RESULT:      -7.7      0.000      0.000
REMARK  Name = 
REMARK  11 active torsions:
REMARK  status: ('A' for Active; 'I' for Inactive)
REMARK    1  A    between atoms: C_1  and  C_2
REMARK    2  A    between atoms: C_2  and  C_3
REMARK    3  A    between atoms: C_2  and  C_4
REMARK    4  A    between atoms: C_4  and  C_5
REMARK    5  A    between atoms: C_5  and  N_6
REMARK    6  A    between atoms: C_5  and  C_21
REMARK    7  A    between atoms: C_7  and  CA_9
REMARK    8  A    between atoms: CA_9  and  C_10
REMARK    9  A    between atoms: CA_9  and  N_12
REMARK   10  A    between atoms: C_10  and  O_11
REMARK   11  A    between atoms: C_13  and  CA_15
REMARK                            x       y       z     vdW  Elec       q    Type
REMARK                         _______ _______ _______ _____ _____    ______ ____
ROOT
ATOM      1  CA  UNL     1       6.761   5.632  18.026  0.00  0.00    +0.000 C 
ENDROOT
BRANCH   1   3
ATOM      2  N   UNL     1       4.380   5.385  18.579  0.00  0.00    +0.000 N 
ATOM      3  C   UNL     1       5.641   4.859  18.743  0.00  0.00    +0.000 C 
ATOM      4  O   UNL     1       5.846   3.781  19.301  0.00  0.00    +0.000 OA
ATOM      5  H   UNL     1       4.281   6.170  17.937  0.00  0.00    +0.000 HD
BRANCH   2   6
ATOM      6  C   UNL     1       3.140   4.751  19.047  0.00  0.00    +0.000 C 
BRANCH   6   7
ATOM      7  C   UNL     1       2.481   5.599  20.160  0.00  0.00    +0.000 C 
ATOM      8  N   UNL     1       2.584   6.954  20.039  0.00  0.00    +0.000 N 
ATOM      9  O   UNL     1       1.901   5.104  21.123  0.00  0.00    +0.000 OA
ATOM     10  H   UNL     1       3.290   7.349  19.416  0.00  0.00    +0.000 HD
ATOM     11  H   UNL     1       2.262   7.525  20.809  0.00  0.00    +0.000 HD
ENDBRANCH   6   7
BRANCH   6  12
ATOM     12  C   UNL     1       2.137   4.379  17.939  0.00  0.00    +0.000 C 
BRANCH  12  14
ATOM     13  C   UNL     1       3.073   1.993  18.004  0.00  0.00    +0.000 C 
ATOM     14  C   UNL     1       1.833   2.870  17.811  0.00  0.00    +0.000 C 
ATOM     15  C   UNL     1       0.762   2.453  18.829  0.00  0.00    +0.000 C 
ENDBRANCH  12  14
ENDBRANCH   6  12
ENDBRANCH   2   6
ENDBRANCH   1   3
BRANCH   1  16
ATOM     16  N   UNL     1       7.138   4.917  16.798  0.00  0.00    +0.000 N 
ATOM     17  C   UNL     1       6.633   5.290  15.570  0.00  0.00    +0.000 C 
ATOM     18  O   UNL     1       5.801   6.187  15.449  0.00  0.00    +0.000 OA
ATOM     19  H   UNL     1       7.499   3.970  16.872  0.00  0.00    +0.000 HD
BRANCH  17  20
ATOM     20  CA  UNL     1       7.113   4.437  14.381  0.00  0.00    +0.000 C 
ATOM     21  C   UNL     1       7.511   5.273  13.177  0.00  0.00    +0.000 C 
ATOM     22  C   UNL     1       7.320   4.321  11.998  0.00  0.00    +0.000 C 
ATOM     23  C   UNL     1       6.242   3.389  12.480  0.00  0.00    +0.000 C 
ATOM     24  O   UNL     1       5.634   2.566  11.821  0.00  0.00    +0.000 OA
ATOM     25  N   UNL     1       6.082   3.573  13.838  0.00  0.00    +0.000 N 
ATOM     26  H   UNL     1       5.581   2.876  14.371  0.00  0.00    +0.000 HD
ENDBRANCH  17  20
ENDBRANCH   1  16
BRANCH   1  27
ATOM     27  C   UNL     1       7.958   5.759  18.974  0.00  0.00    +0.000 C 
BRANCH  27  28
ATOM     28  O   UNL     1       7.562   5.570  20.333  0.00  0.00    +0.000 OA
ATOM     29  H   UNL     1       6.682   5.974  20.432  0.00  0.00    +0.000 HD
ENDBRANCH  27  28
ENDBRANCH   1  27
TORSDOF 9
ENDMDL
MODEL 2
REMARK VINA RESULT:      -7.3      1.243      1.263
REMARK  Name = 
REMARK  11 active torsions:
REMARK  status: ('A' for Active; 'I' for Inactive)
REMARK    1  A    between atoms: C_1  and  C_2
REMARK    2  A    between atoms: C_2  and  C_3
REMARK    3  A    between atoms: C_2  and  C_4
REMARK    4  A    between atoms: C_4  and  C_5
REMARK    5  A    between atoms: C_5  and  N_6
REMARK    6  A    between atoms: C_5  and  C_21
REMARK    7  A    between atoms: C_7  and  CA_9
REMARK    8  A    between atoms: CA_9  and  C_10
REMARK    9  A    between atoms: CA_9  and  N_12
REMARK   10  A    between atoms: C_10  and  O_11
REMARK   11  A    between atoms: C_13  and  CA_15
REMARK                            x       y       z     vdW  Elec       q    Type
REMARK                         _______ _______ _______ _____ _____    ______ ____
ROOT
ATOM      1  CA  UNL     1       6.499   5.324  17.533  0.00  0.00    +0.000 C 
ENDROOT
BRANCH   1   3
ATOM      2  N   UNL     1       4.147   5.537  18.214  0.00  0.00    +0.000 N 
ATOM      3  C   UNL     1       5.350   4.922  18.474  0.00  0.00    +0.000 C 
ATOM      4  O   UNL     1       5.472   4.020  19.303  0.00  0.00    +0.000 OA
ATOM      5  H   UNL     1       4.093   6.124  17.382  0.00  0.00    +0.000 HD
BRANCH   2   6
ATOM      6  C   UNL     1       2.879   5.215  18.882  0.00  0.00    +0.000 C 
BRANCH   6   7
ATOM      7  C   UNL     1       2.364   6.429  19.688  0.00  0.00    +0.000 C 
ATOM      8  N   UNL     1       1.946   6.185  20.964  0.00  0.00    +0.000 N 
ATOM      9  O   UNL     1       2.307   7.565  19.224  0.00  0.00    +0.000 OA
ATOM     10  H   UNL     1       1.728   5.228  21.244  0.00  0.00    +0.000 HD
ATOM     11  H   UNL     1       1.502   6.938  21.470  0.00  0.00    +0.000 HD
ENDBRANCH   6   7
BRANCH   6  12
ATOM     12  C   UNL     1       1.788   4.629  17.966  0.00  0.00    +0.000 C 
BRANCH  12  14
ATOM     13  C   UNL     1       2.617   2.203  18.000  0.00  0.00    +0.000 C 
ATOM     14  C   UNL     1       1.436   3.148  18.232  0.00  0.00    +0.000 C 
ATOM     15  C   UNL     1       0.928   2.970  19.669  0.00  0.00    +0.000 C 
ENDBRANCH  12  14
ENDBRANCH   6  12
ENDBRANCH   2   6
ENDBRANCH   1   3
BRANCH   1  16
ATOM     16  N   UNL     1       6.503   4.435  16.362  0.00  0.00    +0.000 N 
ATOM     17  C   UNL     1       6.156   4.899  15.110  0.00  0.00    +0.000 C 
ATOM     18  O   UNL     1       5.766   6.050  14.924  0.00  0.00    +0.000 OA
ATOM     19  H   UNL     1       6.443   3.431  16.507  0.00  0.00    +0.000 HD
BRANCH  17  20
ATOM     20  CA  UNL     1       6.199   3.845  13.989  0.00  0.00    +0.000 C 
ATOM     21  C   UNL     1       7.146   4.220  12.862  0.00  0.00    +0.000 C 
ATOM     22  C   UNL     1       6.587   3.466  11.657  0.00  0.00    +0.000 C 
ATOM     23  C   UNL     1       5.121   3.351  11.973  0.00  0.00    +0.000 C 
ATOM     24  O   UNL     1       4.236   2.977  11.227  0.00  0.00    +0.000 OA
ATOM     25  N   UNL     1       4.934   3.687  13.298  0.00  0.00    +0.000 N 
ATOM     26  H   UNL     1       4.063   3.438  13.748  0.00  0.00    +0.000 HD
ENDBRANCH  17  20
ENDBRANCH   1  16
BRANCH   1  27
ATOM     27  C   UNL     1       7.822   5.227  18.299  0.00  0.00    +0.000 C 
BRANCH  27  28
ATOM     28  O   UNL     1       8.506   4.011  17.996  0.00  0.00    +0.000 OA
ATOM     29  H   UNL     1       9.206   3.904  18.664  0.00  0.00    +0.000 HD
ENDBRANCH  27  28
ENDBRANCH   1  27
TORSDOF 9
ENDMDL
MODEL 3
REMARK VINA RESULT:      -7.2      0.987      1.230
REMARK  Name = 
REMARK  11 active torsions:
REMARK  status: ('A' for Active; 'I' for Inactive)
REMARK    1  A    between atoms: C_1  and  C_2
REMARK    2  A    between atoms: C_2  and  C_3
REMARK    3  A    between atoms: C_2  and  C_4
REMARK    4  A    between atoms: C_4  and  C_5
REMARK    5  A    between atoms: C_5  and  N_6
REMARK    6  A    between atoms: C_5  and  C_21
REMARK    7  A    between atoms: C_7  and  CA_9
REMARK    8  A    between atoms: CA_9  and  C_10
REMARK    9  A    between atoms: CA_9  and  N_12
REMARK   10  A    between atoms: C_10  and  O_11
REMARK   11  A    between atoms: C_13  and  CA_15
REMARK                            x       y       z     vdW  Elec       q    Type
REMARK                         _______ _______ _______ _____ _____    ______ ____
ROOT
ATOM      1  CA  UNL     1       6.871   5.917  17.931  0.00  0.00    +0.000 C 
ENDROOT
BRANCH   1   3
ATOM      2  N   UNL     1       4.510   5.900  18.611  0.00  0.00    +0.000 N 
ATOM      3  C   UNL     1       5.719   5.249  18.700  0.00  0.00    +0.000 C 
ATOM      4  O   UNL     1       5.845   4.148  19.236  0.00  0.00    +0.000 OA
ATOM      5  H   UNL     1       4.455   6.700  17.982  0.00  0.00    +0.000 HD
BRANCH   2   6
ATOM      6  C   UNL     1       3.240   5.385  19.140  0.00  0.00    +0.000 C 
BRANCH   6   7
ATOM      7  C   UNL     1       2.360   6.542  19.667  0.00  0.00    +0.000 C 
ATOM      8  N   UNL     1       1.759   6.352  20.877  0.00  0.00    +0.000 N 
ATOM      9  O   UNL     1       2.181   7.585  19.043  0.00  0.00    +0.000 OA
ATOM     10  H   UNL     1       1.675   5.406  21.251  0.00  0.00    +0.000 HD
ATOM     11  H   UNL     1       1.091   7.044  21.189  0.00  0.00    +0.000 HD
ENDBRANCH   6   7
BRANCH   6  12
ATOM     12  C   UNL     1       2.460   4.460  18.186  0.00  0.00    +0.000 C 
BRANCH  12  14
ATOM     13  C   UNL     1       0.823   2.576  18.771  0.00  0.00    +0.000 C 
ATOM     14  C   UNL     1       2.289   3.006  18.678  0.00  0.00    +0.000 C 
ATOM     15  C   UNL     1       3.036   2.036  17.753  0.00  0.00    +0.000 C 
ENDBRANCH  12  14
ENDBRANCH   6  12
ENDBRANCH   2   6
ENDBRANCH   1   3
BRANCH   1  16
ATOM     16  N   UNL     1       7.193   5.115  16.742  0.00  0.00    +0.000 N 
ATOM     17  C   UNL     1       6.531   5.308  15.548  0.00  0.00    +0.000 C 
ATOM     18  O   UNL     1       5.603   6.106  15.435  0.00  0.00    +0.000 OA
ATOM     19  H   UNL     1       7.656   4.219  16.865  0.00  0.00    +0.000 HD
BRANCH  17  20
ATOM     20  CA  UNL     1       6.973   4.383  14.400  0.00  0.00    +0.000 C 
ATOM     21  C   UNL     1       7.501   5.145  13.196  0.00  0.00    +0.000 C 
ATOM     22  C   UNL     1       7.266   4.186  12.031  0.00  0.00    +0.000 C 
ATOM     23  C   UNL     1       6.083   3.376  12.485  0.00  0.00    +0.000 C 
ATOM     24  O   UNL     1       5.426   2.599  11.818  0.00  0.00    +0.000 OA
ATOM     25  N   UNL     1       5.886   3.609  13.831  0.00  0.00    +0.000 N 
ATOM     26  H   UNL     1       5.297   2.978  14.356  0.00  0.00    +0.000 HD
ENDBRANCH  17  20
ENDBRANCH   1  16
BRANCH   1  27
ATOM     27  C   UNL     1       8.084   6.031  18.859  0.00  0.00    +0.000 C 
BRANCH  27  28
ATOM     28  O   UNL     1       8.553   7.378  18.933  0.00  0.00    +0.000 OA
ATOM     29  H   UNL     1       7.998   7.837  19.588  0.00  0.00    +0.000 HD
ENDBRANCH  27  28
ENDBRANCH   1  27
TORSDOF 9
ENDMDL
MODEL 4
REMARK VINA RESULT:      -7.1      1.519      2.196
REMARK  Name = 
REMARK  11 active torsions:
REMARK  status: ('A' for Active; 'I' for Inactive)
REMARK    1  A    between atoms: C_1  and  C_2
REMARK    2  A    between atoms: C_2  and  C_3
REMARK    3  A    between atoms: C_2  and  C_4
REMARK    4  A    between atoms: C_4  and  C_5
REMARK    5  A    between atoms: C_5  and  N_6
REMARK    6  A    between atoms: C_5  and  C_21
REMARK    7  A    between atoms: C_7  and  CA_9
REMARK    8  A    between atoms: CA_9  and  C_10
REMARK    9  A    between atoms: CA_9  and  N_12
REMARK   10  A    between atoms: C_10  and  O_11
REMARK   11  A    between atoms: C_13  and  CA_15
REMARK                            x       y       z     vdW  Elec       q    Type
REMARK                         _______ _______ _______ _____ _____    ______ ____
ROOT
ATOM      1  CA  UNL     1       7.036   5.401  17.927  0.00  0.00    +0.000 C 
ENDROOT
BRANCH   1   3
ATOM      2  N   UNL     1       5.145   3.842  17.748  0.00  0.00    +0.000 N 
ATOM      3  C   UNL     1       5.678   4.900  18.448  0.00  0.00    +0.000 C 
ATOM      4  O   UNL     1       5.181   5.327  19.490  0.00  0.00    +0.000 OA
ATOM      5  H   UNL     1       5.722   3.427  17.017  0.00  0.00    +0.000 HD
BRANCH   2   6
ATOM      6  C   UNL     1       3.936   3.104  18.136  0.00  0.00    +0.000 C 
BRANCH   6   7
ATOM      7  C   UNL     1       4.288   1.943  19.093  0.00  0.00    +0.000 C 
ATOM      8  N   UNL     1       3.999   0.682  18.659  0.00  0.00    +0.000 N 
ATOM      9  O   UNL     1       4.790   2.117  20.201  0.00  0.00    +0.000 OA
ATOM     10  H   UNL     1       3.341   0.556  17.890  0.00  0.00    +0.000 HD
ATOM     11  H   UNL     1       4.116  -0.082  19.310  0.00  0.00    +0.000 HD
ENDBRANCH   6   7
BRANCH   6  12
ATOM     12  C   UNL     1       2.787   3.973  18.685  0.00  0.00    +0.000 C 
BRANCH  12  14
ATOM     13  C   UNL     1       1.203   4.150  20.693  0.00  0.00    +0.000 C 
ATOM     14  C   UNL     1       1.799   3.238  19.617  0.00  0.00    +0.000 C 
ATOM     15  C   UNL     1       0.657   2.616  18.801  0.00  0.00    +0.000 C 
ENDBRANCH  12  14
ENDBRANCH   6  12
ENDBRANCH   2   6
ENDBRANCH   1   3
BRANCH   1  16
ATOM     16  N   UNL     1       7.346   4.735  16.654  0.00  0.00    +0.000 N 
ATOM     17  C   UNL     1       6.830   5.197  15.461  0.00  0.00    +0.000 C 
ATOM     18  O   UNL     1       6.042   6.139  15.410  0.00  0.00    +0.000 OA
ATOM     19  H   UNL     1       7.660   3.769  16.669  0.00  0.00    +0.000 HD
BRANCH  17  20
ATOM     20  CA  UNL     1       7.237   4.386  14.217  0.00  0.00    +0.000 C 
ATOM     21  C   UNL     1       7.534   5.262  13.012  0.00  0.00    +0.000 C 
ATOM     22  C   UNL     1       7.275   4.339  11.823  0.00  0.00    +0.000 C 
ATOM     23  C   UNL     1       6.249   3.376  12.353  0.00  0.00    +0.000 C 
ATOM     24  O   UNL     1       5.609   2.560  11.716  0.00  0.00    +0.000 OA
ATOM     25  N   UNL     1       6.184   3.519  13.724  0.00  0.00    +0.000 N 
ATOM     26  H   UNL     1       5.732   2.799  14.271  0.00  0.00    +0.000 HD
ENDBRANCH  17  20
ENDBRANCH   1  16
BRANCH   1  27
ATOM     27  C   UNL     1       8.109   5.100  18.978  0.00  0.00    +0.000 C 
BRANCH  27  28
ATOM     28  O   UNL     1       7.748   5.634  20.252  0.00  0.00    +0.000 OA
ATOM     29  H   UNL     1       7.716   6.602  20.157  0.00  0.00    +0.000 HD
ENDBRANCH  27  28
ENDBRANCH   1  27
TORSDOF 9
ENDMDL
MODEL 5
REMARK VINA RESULT:      -7.0      1.799      2.486
REMARK  Name = 
REMARK  11 active torsions:
REMARK  status: ('A' for Active; 'I' for Inactive)
REMARK    1  A    between atoms: C_1  and  C_2
REMARK    2  A    between atoms: C_2  and  C_3
REMARK    3  A    between atoms: C_2  and  C_4
REMARK    4  A    between atoms: C_4  and  C_5
REMARK    5  A    between atoms: C_5  and  N_6
REMARK    6  A    between atoms: C_5  and  C_21
REMARK    7  A    between atoms: C_7  and  CA_9
REMARK    8  A    between atoms: CA_9  and  C_10
REMARK    9  A    between atoms: CA_9  and  N_12
REMARK   10  A    between atoms: C_10  and  O_11
REMARK   11  A    between atoms: C_13  and  CA_15
REMARK                            x       y       z     vdW  Elec       q    Type
REMARK                         _______ _______ _______ _____ _____    ______ ____
ROOT
ATOM      1  CA  UNL     1       7.050   5.584  17.790  0.00  0.00    +0.000 C 
ENDROOT
BRANCH   1   3
ATOM      2  N   UNL     1       5.398   3.903  18.483  0.00  0.00    +0.000 N 
ATOM      3  C   UNL     1       5.616   5.237  18.227  0.00  0.00    +0.000 C 
ATOM      4  O   UNL     1       4.777   6.106  18.459  0.00  0.00    +0.000 OA
ATOM      5  H   UNL     1       6.206   3.283  18.453  0.00  0.00    +0.000 HD
BRANCH   2   6
ATOM      6  C   UNL     1       4.158   3.349  19.045  0.00  0.00    +0.000 C 
BRANCH   6   7
ATOM      7  C   UNL     1       4.301   1.829  19.287  0.00  0.00    +0.000 C 
ATOM      8  N   UNL     1       5.198   1.443  20.241  0.00  0.00    +0.000 N 
ATOM      9  O   UNL     1       3.664   0.988  18.659  0.00  0.00    +0.000 OA
ATOM     10  H   UNL     1       5.914   2.101  20.550  0.00  0.00    +0.000 HD
ATOM     11  H   UNL     1       5.391   0.456  20.338  0.00  0.00    +0.000 HD
ENDBRANCH   6   7
BRANCH   6  12
ATOM     12  C   UNL     1       3.619   4.082  20.289  0.00  0.00    +0.000 C 
BRANCH  12  14
ATOM     13  C   UNL     1       1.571   3.083  21.464  0.00  0.00    +0.000 C 
ATOM     14  C   UNL     1       2.081   4.089  20.429  0.00  0.00    +0.000 C 
ATOM     15  C   UNL     1       1.586   5.492  20.808  0.00  0.00    +0.000 C 
ENDBRANCH  12  14
ENDBRANCH   6  12
ENDBRANCH   2   6
ENDBRANCH   1   3
BRANCH   1  16
ATOM     16  N   UNL     1       7.369   4.865  16.549  0.00  0.00    +0.000 N 
ATOM     17  C   UNL     1       6.813   5.237  15.343  0.00  0.00    +0.000 C 
ATOM     18  O   UNL     1       5.982   6.139  15.256  0.00  0.00    +0.000 OA
ATOM     19  H   UNL     1       7.728   3.916  16.610  0.00  0.00    +0.000 HD
BRANCH  17  20
ATOM     20  CA  UNL     1       7.237   4.380  14.137  0.00  0.00    +0.000 C 
ATOM     21  C   UNL     1       7.541   5.208  12.900  0.00  0.00    +0.000 C 
ATOM     22  C   UNL     1       7.298   4.236  11.747  0.00  0.00    +0.000 C 
ATOM     23  C   UNL     1       6.272   3.289  12.306  0.00  0.00    +0.000 C 
ATOM     24  O   UNL     1       5.643   2.444  11.696  0.00  0.00    +0.000 OA
ATOM     25  N   UNL     1       6.193   3.487  13.669  0.00  0.00    +0.000 N 
ATOM     26  H   UNL     1       5.741   2.787  14.240  0.00  0.00    +0.000 HD
ENDBRANCH  17  20
ENDBRANCH   1  16
BRANCH   1  27
ATOM     27  C   UNL     1       8.016   5.194  18.913  0.00  0.00    +0.000 C 
BRANCH  27  28
ATOM     28  O   UNL     1       7.491   5.551  20.193  0.00  0.00    +0.000 OA
ATOM     29  H   UNL     1       6.523   5.470  20.136  0.00  0.00    +0.000 HD
ENDBRANCH  27  28
ENDBRANCH   1  27
TORSDOF 9
ENDMDL
MODEL 6
REMARK VINA RESULT:      -7.0      1.896      2.579
REMARK  Name = 
REMARK  11 active torsions:
REMARK  status: ('A' for Active; 'I' for Inactive)
REMARK    1  A    between atoms: C_1  and  C_2
REMARK    2  A    between atoms: C_2  and  C_3
REMARK    3  A    between atoms: C_2  and  C_4
REMARK    4  A    between atoms: C_4  and  C_5
REMARK    5  A    between atoms: C_5  and  N_6
REMARK    6  A    between atoms: C_5  and  C_21
REMARK    7  A    between atoms: C_7  and  CA_9
REMARK    8  A    between atoms: CA_9  and  C_10
REMARK    9  A    between atoms: CA_9  and  N_12
REMARK   10  A    between atoms: C_10  and  O_11
REMARK   11  A    between atoms: C_13  and  CA_15
REMARK                            x       y       z     vdW  Elec       q    Type
REMARK                         _______ _______ _______ _____ _____    ______ ____
ROOT
ATOM      1  CA  UNL     1       5.933   5.602  17.502  0.00  0.00    +0.000 C 
ENDROOT
BRANCH   1   3
ATOM      2  N   UNL     1       4.315   3.921  18.272  0.00  0.00    +0.000 N 
ATOM      3  C   UNL     1       4.633   5.260  18.250  0.00  0.00    +0.000 C 
ATOM      4  O   UNL     1       4.007   6.104  18.890  0.00  0.00    +0.000 OA
ATOM      5  H   UNL     1       4.996   3.272  17.882  0.00  0.00    +0.000 HD
BRANCH   2   6
ATOM      6  C   UNL     1       3.205   3.336  19.037  0.00  0.00    +0.000 C 
BRANCH   6   7
ATOM      7  C   UNL     1       2.877   1.916  18.522  0.00  0.00    +0.000 C 
ATOM      8  N   UNL     1       1.556   1.610  18.369  0.00  0.00    +0.000 N 
ATOM      9  O   UNL     1       3.741   1.080  18.269  0.00  0.00    +0.000 OA
ATOM     10  H   UNL     1       0.853   2.183  18.837  0.00  0.00    +0.000 HD
ATOM     11  H   UNL     1       1.314   0.655  18.143  0.00  0.00    +0.000 HD
ENDBRANCH   6   7
BRANCH   6  12
ATOM     12  C   UNL     1       3.378   3.366  20.568  0.00  0.00    +0.000 C 
BRANCH  12  14
ATOM     13  C   UNL     1       1.169   4.666  20.536  0.00  0.00    +0.000 C 
ATOM     14  C   UNL     1       2.125   3.800  21.360  0.00  0.00    +0.000 C 
ATOM     15  C   UNL     1       1.367   2.569  21.876  0.00  0.00    +0.000 C 
ENDBRANCH  12  14
ENDBRANCH   6  12
ENDBRANCH   2   6
ENDBRANCH   1   3
BRANCH   1  16
ATOM     16  N   UNL     1       6.037   4.768  16.297  0.00  0.00    +0.000 N 
ATOM     17  C   UNL     1       6.965   5.044  15.314  0.00  0.00    +0.000 C 
ATOM     18  O   UNL     1       7.699   6.029  15.365  0.00  0.00    +0.000 OA
ATOM     19  H   UNL     1       5.241   4.199  16.023  0.00  0.00    +0.000 HD
BRANCH  17  20
ATOM     20  CA  UNL     1       6.942   4.087  14.109  0.00  0.00    +0.000 C 
ATOM     21  C   UNL     1       7.585   4.683  12.869  0.00  0.00    +0.000 C 
ATOM     22  C   UNL     1       6.919   3.929  11.720  0.00  0.00    +0.000 C 
ATOM     23  C   UNL     1       5.576   3.556  12.286  0.00  0.00    +0.000 C 
ATOM     24  O   UNL     1       4.627   3.093  11.681  0.00  0.00    +0.000 OA
ATOM     25  N   UNL     1       5.604   3.770  13.649  0.00  0.00    +0.000 N 
ATOM     26  H   UNL     1       4.884   3.355  14.224  0.00  0.00    +0.000 HD
ENDBRANCH  17  20
ENDBRANCH   1  16
BRANCH   1  27
ATOM     27  C   UNL     1       7.120   5.359  18.441  0.00  0.00    +0.000 C 
BRANCH  27  28
ATOM     28  O   UNL     1       6.678   5.074  19.769  0.00  0.00    +0.000 OA
ATOM     29  H   UNL     1       5.707   5.012  19.739  0.00  0.00    +0.000 HD
ENDBRANCH  27  28
ENDBRANCH   1  27
TORSDOF 9
ENDMDL
MODEL 7
REMARK VINA RESULT:      -6.9      1.986      7.135
REMARK  Name = 
REMARK  11 active torsions:
REMARK  status: ('A' for Active; 'I' for Inactive)
REMARK    1  A    between atoms: C_1  and  C_2
REMARK    2  A    between atoms: C_2  and  C_3
REMARK    3  A    between atoms: C_2  and  C_4
REMARK    4  A    between atoms: C_4  and  C_5
REMARK    5  A    between atoms: C_5  and  N_6
REMARK    6  A    between atoms: C_5  and  C_21
REMARK    7  A    between atoms: C_7  and  CA_9
REMARK    8  A    between atoms: CA_9  and  C_10
REMARK    9  A    between atoms: CA_9  and  N_12
REMARK   10  A    between atoms: C_10  and  O_11
REMARK   11  A    between atoms: C_13  and  CA_15
REMARK                            x       y       z     vdW  Elec       q    Type
REMARK                         _______ _______ _______ _____ _____    ______ ____
ROOT
ATOM      1  CA  UNL     1       6.191   4.413  16.778  0.00  0.00    +0.000 C 
ENDROOT
BRANCH   1   3
ATOM      2  N   UNL     1       6.873   4.371  14.418  0.00  0.00    +0.000 N 
ATOM      3  C   UNL     1       6.188   5.068  15.387  0.00  0.00    +0.000 C 
ATOM      4  O   UNL     1       5.509   6.064  15.136  0.00  0.00    +0.000 OA
ATOM      5  H   UNL     1       7.240   3.455  14.673  0.00  0.00    +0.000 HD
BRANCH   2   6
ATOM      6  C   UNL     1       6.895   4.719  12.992  0.00  0.00    +0.000 C 
BRANCH   6   7
ATOM      7  C   UNL     1       8.027   5.730  12.695  0.00  0.00    +0.000 C 
ATOM      8  N   UNL     1       7.940   6.419  11.519  0.00  0.00    +0.000 N 
ATOM      9  O   UNL     1       8.977   5.913  13.452  0.00  0.00    +0.000 OA
ATOM     10  H   UNL     1       7.328   6.071  10.780  0.00  0.00    +0.000 HD
ATOM     11  H   UNL     1       8.722   6.999  11.251  0.00  0.00    +0.000 HD
ENDBRANCH   6   7
BRANCH   6  12
ATOM     12  C   UNL     1       6.929   3.519  12.025  0.00  0.00    +0.000 C 
BRANCH  12  14
ATOM     13  C   UNL     1       4.440   3.349  11.433  0.00  0.00    +0.000 C 
ATOM     14  C   UNL     1       5.659   2.640  12.029  0.00  0.00    +0.000 C 
ATOM     15  C   UNL     1       5.907   1.339  11.255  0.00  0.00    +0.000 C 
ENDBRANCH  12  14
ENDBRANCH   6  12
ENDBRANCH   2   6
ENDBRANCH   1   3
BRANCH   1  16
ATOM     16  N   UNL     1       4.837   4.470  17.347  0.00  0.00    +0.000 N 
ATOM     17  C   UNL     1       4.561   3.939  18.590  0.00  0.00    +0.000 C 
ATOM     18  O   UNL     1       5.408   3.341  19.249  0.00  0.00    +0.000 OA
ATOM     19  H   UNL     1       4.047   4.598  16.722  0.00  0.00    +0.000 HD
BRANCH  17  20
ATOM     20  CA  UNL     1       3.095   4.066  19.042  0.00  0.00    +0.000 C 
ATOM     21  C   UNL     1       2.830   5.332  19.839  0.00  0.00    +0.000 C 
ATOM     22  C   UNL     1       1.615   4.973  20.692  0.00  0.00    +0.000 C 
ATOM     23  C   UNL     1       1.738   3.483  20.856  0.00  0.00    +0.000 C 
ATOM     24  O   UNL     1       1.092   2.770  21.601  0.00  0.00    +0.000 OA
ATOM     25  N   UNL     1       2.683   3.023  19.961  0.00  0.00    +0.000 N 
ATOM     26  H   UNL     1       2.726   2.033  19.761  0.00  0.00    +0.000 HD
ENDBRANCH  17  20
ENDBRANCH   1  16
BRANCH   1  27
ATOM     27  C   UNL     1       7.191   5.157  17.670  0.00  0.00    +0.000 C 
BRANCH  27  28
ATOM     28  O   UNL     1       8.126   4.254  18.262  0.00  0.00    +0.000 OA
ATOM     29  H   UNL     1       8.338   3.583  17.589  0.00  0.00    +0.000 HD
ENDBRANCH  27  28
ENDBRANCH   1  27
TORSDOF 9
ENDMDL
MODEL 8
REMARK VINA RESULT:      -6.9      2.068      2.916
REMARK  Name = 
REMARK  11 active torsions:
REMARK  status: ('A' for Active; 'I' for Inactive)
REMARK    1  A    between atoms: C_1  and  C_2
REMARK    2  A    between atoms: C_2  and  C_3
REMARK    3  A    between atoms: C_2  and  C_4
REMARK    4  A    between atoms: C_4  and  C_5
REMARK    5  A    between atoms: C_5  and  N_6
REMARK    6  A    between atoms: C_5  and  C_21
REMARK    7  A    between atoms: C_7  and  CA_9
REMARK    8  A    between atoms: CA_9  and  C_10
REMARK    9  A    between atoms: CA_9  and  N_12
REMARK   10  A    between atoms: C_10  and  O_11
REMARK   11  A    between atoms: C_13  and  CA_15
REMARK                            x       y       z     vdW  Elec       q    Type
REMARK                         _______ _______ _______ _____ _____    ______ ____
ROOT
ATOM      1  CA  UNL     1       5.959   5.003  16.267  0.00  0.00    +0.000 C 
ENDROOT
BRANCH   1   3
ATOM      2  N   UNL     1       4.269   3.993  17.737  0.00  0.00    +0.000 N 
ATOM      3  C   UNL     1       4.623   5.113  17.019  0.00  0.00    +0.000 C 
ATOM      4  O   UNL     1       3.994   6.169  17.081  0.00  0.00    +0.000 OA
ATOM      5  H   UNL     1       4.949   3.235  17.785  0.00  0.00    +0.000 HD
BRANCH   2   6
ATOM      6  C   UNL     1       3.116   3.907  18.643  0.00  0.00    +0.000 C 
BRANCH   6   7
ATOM      7  C   UNL     1       1.996   3.043  18.019  0.00  0.00    +0.000 C 
ATOM      8  N   UNL     1       2.298   1.736  17.769  0.00  0.00    +0.000 N 
ATOM      9  O   UNL     1       0.886   3.487  17.738  0.00  0.00    +0.000 OA
ATOM     10  H   UNL     1       3.277   1.447  17.734  0.00  0.00    +0.000 HD
ATOM     11  H   UNL     1       1.624   1.182  17.260  0.00  0.00    +0.000 HD
ENDBRANCH   6   7
BRANCH   6  12
ATOM     12  C   UNL     1       3.446   3.468  20.082  0.00  0.00    +0.000 C 
BRANCH  12  14
ATOM     13  C   UNL     1       1.591   5.127  20.698  0.00  0.00    +0.000 C 
ATOM     14  C   UNL     1       2.443   3.941  21.157  0.00  0.00    +0.000 C 
ATOM     15  C   UNL     1       1.516   2.788  21.567  0.00  0.00    +0.000 C 
ENDBRANCH  12  14
ENDBRANCH   6  12
ENDBRANCH   2   6
ENDBRANCH   1   3
BRANCH   1  16
ATOM     16  N   UNL     1       5.716   4.481  14.914  0.00  0.00    +0.000 N 
ATOM     17  C   UNL     1       6.655   4.624  13.913  0.00  0.00    +0.000 C 
ATOM     18  O   UNL     1       7.702   5.244  14.082  0.00  0.00    +0.000 OA
ATOM     19  H   UNL     1       4.759   4.310  14.618  0.00  0.00    +0.000 HD
BRANCH  17  20
ATOM     20  CA  UNL     1       6.248   4.035  12.550  0.00  0.00    +0.000 C 
ATOM     21  C   UNL     1       4.757   3.769  12.442  0.00  0.00    +0.000 C 
ATOM     22  C   UNL     1       4.663   2.666  11.390  0.00  0.00    +0.000 C 
ATOM     23  C   UNL     1       5.979   1.951  11.524  0.00  0.00    +0.000 C 
ATOM     24  O   UNL     1       6.296   0.894  11.010  0.00  0.00    +0.000 OA
ATOM     25  N   UNL     1       6.821   2.728  12.293  0.00  0.00    +0.000 N 
ATOM     26  H   UNL     1       7.811   2.527  12.289  0.00  0.00    +0.000 HD
ENDBRANCH  17  20
ENDBRANCH   1  16
BRANCH   1  27
ATOM     27  C   UNL     1       6.892   4.075  17.051  0.00  0.00    +0.000 C 
BRANCH  27  28
ATOM     28  O   UNL     1       7.372   4.707  18.238  0.00  0.00    +0.000 OA
ATOM     29  H   UNL     1       7.155   4.118  18.982  0.00  0.00    +0.000 HD
ENDBRANCH  27  28
ENDBRANCH   1  27
TORSDOF 9
ENDMDL
MODEL 9
REMARK VINA RESULT:      -6.8      2.181      3.013
REMARK  Name = 
REMARK  11 active torsions:
REMARK  status: ('A' for Active; 'I' for Inactive)
REMARK    1  A    between atoms: C_1  and  C_2
REMARK    2  A    between atoms: C_2  and  C_3
REMARK    3  A    between atoms: C_2  and  C_4
REMARK    4  A    between atoms: C_4  and  C_5
REMARK    5  A    between atoms: C_5  and  N_6
REMARK    6  A    between atoms: C_5  and  C_21
REMARK    7  A    between atoms: C_7  and  CA_9
REMARK    8  A    between atoms: CA_9  and  C_10
REMARK    9  A    between atoms: CA_9  and  N_12
REMARK   10  A    between atoms: C_10  and  O_11
REMARK   11  A    between atoms: C_13  and  CA_15
REMARK                            x       y       z     vdW  Elec       q    Type
REMARK                         _______ _______ _______ _____ _____    ______ ____
ROOT
ATOM      1  CA  UNL     1       6.350   5.112  16.083  0.00  0.00    +0.000 C 
ENDROOT
BRANCH   1   3
ATOM      2  N   UNL     1       4.795   3.745  17.407  0.00  0.00    +0.000 N 
ATOM      3  C   UNL     1       5.120   5.020  17.002  0.00  0.00    +0.000 C 
ATOM      4  O   UNL     1       4.561   6.022  17.445  0.00  0.00    +0.000 OA
ATOM      5  H   UNL     1       5.435   2.995  17.147  0.00  0.00    +0.000 HD
BRANCH   2   6
ATOM      6  C   UNL     1       3.755   3.418  18.391  0.00  0.00    +0.000 C 
BRANCH   6   7
ATOM      7  C   UNL     1       3.988   2.009  18.983  0.00  0.00    +0.000 C 
ATOM      8  N   UNL     1       4.870   1.919  20.021  0.00  0.00    +0.000 N 
ATOM      9  O   UNL     1       3.435   1.001  18.551  0.00  0.00    +0.000 OA
ATOM     10  H   UNL     1       5.527   2.682  20.187  0.00  0.00    +0.000 HD
ATOM     11  H   UNL     1       5.123   0.998  20.350  0.00  0.00    +0.000 HD
ENDBRANCH   6   7
BRANCH   6  12
ATOM     12  C   UNL     1       3.539   4.474  19.491  0.00  0.00    +0.000 C 
BRANCH  12  14
ATOM     13  C   UNL     1       1.297   4.040  20.657  0.00  0.00    +0.000 C 
ATOM     14  C   UNL     1       2.076   4.930  19.684  0.00  0.00    +0.000 C 
ATOM     15  C   UNL     1       2.028   6.379  20.185  0.00  0.00    +0.000 C 
ENDBRANCH  12  14
ENDBRANCH   6  12
ENDBRANCH   2   6
ENDBRANCH   1   3
BRANCH   1  16
ATOM     16  N   UNL     1       6.028   4.521  14.776  0.00  0.00    +0.000 N 
ATOM     17  C   UNL     1       6.856   4.702  13.687  0.00  0.00    +0.000 C 
ATOM     18  O   UNL     1       7.858   5.411  13.737  0.00  0.00    +0.000 OA
ATOM     19  H   UNL     1       5.067   4.262  14.578  0.00  0.00    +0.000 HD
BRANCH  17  20
ATOM     20  CA  UNL     1       6.377   4.031  12.387  0.00  0.00    +0.000 C 
ATOM     21  C   UNL     1       4.869   3.857  12.332  0.00  0.00    +0.000 C 
ATOM     22  C   UNL     1       4.676   2.679  11.379  0.00  0.00    +0.000 C 
ATOM     23  C   UNL     1       5.946   1.891  11.546  0.00  0.00    +0.000 C 
ATOM     24  O   UNL     1       6.180   0.777  11.117  0.00  0.00    +0.000 OA
ATOM     25  N   UNL     1       6.856   2.671  12.230  0.00  0.00    +0.000 N 
ATOM     26  H   UNL     1       7.831   2.405  12.223  0.00  0.00    +0.000 HD
ENDBRANCH  17  20
ENDBRANCH   1  16
BRANCH   1  27
ATOM     27  C   UNL     1       7.517   4.372  16.746  0.00  0.00    +0.000 C 
BRANCH  27  28
ATOM     28  O   UNL     1       7.406   4.401  18.169  0.00  0.00    +0.000 OA
ATOM     29  H   UNL     1       8.217   4.000  18.526  0.00  0.00    +0.000 HD
ENDBRANCH  27  28
ENDBRANCH   1  27
TORSDOF 9
ENDMDL
