MODEL 1
REMARK VINA RESULT:      -7.0      0.000      0.000
REMARK  Name = 
REMARK  4 active torsions:
REMARK  status: ('A' for Active; 'I' for Inactive)
REMARK    1  A    between atoms: C_1  and  O_2
REMARK    2  A    between atoms: O_2  and  C_3
REMARK    3  A    between atoms: C_8  and  C_9
REMARK    4  A    between atoms: N_11  and  N_12
REMARK                            x       y       z     vdW  Elec       q    Type
REMARK                         _______ _______ _______ _____ _____    ______ ____
ROOT
ATOM      1  C   UNL     1       4.420   3.686  17.709  0.00  0.00    +0.000 C 
ATOM      2  O   UNL     1       3.807   2.633  17.530  0.00  0.00    +0.000 OA
ATOM      3  N   UNL     1       4.236   4.510  18.813  0.00  0.00    +0.000 N 
ATOM      4  H   UNL     1       4.783   5.367  18.883  0.00  0.00    +0.000 HD
ENDROOT
BRANCH   1  10
ATOM      5  C   UNL     1       6.748   4.518  16.943  0.00  0.00    +0.000 A 
ATOM      6  C   UNL     1       7.568   4.908  15.869  0.00  0.00    +0.000 A 
ATOM      7  C   UNL     1       7.102   4.873  14.553  0.00  0.00    +0.000 A 
ATOM      8  C   UNL     1       5.803   4.461  14.288  0.00  0.00    +0.000 A 
ATOM      9  C   UNL     1       4.973   4.090  15.343  0.00  0.00    +0.000 A 
ATOM     10  C   UNL     1       5.424   4.116  16.679  0.00  0.00    +0.000 A 
BRANCH   5  12
ATOM     11  C   UNL     1       7.681   5.787  18.732  0.00  0.00    +0.000 C 
ATOM     12  O   UNL     1       7.179   4.543  18.246  0.00  0.00    +0.000 OA
ENDBRANCH   5  12
ENDBRANCH   1  10
BRANCH   3  13
ATOM     13  N   UNL     1       3.297   4.242  19.846  0.00  0.00    +0.000 NA
ATOM     14  C   UNL     1       1.909   4.433  19.394  0.00  0.00    +0.000 C 
ATOM     15  C   UNL     1       0.911   4.216  20.533  0.00  0.00    +0.000 C 
ATOM     16  C   UNL     1       1.091   2.838  21.158  0.00  0.00    +0.000 C 
ATOM     17  C   UNL     1       2.536   2.655  21.607  0.00  0.00    +0.000 C 
ATOM     18  C   UNL     1       3.513   2.920  20.458  0.00  0.00    +0.000 C 
ENDBRANCH   3  13
TORSDOF 3
ENDMDL
MODEL 2
REMARK VINA RESULT:      -6.9      1.220      1.220
REMARK  Name = 
REMARK  4 active torsions:
REMARK  status: ('A' for Active; 'I' for Inactive)
REMARK    1  A    between atoms: C_1  and  O_2
REMARK    2  A    between atoms: O_2  and  C_3
REMARK    3  A    between atoms: C_8  and  C_9
REMARK    4  A    between atoms: N_11  and  N_12
REMARK                            x       y       z     vdW  Elec       q    Type
REMARK                         _______ _______ _______ _____ _____    ______ ____
ROOT
ATOM      1  C   UNL     1       4.428   5.067  17.561  0.00  0.00    +0.000 C 
ATOM      2  O   UNL     1       4.012   6.187  17.861  0.00  0.00    +0.000 OA
ATOM      3  N   UNL     1       4.082   3.906  18.242  0.00  0.00    +0.000 N 
ATOM      4  H   UNL     1       4.474   3.019  17.931  0.00  0.00    +0.000 HD
ENDROOT
BRANCH   1  10
ATOM      5  C   UNL     1       6.723   5.322  16.392  0.00  0.00    +0.000 A 
ATOM      6  C   UNL     1       7.474   5.153  15.215  0.00  0.00    +0.000 A 
ATOM      7  C   UNL     1       6.908   4.585  14.072  0.00  0.00    +0.000 A 
ATOM      8  C   UNL     1       5.578   4.190  14.079  0.00  0.00    +0.000 A 
ATOM      9  C   UNL     1       4.815   4.369  15.230  0.00  0.00    +0.000 A 
ATOM     10  C   UNL     1       5.367   4.938  16.396  0.00  0.00    +0.000 A 
BRANCH   5  12
ATOM     11  C   UNL     1       7.496   7.284  17.503  0.00  0.00    +0.000 C 
ATOM     12  O   UNL     1       7.251   5.879  17.530  0.00  0.00    +0.000 OA
ENDBRANCH   5  12
ENDBRANCH   1  10
BRANCH   3  13
ATOM     13  N   UNL     1       3.231   3.887  19.380  0.00  0.00    +0.000 NA
ATOM     14  C   UNL     1       1.809   3.965  19.009  0.00  0.00    +0.000 C 
ATOM     15  C   UNL     1       0.907   4.021  20.243  0.00  0.00    +0.000 C 
ATOM     16  C   UNL     1       1.162   2.830  21.158  0.00  0.00    +0.000 C 
ATOM     17  C   UNL     1       2.641   2.760  21.520  0.00  0.00    +0.000 C 
ATOM     18  C   UNL     1       3.521   2.748  20.267  0.00  0.00    +0.000 C 
ENDBRANCH   3  13
TORSDOF 3
ENDMDL
MODEL 3
REMARK VINA RESULT:      -6.6      1.035      1.555
REMARK  Name = 
REMARK  4 active torsions:
REMARK  status: ('A' for Active; 'I' for Inactive)
REMARK    1  A    between atoms: C_1  and  O_2
REMARK    2  A    between atoms: O_2  and  C_3
REMARK    3  A    between atoms: C_8  and  C_9
REMARK    4  A    between atoms: N_11  and  N_12
REMARK                            x       y       z     vdW  Elec       q    Type
REMARK                         _______ _______ _______ _____ _____    ______ ____
ROOT
ATOM      1  C   UNL     1       4.463   4.247  17.998  0.00  0.00    +0.000 C 
ATOM      2  O   UNL     1       4.257   5.186  18.768  0.00  0.00    +0.000 OA
ATOM      3  N   UNL     1       3.847   3.006  18.108  0.00  0.00    +0.000 N 
ATOM      4  H   UNL     1       4.077   2.281  17.429  0.00  0.00    +0.000 HD
ENDROOT
BRANCH   1  10
ATOM      5  C   UNL     1       6.834   4.588  17.018  0.00  0.00    +0.000 A 
ATOM      6  C   UNL     1       7.620   4.779  15.867  0.00  0.00    +0.000 A 
ATOM      7  C   UNL     1       7.046   4.797  14.594  0.00  0.00    +0.000 A 
ATOM      8  C   UNL     1       5.675   4.637  14.449  0.00  0.00    +0.000 A 
ATOM      9  C   UNL     1       4.881   4.465  15.580  0.00  0.00    +0.000 A 
ATOM     10  C   UNL     1       5.440   4.443  16.874  0.00  0.00    +0.000 A 
BRANCH   5  12
ATOM     11  C   UNL     1       7.779   5.821  18.824  0.00  0.00    +0.000 C 
ATOM     12  O   UNL     1       7.369   4.567  18.281  0.00  0.00    +0.000 OA
ENDBRANCH   5  12
ENDBRANCH   1  10
BRANCH   3  13
ATOM     13  N   UNL     1       2.929   2.674  19.141  0.00  0.00    +0.000 NA
ATOM     14  C   UNL     1       3.552   2.728  20.473  0.00  0.00    +0.000 C 
ATOM     15  C   UNL     1       2.577   2.295  21.569  0.00  0.00    +0.000 C 
ATOM     16  C   UNL     1       1.307   3.137  21.531  0.00  0.00    +0.000 C 
ATOM     17  C   UNL     1       0.685   3.078  20.141  0.00  0.00    +0.000 C 
ATOM     18  C   UNL     1       1.696   3.475  19.061  0.00  0.00    +0.000 C 
ENDBRANCH   3  13
TORSDOF 3
ENDMDL
MODEL 4
REMARK VINA RESULT:      -6.5      1.447      1.536
REMARK  Name = 
REMARK  4 active torsions:
REMARK  status: ('A' for Active; 'I' for Inactive)
REMARK    1  A    between atoms: C_1  and  O_2
REMARK    2  A    between atoms: O_2  and  C_3
REMARK    3  A    between atoms: C_8  and  C_9
REMARK    4  A    between atoms: N_11  and  N_12
REMARK                            x       y       z     vdW  Elec       q    Type
REMARK                         _______ _______ _______ _____ _____    ______ ____
ROOT
ATOM      1  C   UNL     1       5.254   4.211  17.613  0.00  0.00    +0.000 C 
ATOM      2  O   UNL     1       5.951   4.025  18.611  0.00  0.00    +0.000 OA
ATOM      3  N   UNL     1       3.864   4.205  17.626  0.00  0.00    +0.000 N 
ATOM      4  H   UNL     1       3.364   4.364  16.754  0.00  0.00    +0.000 HD
ENDROOT
BRANCH   1  10
ATOM      5  C   UNL     1       7.101   5.224  16.109  0.00  0.00    +0.000 A 
ATOM      6  C   UNL     1       7.616   5.372  14.808  0.00  0.00    +0.000 A 
ATOM      7  C   UNL     1       7.013   4.744  13.716  0.00  0.00    +0.000 A 
ATOM      8  C   UNL     1       5.876   3.970  13.902  0.00  0.00    +0.000 A 
ATOM      9  C   UNL     1       5.343   3.830  15.180  0.00  0.00    +0.000 A 
ATOM     10  C   UNL     1       5.937   4.453  16.297  0.00  0.00    +0.000 A 
BRANCH   5  12
ATOM     11  C   UNL     1       7.362   7.208  17.404  0.00  0.00    +0.000 C 
ATOM     12  O   UNL     1       7.671   5.830  17.201  0.00  0.00    +0.000 OA
ENDBRANCH   5  12
ENDBRANCH   1  10
BRANCH   3  13
ATOM     13  N   UNL     1       3.092   3.956  18.793  0.00  0.00    +0.000 NA
ATOM     14  C   UNL     1       2.766   5.196  19.517  0.00  0.00    +0.000 C 
ATOM     15  C   UNL     1       2.002   4.909  20.810  0.00  0.00    +0.000 C 
ATOM     16  C   UNL     1       0.741   4.101  20.529  0.00  0.00    +0.000 C 
ATOM     17  C   UNL     1       1.098   2.829  19.768  0.00  0.00    +0.000 C 
ATOM     18  C   UNL     1       1.899   3.144  18.502  0.00  0.00    +0.000 C 
ENDBRANCH   3  13
TORSDOF 3
ENDMDL
MODEL 5
REMARK VINA RESULT:      -6.5      1.734      3.117
REMARK  Name = 
REMARK  4 active torsions:
REMARK  status: ('A' for Active; 'I' for Inactive)
REMARK    1  A    between atoms: C_1  and  O_2
REMARK    2  A    between atoms: O_2  and  C_3
REMARK    3  A    between atoms: C_8  and  C_9
REMARK    4  A    between atoms: N_11  and  N_12
REMARK                            x       y       z     vdW  Elec       q    Type
REMARK                         _______ _______ _______ _____ _____    ______ ____
ROOT
ATOM      1  C   UNL     1       5.321   4.591  18.952  0.00  0.00    +0.000 C 
ATOM      2  O   UNL     1       5.824   3.525  19.312  0.00  0.00    +0.000 OA
ATOM      3  N   UNL     1       3.953   4.833  18.931  0.00  0.00    +0.000 N 
ATOM      4  H   UNL     1       3.620   5.743  18.615  0.00  0.00    +0.000 HD
ENDROOT
BRANCH   1  10
ATOM      5  C   UNL     1       6.032   6.513  17.372  0.00  0.00    +0.000 A 
ATOM      6  C   UNL     1       6.985   7.503  17.069  0.00  0.00    +0.000 A 
ATOM      7  C   UNL     1       8.100   7.706  17.886  0.00  0.00    +0.000 A 
ATOM      8  C   UNL     1       8.290   6.915  19.010  0.00  0.00    +0.000 A 
ATOM      9  C   UNL     1       7.365   5.918  19.312  0.00  0.00    +0.000 A 
ATOM     10  C   UNL     1       6.232   5.697  18.503  0.00  0.00    +0.000 A 
BRANCH   5  12
ATOM     11  C   UNL     1       5.145   5.607  15.354  0.00  0.00    +0.000 C 
ATOM     12  O   UNL     1       4.928   6.289  16.587  0.00  0.00    +0.000 OA
ENDBRANCH   5  12
ENDBRANCH   1  10
BRANCH   3  13
ATOM     13  N   UNL     1       2.978   3.866  19.297  0.00  0.00    +0.000 NA
ATOM     14  C   UNL     1       2.483   4.070  20.669  0.00  0.00    +0.000 C 
ATOM     15  C   UNL     1       1.494   2.979  21.079  0.00  0.00    +0.000 C 
ATOM     16  C   UNL     1       0.335   2.898  20.093  0.00  0.00    +0.000 C 
ATOM     17  C   UNL     1       0.868   2.699  18.679  0.00  0.00    +0.000 C 
ATOM     18  C   UNL     1       1.888   3.780  18.311  0.00  0.00    +0.000 C 
ENDBRANCH   3  13
TORSDOF 3
ENDMDL
MODEL 6
REMARK VINA RESULT:      -6.4      1.177      1.323
REMARK  Name = 
REMARK  4 active torsions:
REMARK  status: ('A' for Active; 'I' for Inactive)
REMARK    1  A    between atoms: C_1  and  O_2
REMARK    2  A    between atoms: O_2  and  C_3
REMARK    3  A    between atoms: C_8  and  C_9
REMARK    4  A    between atoms: N_11  and  N_12
REMARK                            x       y       z     vdW  Elec       q    Type
REMARK                         _______ _______ _______ _____ _____    ______ ____
ROOT
ATOM      1  C   UNL     1       5.213   4.438  18.166  0.00  0.00    +0.000 C 
ATOM      2  O   UNL     1       5.974   4.309  19.127  0.00  0.00    +0.000 OA
ATOM      3  N   UNL     1       3.828   4.377  18.263  0.00  0.00    +0.000 N 
ATOM      4  H   UNL     1       3.271   4.490  17.417  0.00  0.00    +0.000 HD
ENDROOT
BRANCH   1  10
ATOM      5  C   UNL     1       6.421   5.859  16.373  0.00  0.00    +0.000 A 
ATOM      6  C   UNL     1       6.920   5.929  15.059  0.00  0.00    +0.000 A 
ATOM      7  C   UNL     1       6.844   4.832  14.198  0.00  0.00    +0.000 A 
ATOM      8  C   UNL     1       6.255   3.651  14.629  0.00  0.00    +0.000 A 
ATOM      9  C   UNL     1       5.739   3.573  15.920  0.00  0.00    +0.000 A 
ATOM     10  C   UNL     1       5.807   4.668  16.807  0.00  0.00    +0.000 A 
BRANCH   5  12
ATOM     11  C   UNL     1       7.754   7.209  17.815  0.00  0.00    +0.000 C 
ATOM     12  O   UNL     1       6.481   6.921  17.241  0.00  0.00    +0.000 OA
ENDBRANCH   5  12
ENDBRANCH   1  10
BRANCH   3  13
ATOM     13  N   UNL     1       3.136   4.132  19.480  0.00  0.00    +0.000 NA
ATOM     14  C   UNL     1       1.686   4.351  19.347  0.00  0.00    +0.000 C 
ATOM     15  C   UNL     1       0.962   4.159  20.680  0.00  0.00    +0.000 C 
ATOM     16  C   UNL     1       1.249   2.780  21.261  0.00  0.00    +0.000 C 
ATOM     17  C   UNL     1       2.754   2.568  21.379  0.00  0.00    +0.000 C 
ATOM     18  C   UNL     1       3.457   2.809  20.040  0.00  0.00    +0.000 C 
ENDBRANCH   3  13
TORSDOF 3
ENDMDL
MODEL 7
REMARK VINA RESULT:      -6.4      1.479      6.167
REMARK  Name = 
REMARK  4 active torsions:
REMARK  status: ('A' for Active; 'I' for Inactive)
REMARK    1  A    between atoms: C_1  and  O_2
REMARK    2  A    between atoms: O_2  and  C_3
REMARK    3  A    between atoms: C_8  and  C_9
REMARK    4  A    between atoms: N_11  and  N_12
REMARK                            x       y       z     vdW  Elec       q    Type
REMARK                         _______ _______ _______ _____ _____    ______ ____
ROOT
ATOM      1  C   UNL     1       4.621   3.770  18.792  0.00  0.00    +0.000 C 
ATOM      2  O   UNL     1       5.719   3.777  19.350  0.00  0.00    +0.000 OA
ATOM      3  N   UNL     1       4.453   3.847  17.414  0.00  0.00    +0.000 N 
ATOM      4  H   UNL     1       3.508   3.839  17.034  0.00  0.00    +0.000 HD
ENDROOT
BRANCH   1  10
ATOM      5  C   UNL     1       2.263   4.524  19.546  0.00  0.00    +0.000 A 
ATOM      6  C   UNL     1       1.182   4.322  20.424  0.00  0.00    +0.000 A 
ATOM      7  C   UNL     1       1.195   3.283  21.358  0.00  0.00    +0.000 A 
ATOM      8  C   UNL     1       2.292   2.438  21.441  0.00  0.00    +0.000 A 
ATOM      9  C   UNL     1       3.377   2.637  20.592  0.00  0.00    +0.000 A 
ATOM     10  C   UNL     1       3.385   3.678  19.641  0.00  0.00    +0.000 A 
BRANCH   5  12
ATOM     11  C   UNL     1       2.539   6.850  19.110  0.00  0.00    +0.000 C 
ATOM     12  O   UNL     1       2.280   5.536  18.619  0.00  0.00    +0.000 OA
ENDBRANCH   5  12
ENDBRANCH   1  10
BRANCH   3  13
ATOM     13  N   UNL     1       5.532   3.972  16.498  0.00  0.00    +0.000 NA
ATOM     14  C   UNL     1       5.100   3.772  15.104  0.00  0.00    +0.000 C 
ATOM     15  C   UNL     1       6.281   3.832  14.135  0.00  0.00    +0.000 C 
ATOM     16  C   UNL     1       7.040   5.145  14.283  0.00  0.00    +0.000 C 
ATOM     17  C   UNL     1       7.467   5.338  15.733  0.00  0.00    +0.000 C 
ATOM     18  C   UNL     1       6.271   5.231  16.684  0.00  0.00    +0.000 C 
ENDBRANCH   3  13
TORSDOF 3
ENDMDL
MODEL 8
REMARK VINA RESULT:      -6.3      1.260      1.467
REMARK  Name = 
REMARK  4 active torsions:
REMARK  status: ('A' for Active; 'I' for Inactive)
REMARK    1  A    between atoms: C_1  and  O_2
REMARK    2  A    between atoms: O_2  and  C_3
REMARK    3  A    between atoms: C_8  and  C_9
REMARK    4  A    between atoms: N_11  and  N_12
REMARK                            x       y       z     vdW  Elec       q    Type
REMARK                         _______ _______ _______ _____ _____    ______ ____
ROOT
ATOM      1  C   UNL     1       4.515   4.181  17.590  0.00  0.00    +0.000 C 
ATOM      2  O   UNL     1       4.930   3.584  18.585  0.00  0.00    +0.000 OA
ATOM      3  N   UNL     1       3.190   4.563  17.414  0.00  0.00    +0.000 N 
ATOM      4  H   UNL     1       2.929   5.050  16.558  0.00  0.00    +0.000 HD
ENDROOT
BRANCH   1  10
ATOM      5  C   UNL     1       6.480   5.511  16.558  0.00  0.00    +0.000 A 
ATOM      6  C   UNL     1       7.311   5.716  15.441  0.00  0.00    +0.000 A 
ATOM      7  C   UNL     1       7.186   4.928  14.294  0.00  0.00    +0.000 A 
ATOM      8  C   UNL     1       6.221   3.933  14.237  0.00  0.00    +0.000 A 
ATOM      9  C   UNL     1       5.379   3.731  15.327  0.00  0.00    +0.000 A 
ATOM     10  C   UNL     1       5.488   4.513  16.495  0.00  0.00    +0.000 A 
BRANCH   5  12
ATOM     11  C   UNL     1       7.655   5.963  18.582  0.00  0.00    +0.000 C 
ATOM     12  O   UNL     1       6.578   6.270  17.698  0.00  0.00    +0.000 OA
ENDBRANCH   5  12
ENDBRANCH   1  10
BRANCH   3  13
ATOM     13  N   UNL     1       2.161   4.283  18.352  0.00  0.00    +0.000 NA
ATOM     14  C   UNL     1       1.861   2.844  18.433  0.00  0.00    +0.000 C 
ATOM     15  C   UNL     1       0.701   2.562  19.388  0.00  0.00    +0.000 C 
ATOM     16  C   UNL     1       0.985   3.133  20.772  0.00  0.00    +0.000 C 
ATOM     17  C   UNL     1       1.305   4.619  20.666  0.00  0.00    +0.000 C 
ATOM     18  C   UNL     1       2.441   4.875  19.671  0.00  0.00    +0.000 C 
ENDBRANCH   3  13
TORSDOF 3
ENDMDL
MODEL 9
REMARK VINA RESULT:      -6.2      1.688      6.001
REMARK  Name = 
REMARK  4 active torsions:
REMARK  status: ('A' for Active; 'I' for Inactive)
REMARK    1  A    between atoms: C_1  and  O_2
REMARK    2  A    between atoms: O_2  and  C_3
REMARK    3  A    between atoms: C_8  and  C_9
REMARK    4  A    between atoms: N_11  and  N_12
REMARK                            x       y       z     vdW  Elec       q    Type
REMARK                         _______ _______ _______ _____ _____    ______ ____
ROOT
ATOM      1  C   UNL     1       3.006   3.493  17.785  0.00  0.00    +0.000 C 
ATOM      2  O   UNL     1       2.335   3.074  16.841  0.00  0.00    +0.000 OA
ATOM      3  N   UNL     1       4.186   4.212  17.637  0.00  0.00    +0.000 N 
ATOM      4  H   UNL     1       4.683   4.519  18.471  0.00  0.00    +0.000 HD
ENDROOT
BRANCH   1  10
ATOM      5  C   UNL     1       3.334   2.735  20.238  0.00  0.00    +0.000 A 
ATOM      6  C   UNL     1       2.741   2.505  21.493  0.00  0.00    +0.000 A 
ATOM      7  C   UNL     1       1.388   2.771  21.713  0.00  0.00    +0.000 A 
ATOM      8  C   UNL     1       0.600   3.258  20.679  0.00  0.00    +0.000 A 
ATOM      9  C   UNL     1       1.168   3.473  19.426  0.00  0.00    +0.000 A 
ATOM     10  C   UNL     1       2.532   3.212  19.183  0.00  0.00    +0.000 A 
BRANCH   5  12
ATOM     11  C   UNL     1       5.253   1.406  20.718  0.00  0.00    +0.000 C 
ATOM     12  O   UNL     1       4.661   2.481  19.992  0.00  0.00    +0.000 OA
ENDBRANCH   5  12
ENDBRANCH   1  10
BRANCH   3  13
ATOM     13  N   UNL     1       4.765   4.518  16.375  0.00  0.00    +0.000 NA
ATOM     14  C   UNL     1       5.390   5.851  16.362  0.00  0.00    +0.000 C 
ATOM     15  C   UNL     1       5.941   6.202  14.979  0.00  0.00    +0.000 C 
ATOM     16  C   UNL     1       6.923   5.140  14.501  0.00  0.00    +0.000 C 
ATOM     17  C   UNL     1       6.262   3.767  14.534  0.00  0.00    +0.000 C 
ATOM     18  C   UNL     1       5.682   3.461  15.918  0.00  0.00    +0.000 C 
ENDBRANCH   3  13
TORSDOF 3
ENDMDL
