MODEL 1
REMARK VINA RESULT:      -8.7      0.000      0.000
REMARK  Name = 
REMARK  7 active torsions:
REMARK  status: ('A' for Active; 'I' for Inactive)
REMARK    1  A    between atoms: C_1  and  C_2
REMARK    2  A    between atoms: C_2  and  C_3
REMARK    3  A    between atoms: C_7  and  N_8
REMARK    4  A    between atoms: N_8  and  C_9
REMARK    5  A    between atoms: C_9  and  C_10
REMARK    6  A    between atoms: C_15  and  C_16
REMARK    7  A    between atoms: C_19  and  C_20
REMARK                            x       y       z     vdW  Elec       q    Type
REMARK                         _______ _______ _______ _____ _____    ______ ____
ROOT
ATOM      1  C   UNL     1       2.350   3.839  19.052  0.00  0.00    +0.000 A 
ATOM      2  C   UNL     1       2.457   2.456  19.300  0.00  0.00    +0.000 A 
ATOM      3  C   UNL     1       2.269   1.937  20.580  0.00  0.00    +0.000 A 
ATOM      4  C   UNL     1       1.982   2.792  21.638  0.00  0.00    +0.000 A 
ATOM      5  C   UNL     1       1.914   4.168  21.420  0.00  0.00    +0.000 A 
ATOM      6  C   UNL     1       2.105   4.716  20.135  0.00  0.00    +0.000 A 
ENDROOT
BRANCH   6   7
ATOM      7  C   UNL     1       2.025   6.165  19.970  0.00  0.00    +0.000 A 
ATOM      8  N   UNL     1       2.648   6.970  19.134  0.00  0.00    +0.000 NA
ATOM      9  N   UNL     1       2.206   8.244  19.413  0.00  0.00    +0.000 NA
ATOM     10  C   UNL     1       1.357   8.137  20.417  0.00  0.00    +0.000 A 
ATOM     11  O   UNL     1       1.152   6.835  20.789  0.00  0.00    +0.000 OA
BRANCH  10  12
ATOM     12  C   UNL     1       0.597   9.189  21.080  0.00  0.00    +0.000 A 
ATOM     13  C   UNL     1       0.428   9.077  22.475  0.00  0.00    +0.000 A 
ATOM     14  C   UNL     1      -0.331  10.002  23.196  0.00  0.00    +0.000 A 
ATOM     15  C   UNL     1      -0.942  11.060  22.534  0.00  0.00    +0.000 A 
ATOM     16  C   UNL     1      -0.783  11.196  21.155  0.00  0.00    +0.000 A 
ATOM     17  C   UNL     1      -0.018  10.270  20.427  0.00  0.00    +0.000 A 
ATOM     18 CL   UNL     1       0.060  10.521  18.717  0.00  0.00    +0.000 Cl
ENDBRANCH  10  12
ENDBRANCH   6   7
BRANCH   1  19
ATOM     19  C   UNL     1       2.507   4.323  17.623  0.00  0.00    +0.000 C 
BRANCH  19  20
ATOM     20  N   UNL     1       3.553   3.562  16.943  0.00  0.00    +0.000 N 
ATOM     21  H   UNL     1       3.187   3.052  16.146  0.00  0.00    +0.000 HD
BRANCH  20  26
ATOM     22  C   UNL     1       6.705   5.594  17.184  0.00  0.00    +0.000 A 
ATOM     23  C   UNL     1       7.141   5.535  15.860  0.00  0.00    +0.000 A 
ATOM     24  C   UNL     1       6.403   4.823  14.919  0.00  0.00    +0.000 A 
ATOM     25  C   UNL     1       5.216   4.183  15.293  0.00  0.00    +0.000 A 
ATOM     26  C   UNL     1       4.730   4.257  16.606  0.00  0.00    +0.000 A 
ATOM     27  C   UNL     1       5.519   4.931  17.548  0.00  0.00    +0.000 A 
BRANCH  22  29
ATOM     28  C   UNL     1       7.777   7.792  17.653  0.00  0.00    +0.000 C 
ATOM     29  C   UNL     1       7.456   6.410  18.206  0.00  0.00    +0.000 C 
ENDBRANCH  22  29
ENDBRANCH  20  26
ENDBRANCH  19  20
ENDBRANCH   1  19
TORSDOF 6
ENDMDL
MODEL 2
REMARK VINA RESULT:      -8.6      1.164      1.929
REMARK  Name = 
REMARK  7 active torsions:
REMARK  status: ('A' for Active; 'I' for Inactive)
REMARK    1  A    between atoms: C_1  and  C_2
REMARK    2  A    between atoms: C_2  and  C_3
REMARK    3  A    between atoms: C_7  and  N_8
REMARK    4  A    between atoms: N_8  and  C_9
REMARK    5  A    between atoms: C_9  and  C_10
REMARK    6  A    between atoms: C_15  and  C_16
REMARK    7  A    between atoms: C_19  and  C_20
REMARK                            x       y       z     vdW  Elec       q    Type
REMARK                         _______ _______ _______ _____ _____    ______ ____
ROOT
ATOM      1  C   UNL     1       3.625   4.278  18.177  0.00  0.00    +0.000 A 
ATOM      2  C   UNL     1       3.961   2.917  18.317  0.00  0.00    +0.000 A 
ATOM      3  C   UNL     1       3.530   2.178  19.418  0.00  0.00    +0.000 A 
ATOM      4  C   UNL     1       2.765   2.788  20.404  0.00  0.00    +0.000 A 
ATOM      5  C   UNL     1       2.457   4.145  20.304  0.00  0.00    +0.000 A 
ATOM      6  C   UNL     1       2.886   4.914  19.203  0.00  0.00    +0.000 A 
ENDROOT
BRANCH   6   7
ATOM      7  C   UNL     1       2.535   6.331  19.155  0.00  0.00    +0.000 A 
ATOM      8  N   UNL     1       2.825   7.258  18.266  0.00  0.00    +0.000 NA
ATOM      9  N   UNL     1       2.250   8.426  18.714  0.00  0.00    +0.000 NA
ATOM     10  C   UNL     1       1.663   8.141  19.861  0.00  0.00    +0.000 A 
ATOM     11  O   UNL     1       1.758   6.812  20.178  0.00  0.00    +0.000 OA
BRANCH  10  12
ATOM     12  C   UNL     1       0.899   9.023  20.734  0.00  0.00    +0.000 A 
ATOM     13  C   UNL     1       1.032   8.824  22.123  0.00  0.00    +0.000 A 
ATOM     14  C   UNL     1       0.300   9.578  23.043  0.00  0.00    +0.000 A 
ATOM     15  C   UNL     1      -0.586  10.548  22.591  0.00  0.00    +0.000 A 
ATOM     16  C   UNL     1      -0.730  10.768  21.222  0.00  0.00    +0.000 A 
ATOM     17  C   UNL     1       0.006  10.015  20.294  0.00  0.00    +0.000 A 
ATOM     18 CL   UNL     1      -0.300  10.349  18.623  0.00  0.00    +0.000 Cl
ENDBRANCH  10  12
ENDBRANCH   6   7
BRANCH   1  19
ATOM     19  C   UNL     1       4.078   5.001  16.923  0.00  0.00    +0.000 C 
BRANCH  19  20
ATOM     20  N   UNL     1       5.483   4.708  16.651  0.00  0.00    +0.000 N 
ATOM     21  H   UNL     1       5.681   4.710  15.655  0.00  0.00    +0.000 HD
BRANCH  20  26
ATOM     22  C   UNL     1       7.607   7.555  17.878  0.00  0.00    +0.000 A 
ATOM     23  C   UNL     1       8.305   6.920  18.906  0.00  0.00    +0.000 A 
ATOM     24  C   UNL     1       8.058   5.578  19.186  0.00  0.00    +0.000 A 
ATOM     25  C   UNL     1       7.127   4.861  18.425  0.00  0.00    +0.000 A 
ATOM     26  C   UNL     1       6.440   5.459  17.360  0.00  0.00    +0.000 A 
ATOM     27  C   UNL     1       6.662   6.824  17.135  0.00  0.00    +0.000 A 
BRANCH  22  29
ATOM     28  C   UNL     1       8.768   9.639  18.590  0.00  0.00    +0.000 C 
ATOM     29  C   UNL     1       7.903   8.989  17.519  0.00  0.00    +0.000 C 
ENDBRANCH  22  29
ENDBRANCH  20  26
ENDBRANCH  19  20
ENDBRANCH   1  19
TORSDOF 6
ENDMDL
MODEL 3
REMARK VINA RESULT:      -8.6      3.172      8.594
REMARK  Name = 
REMARK  7 active torsions:
REMARK  status: ('A' for Active; 'I' for Inactive)
REMARK    1  A    between atoms: C_1  and  C_2
REMARK    2  A    between atoms: C_2  and  C_3
REMARK    3  A    between atoms: C_7  and  N_8
REMARK    4  A    between atoms: N_8  and  C_9
REMARK    5  A    between atoms: C_9  and  C_10
REMARK    6  A    between atoms: C_15  and  C_16
REMARK    7  A    between atoms: C_19  and  C_20
REMARK                            x       y       z     vdW  Elec       q    Type
REMARK                         _______ _______ _______ _____ _____    ______ ____
ROOT
ATOM      1  C   UNL     1       0.058  10.513  20.157  0.00  0.00    +0.000 A 
ATOM      2  C   UNL     1      -0.664  11.008  21.262  0.00  0.00    +0.000 A 
ATOM      3  C   UNL     1      -0.517  10.446  22.529  0.00  0.00    +0.000 A 
ATOM      4  C   UNL     1       0.344   9.371  22.714  0.00  0.00    +0.000 A 
ATOM      5  C   UNL     1       1.035   8.840  21.624  0.00  0.00    +0.000 A 
ATOM      6  C   UNL     1       0.899   9.388  20.333  0.00  0.00    +0.000 A 
ENDROOT
BRANCH   6   7
ATOM      7  C   UNL     1       1.646   8.787  19.231  0.00  0.00    +0.000 A 
ATOM      8  N   UNL     1       2.160   9.327  18.145  0.00  0.00    +0.000 NA
ATOM      9  N   UNL     1       2.753   8.304  17.441  0.00  0.00    +0.000 NA
ATOM     10  C   UNL     1       2.545   7.200  18.133  0.00  0.00    +0.000 A 
ATOM     11  O   UNL     1       1.892   7.440  19.312  0.00  0.00    +0.000 OA
BRANCH  10  12
ATOM     12  C   UNL     1       2.983   5.843  17.830  0.00  0.00    +0.000 A 
ATOM     13  C   UNL     1       1.998   4.835  17.834  0.00  0.00    +0.000 A 
ATOM     14  C   UNL     1       2.323   3.495  17.613  0.00  0.00    +0.000 A 
ATOM     15  C   UNL     1       3.645   3.133  17.386  0.00  0.00    +0.000 A 
ATOM     16  C   UNL     1       4.637   4.113  17.371  0.00  0.00    +0.000 A 
ATOM     17  C   UNL     1       4.314   5.462  17.590  0.00  0.00    +0.000 A 
ATOM     18 CL   UNL     1       5.640   6.574  17.597  0.00  0.00    +0.000 Cl
ENDBRANCH  10  12
ENDBRANCH   6   7
BRANCH   1  19
ATOM     19  C   UNL     1      -0.108  11.214  18.822  0.00  0.00    +0.000 C 
BRANCH  19  20
ATOM     20  N   UNL     1      -0.765  10.330  17.864  0.00  0.00    +0.000 N 
ATOM     21  H   UNL     1      -0.684   9.355  18.137  0.00  0.00    +0.000 HD
BRANCH  20  26
ATOM     22  C   UNL     1      -4.278  11.660  17.958  0.00  0.00    +0.000 A 
ATOM     23  C   UNL     1      -4.696  11.350  16.663  0.00  0.00    +0.000 A 
ATOM     24  C   UNL     1      -3.818  10.725  15.782  0.00  0.00    +0.000 A 
ATOM     25  C   UNL     1      -2.524  10.389  16.199  0.00  0.00    +0.000 A 
ATOM     26  C   UNL     1      -2.088  10.649  17.504  0.00  0.00    +0.000 A 
ATOM     27  C   UNL     1      -2.969  11.330  18.355  0.00  0.00    +0.000 A 
BRANCH  22  29
ATOM     28  C   UNL     1      -4.514  12.610  20.247  0.00  0.00    +0.000 C 
ATOM     29  C   UNL     1      -5.232  12.281  18.946  0.00  0.00    +0.000 C 
ENDBRANCH  22  29
ENDBRANCH  20  26
ENDBRANCH  19  20
ENDBRANCH   1  19
TORSDOF 6
ENDMDL
MODEL 4
REMARK VINA RESULT:      -8.6      1.194      2.273
REMARK  Name = 
REMARK  7 active torsions:
REMARK  status: ('A' for Active; 'I' for Inactive)
REMARK    1  A    between atoms: C_1  and  C_2
REMARK    2  A    between atoms: C_2  and  C_3
REMARK    3  A    between atoms: C_7  and  N_8
REMARK    4  A    between atoms: N_8  and  C_9
REMARK    5  A    between atoms: C_9  and  C_10
REMARK    6  A    between atoms: C_15  and  C_16
REMARK    7  A    between atoms: C_19  and  C_20
REMARK                            x       y       z     vdW  Elec       q    Type
REMARK                         _______ _______ _______ _____ _____    ______ ____
ROOT
ATOM      1  C   UNL     1       3.565   4.588  19.677  0.00  0.00    +0.000 A 
ATOM      2  C   UNL     1       3.799   3.229  19.971  0.00  0.00    +0.000 A 
ATOM      3  C   UNL     1       2.857   2.468  20.661  0.00  0.00    +0.000 A 
ATOM      4  C   UNL     1       1.667   3.054  21.079  0.00  0.00    +0.000 A 
ATOM      5  C   UNL     1       1.436   4.408  20.833  0.00  0.00    +0.000 A 
ATOM      6  C   UNL     1       2.377   5.198  20.143  0.00  0.00    +0.000 A 
ENDROOT
BRANCH   6   7
ATOM      7  C   UNL     1       2.080   6.611  19.918  0.00  0.00    +0.000 A 
ATOM      8  N   UNL     1       2.371   7.399  18.905  0.00  0.00    +0.000 NA
ATOM      9  N   UNL     1       1.860   8.640  19.213  0.00  0.00    +0.000 NA
ATOM     10  C   UNL     1       1.307   8.533  20.406  0.00  0.00    +0.000 A 
ATOM     11  O   UNL     1       1.362   7.255  20.894  0.00  0.00    +0.000 OA
BRANCH  10  12
ATOM     12  C   UNL     1       0.612   9.555  21.179  0.00  0.00    +0.000 A 
ATOM     13  C   UNL     1       0.027   9.152  22.397  0.00  0.00    +0.000 A 
ATOM     14  C   UNL     1      -0.710  10.040  23.184  0.00  0.00    +0.000 A 
ATOM     15  C   UNL     1      -0.880  11.354  22.766  0.00  0.00    +0.000 A 
ATOM     16  C   UNL     1      -0.305  11.779  21.569  0.00  0.00    +0.000 A 
ATOM     17  C   UNL     1       0.438  10.890  20.776  0.00  0.00    +0.000 A 
ATOM     18 CL   UNL     1       1.056  11.525  19.290  0.00  0.00    +0.000 Cl
ENDBRANCH  10  12
ENDBRANCH   6   7
BRANCH   1  19
ATOM     19  C   UNL     1       4.611   5.334  18.870  0.00  0.00    +0.000 C 
BRANCH  19  20
ATOM     20  N   UNL     1       4.189   5.446  17.476  0.00  0.00    +0.000 N 
ATOM     21  H   UNL     1       3.783   6.356  17.279  0.00  0.00    +0.000 HD
BRANCH  20  26
ATOM     22  C   UNL     1       5.738   4.336  14.237  0.00  0.00    +0.000 A 
ATOM     23  C   UNL     1       7.091   4.490  14.542  0.00  0.00    +0.000 A 
ATOM     24  C   UNL     1       7.469   4.965  15.795  0.00  0.00    +0.000 A 
ATOM     25  C   UNL     1       6.496   5.269  16.755  0.00  0.00    +0.000 A 
ATOM     26  C   UNL     1       5.131   5.087  16.494  0.00  0.00    +0.000 A 
ATOM     27  C   UNL     1       4.773   4.663  15.207  0.00  0.00    +0.000 A 
BRANCH  22  29
ATOM     28  C   UNL     1       6.506   3.189  12.165  0.00  0.00    +0.000 C 
ATOM     29  C   UNL     1       5.310   3.767  12.909  0.00  0.00    +0.000 C 
ENDBRANCH  22  29
ENDBRANCH  20  26
ENDBRANCH  19  20
ENDBRANCH   1  19
TORSDOF 6
ENDMDL
MODEL 5
REMARK VINA RESULT:      -8.5      3.489      8.570
REMARK  Name = 
REMARK  7 active torsions:
REMARK  status: ('A' for Active; 'I' for Inactive)
REMARK    1  A    between atoms: C_1  and  C_2
REMARK    2  A    between atoms: C_2  and  C_3
REMARK    3  A    between atoms: C_7  and  N_8
REMARK    4  A    between atoms: N_8  and  C_9
REMARK    5  A    between atoms: C_9  and  C_10
REMARK    6  A    between atoms: C_15  and  C_16
REMARK    7  A    between atoms: C_19  and  C_20
REMARK                            x       y       z     vdW  Elec       q    Type
REMARK                         _______ _______ _______ _____ _____    ______ ____
ROOT
ATOM      1  C   UNL     1       0.036  10.647  20.360  0.00  0.00    +0.000 A 
ATOM      2  C   UNL     1      -0.629  11.106  21.515  0.00  0.00    +0.000 A 
ATOM      3  C   UNL     1      -0.442  10.486  22.749  0.00  0.00    +0.000 A 
ATOM      4  C   UNL     1       0.405   9.388  22.850  0.00  0.00    +0.000 A 
ATOM      5  C   UNL     1       1.039   8.893  21.711  0.00  0.00    +0.000 A 
ATOM      6  C   UNL     1       0.861   9.500  20.451  0.00  0.00    +0.000 A 
ENDROOT
BRANCH   6   7
ATOM      7  C   UNL     1       1.549   8.935  19.294  0.00  0.00    +0.000 A 
ATOM      8  N   UNL     1       1.913   9.488  18.156  0.00  0.00    +0.000 NA
ATOM      9  N   UNL     1       2.521   8.499  17.415  0.00  0.00    +0.000 NA
ATOM     10  C   UNL     1       2.469   7.399  18.141  0.00  0.00    +0.000 A 
ATOM     11  O   UNL     1       1.911   7.613  19.373  0.00  0.00    +0.000 OA
BRANCH  10  12
ATOM     12  C   UNL     1       2.987   6.075  17.821  0.00  0.00    +0.000 A 
ATOM     13  C   UNL     1       2.083   4.996  17.899  0.00  0.00    +0.000 A 
ATOM     14  C   UNL     1       2.492   3.681  17.667  0.00  0.00    +0.000 A 
ATOM     15  C   UNL     1       3.820   3.416  17.355  0.00  0.00    +0.000 A 
ATOM     16  C   UNL     1       4.731   4.467  17.265  0.00  0.00    +0.000 A 
ATOM     17  C   UNL     1       4.323   5.791  17.494  0.00  0.00    +0.000 A 
ATOM     18 CL   UNL     1       5.560   6.999  17.402  0.00  0.00    +0.000 Cl
ENDBRANCH  10  12
ENDBRANCH   6   7
BRANCH   1  19
ATOM     19  C   UNL     1      -0.170  11.410  19.066  0.00  0.00    +0.000 C 
BRANCH  19  20
ATOM     20  N   UNL     1      -1.444  12.125  19.098  0.00  0.00    +0.000 N 
ATOM     21  H   UNL     1      -1.309  13.131  19.061  0.00  0.00    +0.000 HD
BRANCH  20  26
ATOM     22  C   UNL     1      -3.152  10.567  16.136  0.00  0.00    +0.000 A 
ATOM     23  C   UNL     1      -4.486  10.820  16.457  0.00  0.00    +0.000 A 
ATOM     24  C   UNL     1      -4.801  11.483  17.640  0.00  0.00    +0.000 A 
ATOM     25  C   UNL     1      -3.782  11.914  18.497  0.00  0.00    +0.000 A 
ATOM     26  C   UNL     1      -2.431  11.711  18.184  0.00  0.00    +0.000 A 
ATOM     27  C   UNL     1      -2.141  10.991  17.017  0.00  0.00    +0.000 A 
BRANCH  22  29
ATOM     28  C   UNL     1      -3.936  10.013  13.838  0.00  0.00    +0.000 C 
ATOM     29  C   UNL     1      -2.787   9.905  14.832  0.00  0.00    +0.000 C 
ENDBRANCH  22  29
ENDBRANCH  20  26
ENDBRANCH  19  20
ENDBRANCH   1  19
TORSDOF 6
ENDMDL
MODEL 6
REMARK VINA RESULT:      -8.5      1.735      3.084
REMARK  Name = 
REMARK  7 active torsions:
REMARK  status: ('A' for Active; 'I' for Inactive)
REMARK    1  A    between atoms: C_1  and  C_2
REMARK    2  A    between atoms: C_2  and  C_3
REMARK    3  A    between atoms: C_7  and  N_8
REMARK    4  A    between atoms: N_8  and  C_9
REMARK    5  A    between atoms: C_9  and  C_10
REMARK    6  A    between atoms: C_15  and  C_16
REMARK    7  A    between atoms: C_19  and  C_20
REMARK                            x       y       z     vdW  Elec       q    Type
REMARK                         _______ _______ _______ _____ _____    ______ ____
ROOT
ATOM      1  C   UNL     1       3.857   4.038  17.771  0.00  0.00    +0.000 A 
ATOM      2  C   UNL     1       3.916   2.631  17.705  0.00  0.00    +0.000 A 
ATOM      3  C   UNL     1       2.824   1.846  18.071  0.00  0.00    +0.000 A 
ATOM      4  C   UNL     1       1.656   2.452  18.520  0.00  0.00    +0.000 A 
ATOM      5  C   UNL     1       1.593   3.841  18.631  0.00  0.00    +0.000 A 
ATOM      6  C   UNL     1       2.686   4.656  18.272  0.00  0.00    +0.000 A 
ENDROOT
BRANCH   6   7
ATOM      7  C   UNL     1       2.562   6.104  18.414  0.00  0.00    +0.000 A 
ATOM      8  N   UNL     1       3.084   7.084  17.707  0.00  0.00    +0.000 NA
ATOM      9  N   UNL     1       2.647   8.258  18.279  0.00  0.00    +0.000 NA
ATOM     10  C   UNL     1       1.902   7.917  19.314  0.00  0.00    +0.000 A 
ATOM     11  O   UNL     1       1.759   6.560  19.429  0.00  0.00    +0.000 OA
BRANCH  10  12
ATOM     12  C   UNL     1       1.189   8.784  20.244  0.00  0.00    +0.000 A 
ATOM     13  C   UNL     1       1.394   8.556  21.619  0.00  0.00    +0.000 A 
ATOM     14  C   UNL     1       0.716   9.293  22.592  0.00  0.00    +0.000 A 
ATOM     15  C   UNL     1      -0.188  10.276  22.208  0.00  0.00    +0.000 A 
ATOM     16  C   UNL     1      -0.403  10.525  20.853  0.00  0.00    +0.000 A 
ATOM     17  C   UNL     1       0.279   9.788  19.872  0.00  0.00    +0.000 A 
ATOM     18 CL   UNL     1      -0.113  10.157  18.227  0.00  0.00    +0.000 Cl
ENDBRANCH  10  12
ENDBRANCH   6   7
BRANCH   1  19
ATOM     19  C   UNL     1       5.064   4.827  17.299  0.00  0.00    +0.000 C 
BRANCH  19  20
ATOM     20  N   UNL     1       4.807   5.406  15.983  0.00  0.00    +0.000 N 
ATOM     21  H   UNL     1       4.827   6.421  16.009  0.00  0.00    +0.000 HD
BRANCH  20  26
ATOM     22  C   UNL     1       5.810   3.652  12.815  0.00  0.00    +0.000 A 
ATOM     23  C   UNL     1       7.145   4.048  12.723  0.00  0.00    +0.000 A 
ATOM     24  C   UNL     1       7.686   4.890  13.691  0.00  0.00    +0.000 A 
ATOM     25  C   UNL     1       6.900   5.323  14.765  0.00  0.00    +0.000 A 
ATOM     26  C   UNL     1       5.569   4.910  14.908  0.00  0.00    +0.000 A 
ATOM     27  C   UNL     1       5.030   4.110  13.892  0.00  0.00    +0.000 A 
BRANCH  22  29
ATOM     28  C   UNL     1       3.996   3.301  11.145  0.00  0.00    +0.000 C 
ATOM     29  C   UNL     1       5.222   2.692  11.812  0.00  0.00    +0.000 C 
ENDBRANCH  22  29
ENDBRANCH  20  26
ENDBRANCH  19  20
ENDBRANCH   1  19
TORSDOF 6
ENDMDL
MODEL 7
REMARK VINA RESULT:      -8.5      1.777      2.892
REMARK  Name = 
REMARK  7 active torsions:
REMARK  status: ('A' for Active; 'I' for Inactive)
REMARK    1  A    between atoms: C_1  and  C_2
REMARK    2  A    between atoms: C_2  and  C_3
REMARK    3  A    between atoms: C_7  and  N_8
REMARK    4  A    between atoms: N_8  and  C_9
REMARK    5  A    between atoms: C_9  and  C_10
REMARK    6  A    between atoms: C_15  and  C_16
REMARK    7  A    between atoms: C_19  and  C_20
REMARK                            x       y       z     vdW  Elec       q    Type
REMARK                         _______ _______ _______ _____ _____    ______ ____
ROOT
ATOM      1  C   UNL     1       3.357   3.709  19.390  0.00  0.00    +0.000 A 
ATOM      2  C   UNL     1       3.068   2.357  19.662  0.00  0.00    +0.000 A 
ATOM      3  C   UNL     1       1.901   1.760  19.187  0.00  0.00    +0.000 A 
ATOM      4  C   UNL     1       0.997   2.506  18.441  0.00  0.00    +0.000 A 
ATOM      5  C   UNL     1       1.245   3.857  18.197  0.00  0.00    +0.000 A 
ATOM      6  C   UNL     1       2.415   4.484  18.672  0.00  0.00    +0.000 A 
ENDROOT
BRANCH   6   7
ATOM      7  C   UNL     1       2.619   5.902  18.387  0.00  0.00    +0.000 A 
ATOM      8  N   UNL     1       3.472   6.503  17.584  0.00  0.00    +0.000 NA
ATOM      9  N   UNL     1       3.238   7.855  17.704  0.00  0.00    +0.000 NA
ATOM     10  C   UNL     1       2.270   7.992  18.590  0.00  0.00    +0.000 A 
ATOM     11  O   UNL     1       1.790   6.788  19.028  0.00  0.00    +0.000 OA
BRANCH  10  12
ATOM     12  C   UNL     1       1.640   9.218  19.063  0.00  0.00    +0.000 A 
ATOM     13  C   UNL     1       1.667  10.329  18.195  0.00  0.00    +0.000 A 
ATOM     14  C   UNL     1       1.142  11.567  18.575  0.00  0.00    +0.000 A 
ATOM     15  C   UNL     1       0.580  11.720  19.836  0.00  0.00    +0.000 A 
ATOM     16  C   UNL     1       0.535  10.634  20.710  0.00  0.00    +0.000 A 
ATOM     17  C   UNL     1       1.059   9.388  20.330  0.00  0.00    +0.000 A 
ATOM     18 CL   UNL     1       0.988   8.134  21.522  0.00  0.00    +0.000 Cl
ENDBRANCH  10  12
ENDBRANCH   6   7
BRANCH   1  19
ATOM     19  C   UNL     1       4.674   4.272  19.889  0.00  0.00    +0.000 C 
BRANCH  19  20
ATOM     20  N   UNL     1       5.782   3.749  19.094  0.00  0.00    +0.000 N 
ATOM     21  H   UNL     1       5.558   2.845  18.689  0.00  0.00    +0.000 HD
BRANCH  20  26
ATOM     22  C   UNL     1       6.850   5.243  15.816  0.00  0.00    +0.000 A 
ATOM     23  C   UNL     1       7.389   6.453  16.257  0.00  0.00    +0.000 A 
ATOM     24  C   UNL     1       7.380   6.760  17.615  0.00  0.00    +0.000 A 
ATOM     25  C   UNL     1       6.852   5.851  18.539  0.00  0.00    +0.000 A 
ATOM     26  C   UNL     1       6.340   4.611  18.132  0.00  0.00    +0.000 A 
ATOM     27  C   UNL     1       6.307   4.349  16.756  0.00  0.00    +0.000 A 
BRANCH  22  29
ATOM     28  C   UNL     1       5.690   4.027  13.978  0.00  0.00    +0.000 C 
ATOM     29  C   UNL     1       6.904   4.865  14.358  0.00  0.00    +0.000 C 
ENDBRANCH  22  29
ENDBRANCH  20  26
ENDBRANCH  19  20
ENDBRANCH   1  19
TORSDOF 6
ENDMDL
MODEL 8
REMARK VINA RESULT:      -8.5      1.315      2.171
REMARK  Name = 
REMARK  7 active torsions:
REMARK  status: ('A' for Active; 'I' for Inactive)
REMARK    1  A    between atoms: C_1  and  C_2
REMARK    2  A    between atoms: C_2  and  C_3
REMARK    3  A    between atoms: C_7  and  N_8
REMARK    4  A    between atoms: N_8  and  C_9
REMARK    5  A    between atoms: C_9  and  C_10
REMARK    6  A    between atoms: C_15  and  C_16
REMARK    7  A    between atoms: C_19  and  C_20
REMARK                            x       y       z     vdW  Elec       q    Type
REMARK                         _______ _______ _______ _____ _____    ______ ____
ROOT
ATOM      1  C   UNL     1       3.643   4.140  19.697  0.00  0.00    +0.000 A 
ATOM      2  C   UNL     1       3.722   2.742  19.860  0.00  0.00    +0.000 A 
ATOM      3  C   UNL     1       2.572   1.965  19.990  0.00  0.00    +0.000 A 
ATOM      4  C   UNL     1       1.322   2.572  19.971  0.00  0.00    +0.000 A 
ATOM      5  C   UNL     1       1.225   3.959  19.852  0.00  0.00    +0.000 A 
ATOM      6  C   UNL     1       2.374   4.766  19.725  0.00  0.00    +0.000 A 
ENDROOT
BRANCH   6   7
ATOM      7  C   UNL     1       2.209   6.212  19.607  0.00  0.00    +0.000 A 
ATOM      8  N   UNL     1       2.657   7.057  18.702  0.00  0.00    +0.000 NA
ATOM      9  N   UNL     1       2.213   8.306  19.077  0.00  0.00    +0.000 NA
ATOM     10  C   UNL     1       1.540   8.144  20.200  0.00  0.00    +0.000 A 
ATOM     11  O   UNL     1       1.450   6.829  20.569  0.00  0.00    +0.000 OA
BRANCH  10  12
ATOM     12  C   UNL     1       0.852   9.151  20.998  0.00  0.00    +0.000 A 
ATOM     13  C   UNL     1       0.538   8.810  22.329  0.00  0.00    +0.000 A 
ATOM     14  C   UNL     1      -0.171   9.682  23.160  0.00  0.00    +0.000 A 
ATOM     15  C   UNL     1      -0.584  10.916  22.674  0.00  0.00    +0.000 A 
ATOM     16  C   UNL     1      -0.279  11.279  21.362  0.00  0.00    +0.000 A 
ATOM     17  C   UNL     1       0.435  10.407  20.525  0.00  0.00    +0.000 A 
ATOM     18 CL   UNL     1       0.705  10.953  18.905  0.00  0.00    +0.000 Cl
ENDBRANCH  10  12
ENDBRANCH   6   7
BRANCH   1  19
ATOM     19  C   UNL     1       4.935   4.911  19.501  0.00  0.00    +0.000 C 
BRANCH  19  20
ATOM     20  N   UNL     1       5.781   4.238  18.519  0.00  0.00    +0.000 N 
ATOM     21  H   UNL     1       5.672   3.229  18.559  0.00  0.00    +0.000 HD
BRANCH  20  26
ATOM     22  C   UNL     1       5.756   4.357  14.764  0.00  0.00    +0.000 A 
ATOM     23  C   UNL     1       5.457   5.705  14.559  0.00  0.00    +0.000 A 
ATOM     24  C   UNL     1       5.258   6.544  15.652  0.00  0.00    +0.000 A 
ATOM     25  C   UNL     1       5.376   6.043  16.954  0.00  0.00    +0.000 A 
ATOM     26  C   UNL     1       5.715   4.704  17.193  0.00  0.00    +0.000 A 
ATOM     27  C   UNL     1       5.854   3.866  16.078  0.00  0.00    +0.000 A 
BRANCH  22  29
ATOM     28  C   UNL     1       6.892   4.157  12.556  0.00  0.00    +0.000 C 
ATOM     29  C   UNL     1       6.036   3.446  13.596  0.00  0.00    +0.000 C 
ENDBRANCH  22  29
ENDBRANCH  20  26
ENDBRANCH  19  20
ENDBRANCH   1  19
TORSDOF 6
ENDMDL
MODEL 9
REMARK VINA RESULT:      -8.4      1.189      1.640
REMARK  Name = 
REMARK  7 active torsions:
REMARK  status: ('A' for Active; 'I' for Inactive)
REMARK    1  A    between atoms: C_1  and  C_2
REMARK    2  A    between atoms: C_2  and  C_3
REMARK    3  A    between atoms: C_7  and  N_8
REMARK    4  A    between atoms: N_8  and  C_9
REMARK    5  A    between atoms: C_9  and  C_10
REMARK    6  A    between atoms: C_15  and  C_16
REMARK    7  A    between atoms: C_19  and  C_20
REMARK                            x       y       z     vdW  Elec       q    Type
REMARK                         _______ _______ _______ _____ _____    ______ ____
ROOT
ATOM      1  C   UNL     1       2.519   3.836  18.975  0.00  0.00    +0.000 A 
ATOM      2  C   UNL     1       2.552   2.548  19.548  0.00  0.00    +0.000 A 
ATOM      3  C   UNL     1       2.357   2.363  20.915  0.00  0.00    +0.000 A 
ATOM      4  C   UNL     1       2.137   3.462  21.738  0.00  0.00    +0.000 A 
ATOM      5  C   UNL     1       2.143   4.748  21.195  0.00  0.00    +0.000 A 
ATOM      6  C   UNL     1       2.343   4.960  19.816  0.00  0.00    +0.000 A 
ENDROOT
BRANCH   6   7
ATOM      7  C   UNL     1       2.342   6.329  19.308  0.00  0.00    +0.000 A 
ATOM      8  N   UNL     1       3.028   6.882  18.329  0.00  0.00    +0.000 NA
ATOM      9  N   UNL     1       2.645   8.204  18.280  0.00  0.00    +0.000 NA
ATOM     10  C   UNL     1       1.765   8.377  19.247  0.00  0.00    +0.000 A 
ATOM     11  O   UNL     1       1.482   7.213  19.909  0.00  0.00    +0.000 OA
BRANCH  10  12
ATOM     12  C   UNL     1       1.042   9.590  19.610  0.00  0.00    +0.000 A 
ATOM     13  C   UNL     1       0.582  10.403  18.554  0.00  0.00    +0.000 A 
ATOM     14  C   UNL     1      -0.070  11.614  18.795  0.00  0.00    +0.000 A 
ATOM     15  C   UNL     1      -0.275  12.040  20.101  0.00  0.00    +0.000 A 
ATOM     16  C   UNL     1       0.165  11.250  21.163  0.00  0.00    +0.000 A 
ATOM     17  C   UNL     1       0.818  10.030  20.925  0.00  0.00    +0.000 A 
ATOM     18 CL   UNL     1       1.360   9.168  22.324  0.00  0.00    +0.000 Cl
ENDBRANCH  10  12
ENDBRANCH   6   7
BRANCH   1  19
ATOM     19  C   UNL     1       2.679   3.953  17.470  0.00  0.00    +0.000 C 
BRANCH  19  20
ATOM     20  N   UNL     1       3.882   3.248  17.033  0.00  0.00    +0.000 N 
ATOM     21  H   UNL     1       3.672   2.554  16.322  0.00  0.00    +0.000 HD
BRANCH  20  26
ATOM     22  C   UNL     1       6.870   5.520  17.187  0.00  0.00    +0.000 A 
ATOM     23  C   UNL     1       7.256   5.515  15.846  0.00  0.00    +0.000 A 
ATOM     24  C   UNL     1       6.540   4.760  14.922  0.00  0.00    +0.000 A 
ATOM     25  C   UNL     1       5.422   4.022  15.331  0.00  0.00    +0.000 A 
ATOM     26  C   UNL     1       4.985   4.038  16.662  0.00  0.00    +0.000 A 
ATOM     27  C   UNL     1       5.756   4.759  17.585  0.00  0.00    +0.000 A 
BRANCH  22  29
ATOM     28  C   UNL     1       7.746   7.800  17.670  0.00  0.00    +0.000 C 
ATOM     29  C   UNL     1       7.595   6.378  18.192  0.00  0.00    +0.000 C 
ENDBRANCH  22  29
ENDBRANCH  20  26
ENDBRANCH  19  20
ENDBRANCH   1  19
TORSDOF 6
ENDMDL
