MODEL 1
REMARK VINA RESULT:      -8.3      0.000      0.000
REMARK  Name = 
REMARK  8 active torsions:
REMARK  status: ('A' for Active; 'I' for Inactive)
REMARK    1  A    between atoms: C_1  and  O_2
REMARK    2  A    between atoms: O_2  and  C_3
REMARK    3  A    between atoms: C_8  and  C_9
REMARK    4  A    between atoms: C_12  and  C_13
REMARK    5  A    between atoms: C_13  and  O_14
REMARK    6  A    between atoms: O_14  and  C_15
REMARK    7  A    between atoms: C_21  and  O_22
REMARK    8  A    between atoms: O_22  and  C_23
REMARK                            x       y       z     vdW  Elec       q    Type
REMARK                         _______ _______ _______ _____ _____    ______ ____
ROOT
ATOM      1  C   UNL     1       0.392  10.859  20.532  0.00  0.00    +0.000 A 
ATOM      2  N   UNL     1       0.836   9.651  20.763  0.00  0.00    +0.000 NA
ATOM      3  N   UNL     1       1.417   9.269  19.596  0.00  0.00    +0.000 N 
ATOM      4  C   UNL     1       1.976   8.110  19.143  0.00  0.00    +0.000 A 
ATOM      5  N   UNL     1       2.313   8.277  17.868  0.00  0.00    +0.000 NA
ATOM      6  N   UNL     1       1.951   9.561  17.478  0.00  0.00    +0.000 NA
ATOM      7  C   UNL     1       1.426  10.108  18.534  0.00  0.00    +0.000 A 
ATOM      8  S   UNL     1       0.663  11.576  18.930  0.00  0.00    +0.000 S 
ENDROOT
BRANCH   1  14
ATOM      9  C   UNL     1      -2.667  14.401  24.395  0.00  0.00    +0.000 A 
ATOM     10  C   UNL     1      -3.529  13.304  24.390  0.00  0.00    +0.000 A 
ATOM     11  C   UNL     1      -3.236  12.152  23.645  0.00  0.00    +0.000 A 
ATOM     12  C   UNL     1      -2.051  12.146  22.900  0.00  0.00    +0.000 A 
ATOM     13  N   UNL     1      -1.524  11.191  22.062  0.00  0.00    +0.000 N 
ATOM     14  C   UNL     1      -0.338  11.622  21.502  0.00  0.00    +0.000 A 
ATOM     15  C   UNL     1      -0.085  12.870  22.049  0.00  0.00    +0.000 A 
ATOM     16  C   UNL     1      -1.168  13.220  22.896  0.00  0.00    +0.000 A 
ATOM     17  C   UNL     1      -1.484  14.365  23.648  0.00  0.00    +0.000 A 
ATOM     18  H   UNL     1      -1.962  10.303  21.849  0.00  0.00    +0.000 HD
BRANCH   9  20
ATOM     19  C   UNL     1      -3.388  16.654  24.254  0.00  0.00    +0.000 C 
ATOM     20  O   UNL     1      -2.887  15.585  25.045  0.00  0.00    +0.000 OA
ENDBRANCH   9  20
ENDBRANCH   1  14
BRANCH   4  21
ATOM     21  C   UNL     1       2.039   6.859  19.927  0.00  0.00    +0.000 C 
BRANCH  21  22
ATOM     22  O   UNL     1       3.329   6.272  19.734  0.00  0.00    +0.000 OA
BRANCH  22  23
ATOM     23  C   UNL     1       3.384   5.304  18.755  0.00  0.00    +0.000 A 
ATOM     24  C   UNL     1       2.398   4.332  18.591  0.00  0.00    +0.000 A 
ATOM     25  C   UNL     1       2.548   3.411  17.575  0.00  0.00    +0.000 A 
ATOM     26  N   UNL     1       3.585   3.401  16.720  0.00  0.00    +0.000 NA
ATOM     27  C   UNL     1       4.520   4.355  16.845  0.00  0.00    +0.000 A 
ATOM     28  C   UNL     1       5.573   4.361  15.944  0.00  0.00    +0.000 A 
ATOM     29  C   UNL     1       6.592   5.314  15.993  0.00  0.00    +0.000 A 
ATOM     30  C   UNL     1       6.556   6.294  16.978  0.00  0.00    +0.000 A 
ATOM     31  C   UNL     1       5.504   6.311  17.900  0.00  0.00    +0.000 A 
ATOM     32  C   UNL     1       4.472   5.347  17.849  0.00  0.00    +0.000 A 
BRANCH  29  33
ATOM     33  O   UNL     1       7.549   5.171  15.027  0.00  0.00    +0.000 OA
ATOM     34  C   UNL     1       7.112   4.775  13.735  0.00  0.00    +0.000 C 
ENDBRANCH  29  33
ENDBRANCH  22  23
ENDBRANCH  21  22
ENDBRANCH   4  21
TORSDOF 6
ENDMDL
MODEL 2
REMARK VINA RESULT:      -8.1      3.244     10.453
REMARK  Name = 
REMARK  8 active torsions:
REMARK  status: ('A' for Active; 'I' for Inactive)
REMARK    1  A    between atoms: C_1  and  O_2
REMARK    2  A    between atoms: O_2  and  C_3
REMARK    3  A    between atoms: C_8  and  C_9
REMARK    4  A    between atoms: C_12  and  C_13
REMARK    5  A    between atoms: C_13  and  O_14
REMARK    6  A    between atoms: O_14  and  C_15
REMARK    7  A    between atoms: C_21  and  O_22
REMARK    8  A    between atoms: O_22  and  C_23
REMARK                            x       y       z     vdW  Elec       q    Type
REMARK                         _______ _______ _______ _____ _____    ______ ____
ROOT
ATOM      1  C   UNL     1       0.943   9.175  20.903  0.00  0.00    +0.000 A 
ATOM      2  N   UNL     1       0.893  10.461  20.672  0.00  0.00    +0.000 NA
ATOM      3  N   UNL     1       0.082  10.955  21.644  0.00  0.00    +0.000 N 
ATOM      4  C   UNL     1      -0.448  12.182  21.913  0.00  0.00    +0.000 A 
ATOM      5  N   UNL     1      -1.258  12.070  22.961  0.00  0.00    +0.000 NA
ATOM      6  N   UNL     1      -1.270  10.743  23.372  0.00  0.00    +0.000 NA
ATOM      7  C   UNL     1      -0.462  10.123  22.563  0.00  0.00    +0.000 A 
ATOM      8  S   UNL     1       0.041   8.521  22.286  0.00  0.00    +0.000 S 
ENDROOT
BRANCH   1  14
ATOM      9  C   UNL     1       4.245   5.592  17.289  0.00  0.00    +0.000 A 
ATOM     10  C   UNL     1       4.171   4.753  18.401  0.00  0.00    +0.000 A 
ATOM     11  C   UNL     1       3.451   5.127  19.546  0.00  0.00    +0.000 A 
ATOM     12  C   UNL     1       2.815   6.374  19.534  0.00  0.00    +0.000 A 
ATOM     13  N   UNL     1       2.078   7.014  20.503  0.00  0.00    +0.000 N 
ATOM     14  C   UNL     1       1.665   8.259  20.070  0.00  0.00    +0.000 A 
ATOM     15  C   UNL     1       2.113   8.381  18.765  0.00  0.00    +0.000 A 
ATOM     16  C   UNL     1       2.862   7.223  18.434  0.00  0.00    +0.000 A 
ATOM     17  C   UNL     1       3.593   6.829  17.299  0.00  0.00    +0.000 A 
ATOM     18  H   UNL     1       1.893   6.644  21.427  0.00  0.00    +0.000 HD
BRANCH   9  20
ATOM     19  C   UNL     1       5.389   4.000  15.955  0.00  0.00    +0.000 C 
ATOM     20  O   UNL     1       4.963   5.342  16.149  0.00  0.00    +0.000 OA
ENDBRANCH   9  20
ENDBRANCH   1  14
BRANCH   4  21
ATOM     21  C   UNL     1      -0.246  13.375  21.064  0.00  0.00    +0.000 C 
BRANCH  21  22
ATOM     22  O   UNL     1      -1.517  13.782  20.550  0.00  0.00    +0.000 OA
BRANCH  22  23
ATOM     23  C   UNL     1      -2.030  12.970  19.562  0.00  0.00    +0.000 A 
ATOM     24  C   UNL     1      -1.266  12.495  18.497  0.00  0.00    +0.000 A 
ATOM     25  C   UNL     1      -1.876  11.683  17.563  0.00  0.00    +0.000 A 
ATOM     26  N   UNL     1      -3.166  11.309  17.625  0.00  0.00    +0.000 NA
ATOM     27  C   UNL     1      -3.899  11.730  18.667  0.00  0.00    +0.000 A 
ATOM     28  C   UNL     1      -5.221  11.318  18.744  0.00  0.00    +0.000 A 
ATOM     29  C   UNL     1      -6.062  11.702  19.790  0.00  0.00    +0.000 A 
ATOM     30  C   UNL     1      -5.564  12.526  20.792  0.00  0.00    +0.000 A 
ATOM     31  C   UNL     1      -4.234  12.956  20.738  0.00  0.00    +0.000 A 
ATOM     32  C   UNL     1      -3.382  12.566  19.680  0.00  0.00    +0.000 A 
BRANCH  29  33
ATOM     33  O   UNL     1      -7.333  11.204  19.709  0.00  0.00    +0.000 OA
ATOM     34  C   UNL     1      -7.877  10.622  20.885  0.00  0.00    +0.000 C 
ENDBRANCH  29  33
ENDBRANCH  22  23
ENDBRANCH  21  22
ENDBRANCH   4  21
TORSDOF 6
ENDMDL
MODEL 3
REMARK VINA RESULT:      -8.1      1.536      1.735
REMARK  Name = 
REMARK  8 active torsions:
REMARK  status: ('A' for Active; 'I' for Inactive)
REMARK    1  A    between atoms: C_1  and  O_2
REMARK    2  A    between atoms: O_2  and  C_3
REMARK    3  A    between atoms: C_8  and  C_9
REMARK    4  A    between atoms: C_12  and  C_13
REMARK    5  A    between atoms: C_13  and  O_14
REMARK    6  A    between atoms: O_14  and  C_15
REMARK    7  A    between atoms: C_21  and  O_22
REMARK    8  A    between atoms: O_22  and  C_23
REMARK                            x       y       z     vdW  Elec       q    Type
REMARK                         _______ _______ _______ _____ _____    ______ ____
ROOT
ATOM      1  C   UNL     1      -0.325  10.934  20.155  0.00  0.00    +0.000 A 
ATOM      2  N   UNL     1       0.151   9.784  20.556  0.00  0.00    +0.000 NA
ATOM      3  N   UNL     1       1.054   9.434  19.604  0.00  0.00    +0.000 N 
ATOM      4  C   UNL     1       1.818   8.328  19.372  0.00  0.00    +0.000 A 
ATOM      5  N   UNL     1       2.466   8.496  18.224  0.00  0.00    +0.000 NA
ATOM      6  N   UNL     1       2.104   9.726  17.688  0.00  0.00    +0.000 NA
ATOM      7  C   UNL     1       1.269  10.243  18.540  0.00  0.00    +0.000 A 
ATOM      8  S   UNL     1       0.296  11.635  18.647  0.00  0.00    +0.000 S 
ENDROOT
BRANCH   1  14
ATOM      9  C   UNL     1      -4.933  13.809  22.861  0.00  0.00    +0.000 A 
ATOM     10  C   UNL     1      -4.400  13.170  23.981  0.00  0.00    +0.000 A 
ATOM     11  C   UNL     1      -3.248  12.374  23.884  0.00  0.00    +0.000 A 
ATOM     12  C   UNL     1      -2.657  12.239  22.622  0.00  0.00    +0.000 A 
ATOM     13  N   UNL     1      -1.561  11.512  22.218  0.00  0.00    +0.000 N 
ATOM     14  C   UNL     1      -1.353  11.642  20.860  0.00  0.00    +0.000 A 
ATOM     15  C   UNL     1      -2.320  12.525  20.405  0.00  0.00    +0.000 A 
ATOM     16  C   UNL     1      -3.160  12.875  21.493  0.00  0.00    +0.000 A 
ATOM     17  C   UNL     1      -4.317  13.664  21.613  0.00  0.00    +0.000 A 
ATOM     18  H   UNL     1      -1.002  10.925  22.825  0.00  0.00    +0.000 HD
BRANCH   9  20
ATOM     19  C   UNL     1      -6.830  14.529  21.636  0.00  0.00    +0.000 C 
ATOM     20  O   UNL     1      -6.077  14.561  22.841  0.00  0.00    +0.000 OA
ENDBRANCH   9  20
ENDBRANCH   1  14
BRANCH   4  21
ATOM     21  C   UNL     1       1.785   7.109  20.208  0.00  0.00    +0.000 C 
BRANCH  21  22
ATOM     22  O   UNL     1       2.939   6.322  19.902  0.00  0.00    +0.000 OA
BRANCH  22  23
ATOM     23  C   UNL     1       2.697   5.225  19.103  0.00  0.00    +0.000 A 
ATOM     24  C   UNL     1       1.555   4.435  19.224  0.00  0.00    +0.000 A 
ATOM     25  C   UNL     1       1.408   3.361  18.371  0.00  0.00    +0.000 A 
ATOM     26  N   UNL     1       2.296   3.036  17.415  0.00  0.00    +0.000 NA
ATOM     27  C   UNL     1       3.379   3.814  17.266  0.00  0.00    +0.000 A 
ATOM     28  C   UNL     1       4.279   3.494  16.260  0.00  0.00    +0.000 A 
ATOM     29  C   UNL     1       5.434   4.244  16.026  0.00  0.00    +0.000 A 
ATOM     30  C   UNL     1       5.697   5.349  16.826  0.00  0.00    +0.000 A 
ATOM     31  C   UNL     1       4.805   5.693  17.848  0.00  0.00    +0.000 A 
ATOM     32  C   UNL     1       3.636   4.935  18.083  0.00  0.00    +0.000 A 
BRANCH  29  33
ATOM     33  O   UNL     1       6.207   3.787  14.995  0.00  0.00    +0.000 OA
ATOM     34  C   UNL     1       6.962   4.752  14.275  0.00  0.00    +0.000 C 
ENDBRANCH  29  33
ENDBRANCH  22  23
ENDBRANCH  21  22
ENDBRANCH   4  21
TORSDOF 6
ENDMDL
MODEL 4
REMARK VINA RESULT:      -8.0      3.376      5.242
REMARK  Name = 
REMARK  8 active torsions:
REMARK  status: ('A' for Active; 'I' for Inactive)
REMARK    1  A    between atoms: C_1  and  O_2
REMARK    2  A    between atoms: O_2  and  C_3
REMARK    3  A    between atoms: C_8  and  C_9
REMARK    4  A    between atoms: C_12  and  C_13
REMARK    5  A    between atoms: C_13  and  O_14
REMARK    6  A    between atoms: O_14  and  C_15
REMARK    7  A    between atoms: C_21  and  O_22
REMARK    8  A    between atoms: O_22  and  C_23
REMARK                            x       y       z     vdW  Elec       q    Type
REMARK                         _______ _______ _______ _____ _____    ______ ____
ROOT
ATOM      1  C   UNL     1       2.123   6.048  19.676  0.00  0.00    +0.000 A 
ATOM      2  N   UNL     1       2.436   5.419  18.574  0.00  0.00    +0.000 NA
ATOM      3  N   UNL     1       2.695   4.145  18.965  0.00  0.00    +0.000 N 
ATOM      4  C   UNL     1       3.159   3.028  18.335  0.00  0.00    +0.000 A 
ATOM      5  N   UNL     1       3.307   2.065  19.239  0.00  0.00    +0.000 NA
ATOM      6  N   UNL     1       2.951   2.568  20.485  0.00  0.00    +0.000 NA
ATOM      7  C   UNL     1       2.596   3.801  20.271  0.00  0.00    +0.000 A 
ATOM      8  S   UNL     1       2.115   5.141  21.203  0.00  0.00    +0.000 S 
ENDROOT
BRANCH   1  14
ATOM      9  C   UNL     1       0.607  11.922  19.534  0.00  0.00    +0.000 A 
ATOM     10  C   UNL     1       0.363  11.677  20.885  0.00  0.00    +0.000 A 
ATOM     11  C   UNL     1       0.605  10.415  21.450  0.00  0.00    +0.000 A 
ATOM     12  C   UNL     1       1.095   9.410  20.608  0.00  0.00    +0.000 A 
ATOM     13  N   UNL     1       1.390   8.091  20.863  0.00  0.00    +0.000 N 
ATOM     14  C   UNL     1       1.818   7.448  19.718  0.00  0.00    +0.000 A 
ATOM     15  C   UNL     1       1.842   8.411  18.722  0.00  0.00    +0.000 A 
ATOM     16  C   UNL     1       1.358   9.631  19.261  0.00  0.00    +0.000 A 
ATOM     17  C   UNL     1       1.104  10.902  18.716  0.00  0.00    +0.000 A 
ATOM     18  H   UNL     1       1.274   7.636  21.760  0.00  0.00    +0.000 HD
BRANCH   9  20
ATOM     19  C   UNL     1      -0.524  14.005  19.530  0.00  0.00    +0.000 C 
ATOM     20  O   UNL     1       0.355  13.097  18.879  0.00  0.00    +0.000 OA
ENDBRANCH   9  20
ENDBRANCH   1  14
BRANCH   4  21
ATOM     21  C   UNL     1       3.558   2.986  16.912  0.00  0.00    +0.000 C 
BRANCH  21  22
ATOM     22  O   UNL     1       4.962   2.715  16.847  0.00  0.00    +0.000 OA
BRANCH  22  23
ATOM     23  C   UNL     1       5.698   3.639  16.137  0.00  0.00    +0.000 A 
ATOM     24  C   UNL     1       5.772   3.641  14.745  0.00  0.00    +0.000 A 
ATOM     25  C   UNL     1       6.535   4.614  14.131  0.00  0.00    +0.000 A 
ATOM     26  N   UNL     1       7.202   5.573  14.796  0.00  0.00    +0.000 NA
ATOM     27  C   UNL     1       7.105   5.602  16.134  0.00  0.00    +0.000 A 
ATOM     28  C   UNL     1       7.769   6.610  16.816  0.00  0.00    +0.000 A 
ATOM     29  C   UNL     1       7.726   6.723  18.207  0.00  0.00    +0.000 A 
ATOM     30  C   UNL     1       6.994   5.797  18.940  0.00  0.00    +0.000 A 
ATOM     31  C   UNL     1       6.314   4.770  18.276  0.00  0.00    +0.000 A 
ATOM     32  C   UNL     1       6.357   4.657  16.868  0.00  0.00    +0.000 A 
BRANCH  29  33
ATOM     33  O   UNL     1       8.438   7.776  18.713  0.00  0.00    +0.000 OA
ATOM     34  C   UNL     1       8.209   9.052  18.130  0.00  0.00    +0.000 C 
ENDBRANCH  29  33
ENDBRANCH  22  23
ENDBRANCH  21  22
ENDBRANCH   4  21
TORSDOF 6
ENDMDL
MODEL 5
REMARK VINA RESULT:      -7.8      0.956      1.388
REMARK  Name = 
REMARK  8 active torsions:
REMARK  status: ('A' for Active; 'I' for Inactive)
REMARK    1  A    between atoms: C_1  and  O_2
REMARK    2  A    between atoms: O_2  and  C_3
REMARK    3  A    between atoms: C_8  and  C_9
REMARK    4  A    between atoms: C_12  and  C_13
REMARK    5  A    between atoms: C_13  and  O_14
REMARK    6  A    between atoms: O_14  and  C_15
REMARK    7  A    between atoms: C_21  and  O_22
REMARK    8  A    between atoms: O_22  and  C_23
REMARK                            x       y       z     vdW  Elec       q    Type
REMARK                         _______ _______ _______ _____ _____    ______ ____
ROOT
ATOM      1  C   UNL     1       0.665  11.005  20.341  0.00  0.00    +0.000 A 
ATOM      2  N   UNL     1       0.952   9.785  20.713  0.00  0.00    +0.000 NA
ATOM      3  N   UNL     1       1.493   9.206  19.610  0.00  0.00    +0.000 N 
ATOM      4  C   UNL     1       1.907   7.944  19.299  0.00  0.00    +0.000 A 
ATOM      5  N   UNL     1       2.276   7.925  18.022  0.00  0.00    +0.000 NA
ATOM      6  N   UNL     1       2.083   9.193  17.486  0.00  0.00    +0.000 NA
ATOM      7  C   UNL     1       1.619   9.914  18.463  0.00  0.00    +0.000 A 
ATOM      8  S   UNL     1       1.042  11.501  18.678  0.00  0.00    +0.000 S 
ENDROOT
BRANCH   1  14
ATOM      9  C   UNL     1      -2.030  14.755  24.277  0.00  0.00    +0.000 A 
ATOM     10  C   UNL     1      -1.045  15.623  23.804  0.00  0.00    +0.000 A 
ATOM     11  C   UNL     1      -0.144  15.223  22.806  0.00  0.00    +0.000 A 
ATOM     12  C   UNL     1      -0.264  13.921  22.306  0.00  0.00    +0.000 A 
ATOM     13  N   UNL     1       0.482  13.249  21.366  0.00  0.00    +0.000 N 
ATOM     14  C   UNL     1       0.027  11.955  21.204  0.00  0.00    +0.000 A 
ATOM     15  C   UNL     1      -1.076  11.829  22.032  0.00  0.00    +0.000 A 
ATOM     16  C   UNL     1      -1.244  13.041  22.751  0.00  0.00    +0.000 A 
ATOM     17  C   UNL     1      -2.134  13.461  23.755  0.00  0.00    +0.000 A 
ATOM     18  H   UNL     1       1.284  13.633  20.882  0.00  0.00    +0.000 HD
BRANCH   9  20
ATOM     19  C   UNL     1      -3.710  16.200  25.119  0.00  0.00    +0.000 C 
ATOM     20  O   UNL     1      -2.919  15.030  25.282  0.00  0.00    +0.000 OA
ENDBRANCH   9  20
ENDBRANCH   1  14
BRANCH   4  21
ATOM     21  C   UNL     1       1.803   6.790  20.216  0.00  0.00    +0.000 C 
BRANCH  21  22
ATOM     22  O   UNL     1       2.997   6.010  20.094  0.00  0.00    +0.000 OA
BRANCH  22  23
ATOM     23  C   UNL     1       2.932   4.992  19.168  0.00  0.00    +0.000 A 
ATOM     24  C   UNL     1       1.867   4.095  19.099  0.00  0.00    +0.000 A 
ATOM     25  C   UNL     1       1.898   3.113  18.131  0.00  0.00    +0.000 A 
ATOM     26  N   UNL     1       2.892   2.977  17.234  0.00  0.00    +0.000 NA
ATOM     27  C   UNL     1       3.902   3.859  17.268  0.00  0.00    +0.000 A 
ATOM     28  C   UNL     1       4.909   3.734  16.324  0.00  0.00    +0.000 A 
ATOM     29  C   UNL     1       6.000   4.605  16.278  0.00  0.00    +0.000 A 
ATOM     30  C   UNL     1       6.085   5.634  17.208  0.00  0.00    +0.000 A 
ATOM     31  C   UNL     1       5.082   5.782  18.171  0.00  0.00    +0.000 A 
ATOM     32  C   UNL     1       3.977   4.902  18.216  0.00  0.00    +0.000 A 
BRANCH  29  33
ATOM     33  O   UNL     1       6.899   4.337  15.283  0.00  0.00    +0.000 OA
ATOM     34  C   UNL     1       6.377   4.128  13.978  0.00  0.00    +0.000 C 
ENDBRANCH  29  33
ENDBRANCH  22  23
ENDBRANCH  21  22
ENDBRANCH   4  21
TORSDOF 6
ENDMDL
MODEL 6
REMARK VINA RESULT:      -7.8      4.157     10.133
REMARK  Name = 
REMARK  8 active torsions:
REMARK  status: ('A' for Active; 'I' for Inactive)
REMARK    1  A    between atoms: C_1  and  O_2
REMARK    2  A    between atoms: O_2  and  C_3
REMARK    3  A    between atoms: C_8  and  C_9
REMARK    4  A    between atoms: C_12  and  C_13
REMARK    5  A    between atoms: C_13  and  O_14
REMARK    6  A    between atoms: O_14  and  C_15
REMARK    7  A    between atoms: C_21  and  O_22
REMARK    8  A    between atoms: O_22  and  C_23
REMARK                            x       y       z     vdW  Elec       q    Type
REMARK                         _______ _______ _______ _____ _____    ______ ____
ROOT
ATOM      1  C   UNL     1       1.536   8.748  20.053  0.00  0.00    +0.000 A 
ATOM      2  N   UNL     1       1.083   9.761  19.364  0.00  0.00    +0.000 NA
ATOM      3  N   UNL     1       0.482  10.562  20.282  0.00  0.00    +0.000 N 
ATOM      4  C   UNL     1      -0.256  11.707  20.214  0.00  0.00    +0.000 A 
ATOM      5  N   UNL     1      -0.673  12.012  21.439  0.00  0.00    +0.000 NA
ATOM      6  N   UNL     1      -0.215  11.039  22.319  0.00  0.00    +0.000 NA
ATOM      7  C   UNL     1       0.463  10.204  21.588  0.00  0.00    +0.000 A 
ATOM      8  S   UNL     1       1.273   8.724  21.809  0.00  0.00    +0.000 S 
ENDROOT
BRANCH   1  14
ATOM      9  C   UNL     1       4.662   4.275  17.399  0.00  0.00    +0.000 A 
ATOM     10  C   UNL     1       4.415   3.657  18.625  0.00  0.00    +0.000 A 
ATOM     11  C   UNL     1       3.662   4.296  19.622  0.00  0.00    +0.000 A 
ATOM     12  C   UNL     1       3.173   5.578  19.345  0.00  0.00    +0.000 A 
ATOM     13  N   UNL     1       2.446   6.448  20.124  0.00  0.00    +0.000 N 
ATOM     14  C   UNL     1       2.208   7.632  19.453  0.00  0.00    +0.000 A 
ATOM     15  C   UNL     1       2.758   7.478  18.191  0.00  0.00    +0.000 A 
ATOM     16  C   UNL     1       3.394   6.211  18.127  0.00  0.00    +0.000 A 
ATOM     17  C   UNL     1       4.154   5.553  17.144  0.00  0.00    +0.000 A 
ATOM     18  H   UNL     1       2.156   6.267  21.076  0.00  0.00    +0.000 HD
BRANCH   9  20
ATOM     19  C   UNL     1       6.558   4.525  15.999  0.00  0.00    +0.000 C 
ATOM     20  O   UNL     1       5.425   3.759  16.386  0.00  0.00    +0.000 OA
ENDBRANCH   9  20
ENDBRANCH   1  14
BRANCH   4  21
ATOM     21  C   UNL     1      -0.628  12.378  18.951  0.00  0.00    +0.000 C 
BRANCH  21  22
ATOM     22  O   UNL     1       0.539  13.012  18.418  0.00  0.00    +0.000 OA
BRANCH  22  23
ATOM     23  C   UNL     1       0.666  14.348  18.731  0.00  0.00    +0.000 A 
ATOM     24  C   UNL     1      -0.406  15.135  19.149  0.00  0.00    +0.000 A 
ATOM     25  C   UNL     1      -0.169  16.462  19.443  0.00  0.00    +0.000 A 
ATOM     26  N   UNL     1       1.042  17.042  19.364  0.00  0.00    +0.000 NA
ATOM     27  C   UNL     1       2.086  16.283  19.000  0.00  0.00    +0.000 A 
ATOM     28  C   UNL     1       3.338  16.876  18.948  0.00  0.00    +0.000 A 
ATOM     29  C   UNL     1       4.485  16.168  18.583  0.00  0.00    +0.000 A 
ATOM     30  C   UNL     1       4.374  14.821  18.257  0.00  0.00    +0.000 A 
ATOM     31  C   UNL     1       3.122  14.199  18.301  0.00  0.00    +0.000 A 
ATOM     32  C   UNL     1       1.962  14.916  18.673  0.00  0.00    +0.000 A 
BRANCH  29  33
ATOM     33  O   UNL     1       5.634  16.909  18.586  0.00  0.00    +0.000 OA
ATOM     34  C   UNL     1       6.835  16.240  18.948  0.00  0.00    +0.000 C 
ENDBRANCH  29  33
ENDBRANCH  22  23
ENDBRANCH  21  22
ENDBRANCH   4  21
TORSDOF 6
ENDMDL
MODEL 7
REMARK VINA RESULT:      -7.7      2.313     10.973
REMARK  Name = 
REMARK  8 active torsions:
REMARK  status: ('A' for Active; 'I' for Inactive)
REMARK    1  A    between atoms: C_1  and  O_2
REMARK    2  A    between atoms: O_2  and  C_3
REMARK    3  A    between atoms: C_8  and  C_9
REMARK    4  A    between atoms: C_12  and  C_13
REMARK    5  A    between atoms: C_13  and  O_14
REMARK    6  A    between atoms: O_14  and  C_15
REMARK    7  A    between atoms: C_21  and  O_22
REMARK    8  A    between atoms: O_22  and  C_23
REMARK                            x       y       z     vdW  Elec       q    Type
REMARK                         _______ _______ _______ _____ _____    ______ ____
ROOT
ATOM      1  C   UNL     1       1.049   9.770  18.771  0.00  0.00    +0.000 A 
ATOM      2  N   UNL     1       1.398  10.806  19.488  0.00  0.00    +0.000 NA
ATOM      3  N   UNL     1       0.393  11.702  19.310  0.00  0.00    +0.000 N 
ATOM      4  C   UNL     1       0.187  12.995  19.695  0.00  0.00    +0.000 A 
ATOM      5  N   UNL     1      -0.953  13.417  19.157  0.00  0.00    +0.000 NA
ATOM      6  N   UNL     1      -1.490  12.388  18.393  0.00  0.00    +0.000 NA
ATOM      7  C   UNL     1      -0.659  11.396  18.516  0.00  0.00    +0.000 A 
ATOM      8  S   UNL     1      -0.485   9.827  17.878  0.00  0.00    +0.000 S 
ENDROOT
BRANCH   1  14
ATOM      9  C   UNL     1       4.807   5.048  18.133  0.00  0.00    +0.000 A 
ATOM     10  C   UNL     1       4.234   4.695  19.355  0.00  0.00    +0.000 A 
ATOM     11  C   UNL     1       3.232   5.482  19.943  0.00  0.00    +0.000 A 
ATOM     12  C   UNL     1       2.833   6.638  19.262  0.00  0.00    +0.000 A 
ATOM     13  N   UNL     1       1.915   7.606  19.600  0.00  0.00    +0.000 N 
ATOM     14  C   UNL     1       1.865   8.598  18.641  0.00  0.00    +0.000 A 
ATOM     15  C   UNL     1       2.744   8.212  17.641  0.00  0.00    +0.000 A 
ATOM     16  C   UNL     1       3.378   7.007  18.037  0.00  0.00    +0.000 A 
ATOM     17  C   UNL     1       4.384   6.205  17.470  0.00  0.00    +0.000 A 
ATOM     18  H   UNL     1       1.374   7.616  20.455  0.00  0.00    +0.000 HD
BRANCH   9  20
ATOM     19  C   UNL     1       7.115   4.965  17.597  0.00  0.00    +0.000 C 
ATOM     20  O   UNL     1       5.823   4.378  17.505  0.00  0.00    +0.000 OA
ENDBRANCH   9  20
ENDBRANCH   1  14
BRANCH   4  21
ATOM     21  C   UNL     1       1.166  13.797  20.458  0.00  0.00    +0.000 C 
BRANCH  21  22
ATOM     22  O   UNL     1       0.979  13.529  21.851  0.00  0.00    +0.000 OA
BRANCH  22  23
ATOM     23  C   UNL     1       0.036  14.319  22.472  0.00  0.00    +0.000 A 
ATOM     24  C   UNL     1       0.163  15.703  22.588  0.00  0.00    +0.000 A 
ATOM     25  C   UNL     1      -0.841  16.402  23.225  0.00  0.00    +0.000 A 
ATOM     26  N   UNL     1      -1.948  15.829  23.731  0.00  0.00    +0.000 NA
ATOM     27  C   UNL     1      -2.097  14.503  23.590  0.00  0.00    +0.000 A 
ATOM     28  C   UNL     1      -3.252  13.920  24.086  0.00  0.00    +0.000 A 
ATOM     29  C   UNL     1      -3.498  12.548  23.985  0.00  0.00    +0.000 A 
ATOM     30  C   UNL     1      -2.555  11.735  23.368  0.00  0.00    +0.000 A 
ATOM     31  C   UNL     1      -1.381  12.299  22.859  0.00  0.00    +0.000 A 
ATOM     32  C   UNL     1      -1.133  13.687  22.960  0.00  0.00    +0.000 A 
BRANCH  29  33
ATOM     33  O   UNL     1      -4.686  12.144  24.527  0.00  0.00    +0.000 OA
ATOM     34  C   UNL     1      -5.863  12.792  24.065  0.00  0.00    +0.000 C 
ENDBRANCH  29  33
ENDBRANCH  22  23
ENDBRANCH  21  22
ENDBRANCH   4  21
TORSDOF 6
ENDMDL
MODEL 8
REMARK VINA RESULT:      -7.7      3.554     11.787
REMARK  Name = 
REMARK  8 active torsions:
REMARK  status: ('A' for Active; 'I' for Inactive)
REMARK    1  A    between atoms: C_1  and  O_2
REMARK    2  A    between atoms: O_2  and  C_3
REMARK    3  A    between atoms: C_8  and  C_9
REMARK    4  A    between atoms: C_12  and  C_13
REMARK    5  A    between atoms: C_13  and  O_14
REMARK    6  A    between atoms: O_14  and  C_15
REMARK    7  A    between atoms: C_21  and  O_22
REMARK    8  A    between atoms: O_22  and  C_23
REMARK                            x       y       z     vdW  Elec       q    Type
REMARK                         _______ _______ _______ _____ _____    ______ ____
ROOT
ATOM      1  C   UNL     1       4.193   5.894  17.220  0.00  0.00    +0.000 A 
ATOM      2  N   UNL     1       3.689   7.100  17.196  0.00  0.00    +0.000 NA
ATOM      3  N   UNL     1       3.026   7.220  18.375  0.00  0.00    +0.000 N 
ATOM      4  C   UNL     1       2.220   8.174  18.925  0.00  0.00    +0.000 A 
ATOM      5  N   UNL     1       1.765   7.720  20.089  0.00  0.00    +0.000 NA
ATOM      6  N   UNL     1       2.268   6.441  20.294  0.00  0.00    +0.000 NA
ATOM      7  C   UNL     1       3.008   6.190  19.254  0.00  0.00    +0.000 A 
ATOM      8  S   UNL     1       3.904   4.877  18.647  0.00  0.00    +0.000 S 
ENDROOT
BRANCH   1  14
ATOM      9  C   UNL     1       7.018   3.491  12.418  0.00  0.00    +0.000 A 
ATOM     10  C   UNL     1       7.832   4.610  12.600  0.00  0.00    +0.000 A 
ATOM     11  C   UNL     1       7.607   5.508  13.654  0.00  0.00    +0.000 A 
ATOM     12  C   UNL     1       6.533   5.246  14.512  0.00  0.00    +0.000 A 
ATOM     13  N   UNL     1       6.054   5.951  15.593  0.00  0.00    +0.000 N 
ATOM     14  C   UNL     1       4.941   5.337  16.131  0.00  0.00    +0.000 A 
ATOM     15  C   UNL     1       4.746   4.179  15.397  0.00  0.00    +0.000 A 
ATOM     16  C   UNL     1       5.714   4.132  14.361  0.00  0.00    +0.000 A 
ATOM     17  C   UNL     1       5.957   3.247  13.296  0.00  0.00    +0.000 A 
ATOM     18  H   UNL     1       6.440   6.825  15.929  0.00  0.00    +0.000 HD
BRANCH   9  20
ATOM     19  C   UNL     1       6.014   1.718  11.207  0.00  0.00    +0.000 C 
ATOM     20  O   UNL     1       7.123   2.588  11.395  0.00  0.00    +0.000 OA
ENDBRANCH   9  20
ENDBRANCH   1  14
BRANCH   4  21
ATOM     21  C   UNL     1       1.827   9.422  18.238  0.00  0.00    +0.000 C 
BRANCH  21  22
ATOM     22  O   UNL     1       0.419   9.376  17.991  0.00  0.00    +0.000 OA
BRANCH  22  23
ATOM     23  C   UNL     1      -0.323  10.305  18.689  0.00  0.00    +0.000 A 
ATOM     24  C   UNL     1       0.169  10.987  19.801  0.00  0.00    +0.000 A 
ATOM     25  C   UNL     1      -0.655  11.901  20.426  0.00  0.00    +0.000 A 
ATOM     26  N   UNL     1      -1.904  12.186  20.016  0.00  0.00    +0.000 NA
ATOM     27  C   UNL     1      -2.371  11.563  18.924  0.00  0.00    +0.000 A 
ATOM     28  C   UNL     1      -3.647  11.880  18.487  0.00  0.00    +0.000 A 
ATOM     29  C   UNL     1      -4.219  11.286  17.359  0.00  0.00    +0.000 A 
ATOM     30  C   UNL     1      -3.489  10.342  16.647  0.00  0.00    +0.000 A 
ATOM     31  C   UNL     1      -2.198  10.004  17.068  0.00  0.00    +0.000 A 
ATOM     32  C   UNL     1      -1.619  10.607  18.207  0.00  0.00    +0.000 A 
BRANCH  29  33
ATOM     33  O   UNL     1      -5.484  11.717  17.071  0.00  0.00    +0.000 OA
ATOM     34  C   UNL     1      -6.487  11.485  18.052  0.00  0.00    +0.000 C 
ENDBRANCH  29  33
ENDBRANCH  22  23
ENDBRANCH  21  22
ENDBRANCH   4  21
TORSDOF 6
ENDMDL
MODEL 9
REMARK VINA RESULT:      -7.7      2.932     11.277
REMARK  Name = 
REMARK  8 active torsions:
REMARK  status: ('A' for Active; 'I' for Inactive)
REMARK    1  A    between atoms: C_1  and  O_2
REMARK    2  A    between atoms: O_2  and  C_3
REMARK    3  A    between atoms: C_8  and  C_9
REMARK    4  A    between atoms: C_12  and  C_13
REMARK    5  A    between atoms: C_13  and  O_14
REMARK    6  A    between atoms: O_14  and  C_15
REMARK    7  A    between atoms: C_21  and  O_22
REMARK    8  A    between atoms: O_22  and  C_23
REMARK                            x       y       z     vdW  Elec       q    Type
REMARK                         _______ _______ _______ _____ _____    ______ ____
ROOT
ATOM      1  C   UNL     1       4.266   3.751  18.573  0.00  0.00    +0.000 A 
ATOM      2  N   UNL     1       3.416   4.651  18.995  0.00  0.00    +0.000 NA
ATOM      3  N   UNL     1       2.944   4.156  20.168  0.00  0.00    +0.000 N 
ATOM      4  C   UNL     1       1.981   4.547  21.051  0.00  0.00    +0.000 A 
ATOM      5  N   UNL     1       1.879   3.622  22.000  0.00  0.00    +0.000 NA
ATOM      6  N   UNL     1       2.779   2.600  21.721  0.00  0.00    +0.000 NA
ATOM      7  C   UNL     1       3.385   2.962  20.629  0.00  0.00    +0.000 A 
ATOM      8  S   UNL     1       4.535   2.301  19.562  0.00  0.00    +0.000 S 
ENDROOT
BRANCH   1  14
ATOM      9  C   UNL     1       6.884   4.274  13.124  0.00  0.00    +0.000 A 
ATOM     10  C   UNL     1       7.711   5.143  13.837  0.00  0.00    +0.000 A 
ATOM     11  C   UNL     1       7.533   5.350  15.213  0.00  0.00    +0.000 A 
ATOM     12  C   UNL     1       6.492   4.659  15.844  0.00  0.00    +0.000 A 
ATOM     13  N   UNL     1       6.062   4.684  17.150  0.00  0.00    +0.000 N 
ATOM     14  C   UNL     1       4.967   3.861  17.327  0.00  0.00    +0.000 A 
ATOM     15  C   UNL     1       4.736   3.258  16.101  0.00  0.00    +0.000 A 
ATOM     16  C   UNL     1       5.662   3.778  15.161  0.00  0.00    +0.000 A 
ATOM     17  C   UNL     1       5.857   3.589  13.781  0.00  0.00    +0.000 A 
ATOM     18  H   UNL     1       6.465   5.257  17.881  0.00  0.00    +0.000 HD
BRANCH   9  20
ATOM     19  C   UNL     1       7.110   2.691  11.374  0.00  0.00    +0.000 C 
ATOM     20  O   UNL     1       6.943   4.044  11.776  0.00  0.00    +0.000 OA
ENDBRANCH   9  20
ENDBRANCH   1  14
BRANCH   4  21
ATOM     21  C   UNL     1       1.118   5.732  20.863  0.00  0.00    +0.000 C 
BRANCH  21  22
ATOM     22  O   UNL     1       1.886   6.900  21.171  0.00  0.00    +0.000 OA
BRANCH  22  23
ATOM     23  C   UNL     1       1.562   8.018  20.433  0.00  0.00    +0.000 A 
ATOM     24  C   UNL     1       1.921   8.173  19.095  0.00  0.00    +0.000 A 
ATOM     25  C   UNL     1       1.543   9.330  18.445  0.00  0.00    +0.000 A 
ATOM     26  N   UNL     1       0.834  10.316  19.023  0.00  0.00    +0.000 NA
ATOM     27  C   UNL     1       0.451  10.158  20.299  0.00  0.00    +0.000 A 
ATOM     28  C   UNL     1      -0.304  11.163  20.883  0.00  0.00    +0.000 A 
ATOM     29  C   UNL     1      -0.751  11.088  22.204  0.00  0.00    +0.000 A 
ATOM     30  C   UNL     1      -0.429   9.971  22.966  0.00  0.00    +0.000 A 
ATOM     31  C   UNL     1       0.334   8.944  22.400  0.00  0.00    +0.000 A 
ATOM     32  C   UNL     1       0.783   9.019  21.063  0.00  0.00    +0.000 A 
BRANCH  29  33
ATOM     33  O   UNL     1      -1.484  12.166  22.617  0.00  0.00    +0.000 OA
ATOM     34  C   UNL     1      -0.807  13.411  22.713  0.00  0.00    +0.000 C 
ENDBRANCH  29  33
ENDBRANCH  22  23
ENDBRANCH  21  22
ENDBRANCH   4  21
TORSDOF 6
ENDMDL
