MODEL 1
REMARK VINA RESULT:      -5.9      0.000      0.000
REMARK  Name = 
REMARK  2 active torsions:
REMARK  status: ('A' for Active; 'I' for Inactive)
REMARK    1  A    between atoms: C_1  and  C_2
REMARK    2  A    between atoms: C_2  and  C_3
REMARK                            x       y       z     vdW  Elec       q    Type
REMARK                         _______ _______ _______ _____ _____    ______ ____
ROOT
ATOM      1  C   UNL     1       7.389   5.523  17.843  0.00  0.00    +0.000 C 
ATOM      2  O   UNL     1       6.977   4.414  18.167  0.00  0.00    +0.000 OA
ATOM      3  N   UNL     1       7.345   6.048  16.566  0.00  0.00    +0.000 N 
ATOM      4  C   UNL     1       6.872   5.323  15.471  0.00  0.00    +0.000 A 
ATOM      5  C   UNL     1       5.765   4.482  15.564  0.00  0.00    +0.000 A 
ATOM      6  C   UNL     1       5.414   3.709  14.460  0.00  0.00    +0.000 A 
ATOM      7  C   UNL     1       6.187   3.790  13.313  0.00  0.00    +0.000 A 
ATOM      8 BR   UNL     1       5.828   2.684  11.831  0.00  0.00    +0.000 Br
ATOM      9  C   UNL     1       7.244   4.694  13.294  0.00  0.00    +0.000 A 
ATOM     10  N   UNL     1       7.580   5.490  14.339  0.00  0.00    +0.000 NA
ATOM     11  H   UNL     1       8.036   6.739  16.311  0.00  0.00    +0.000 HD
ENDROOT
BRANCH   1  13
ATOM     12  C   UNL     1       8.180   7.873  18.259  0.00  0.00    +0.000 C 
ATOM     13  C   UNL     1       8.013   6.479  18.843  0.00  0.00    +0.000 C 
ENDBRANCH   1  13
TORSDOF 1
ENDMDL
MODEL 2
REMARK VINA RESULT:      -5.6      3.909      4.673
REMARK  Name = 
REMARK  2 active torsions:
REMARK  status: ('A' for Active; 'I' for Inactive)
REMARK    1  A    between atoms: C_1  and  C_2
REMARK    2  A    between atoms: C_2  and  C_3
REMARK                            x       y       z     vdW  Elec       q    Type
REMARK                         _______ _______ _______ _____ _____    ______ ____
ROOT
ATOM      1  C   UNL     1       6.450   6.138  18.016  0.00  0.00    +0.000 C 
ATOM      2  O   UNL     1       5.556   6.811  17.511  0.00  0.00    +0.000 OA
ATOM      3  N   UNL     1       6.313   4.839  18.465  0.00  0.00    +0.000 N 
ATOM      4  C   UNL     1       5.092   4.163  18.450  0.00  0.00    +0.000 A 
ATOM      5  C   UNL     1       4.193   4.285  17.393  0.00  0.00    +0.000 A 
ATOM      6  C   UNL     1       2.949   3.667  17.493  0.00  0.00    +0.000 A 
ATOM      7  C   UNL     1       2.642   2.965  18.647  0.00  0.00    +0.000 A 
ATOM      8 BR   UNL     1       0.935   2.205  18.885  0.00  0.00    +0.000 Br
ATOM      9  C   UNL     1       3.620   2.854  19.630  0.00  0.00    +0.000 A 
ATOM     10  N   UNL     1       4.854   3.409  19.538  0.00  0.00    +0.000 NA
ATOM     11  H   UNL     1       6.928   4.523  19.202  0.00  0.00    +0.000 HD
ENDROOT
BRANCH   1  13
ATOM     12  C   UNL     1       7.963   8.133  17.794  0.00  0.00    +0.000 C 
ATOM     13  C   UNL     1       7.857   6.674  18.207  0.00  0.00    +0.000 C 
ENDBRANCH   1  13
TORSDOF 1
ENDMDL
MODEL 3
REMARK VINA RESULT:      -5.6      4.012      4.592
REMARK  Name = 
REMARK  2 active torsions:
REMARK  status: ('A' for Active; 'I' for Inactive)
REMARK    1  A    between atoms: C_1  and  C_2
REMARK    2  A    between atoms: C_2  and  C_3
REMARK                            x       y       z     vdW  Elec       q    Type
REMARK                         _______ _______ _______ _____ _____    ______ ____
ROOT
ATOM      1  C   UNL     1       6.822   5.893  18.880  0.00  0.00    +0.000 C 
ATOM      2  O   UNL     1       6.863   5.279  19.942  0.00  0.00    +0.000 OA
ATOM      3  N   UNL     1       5.731   5.953  18.035  0.00  0.00    +0.000 N 
ATOM      4  C   UNL     1       4.552   5.247  18.279  0.00  0.00    +0.000 A 
ATOM      5  C   UNL     1       4.021   5.115  19.559  0.00  0.00    +0.000 A 
ATOM      6  C   UNL     1       2.901   4.309  19.743  0.00  0.00    +0.000 A 
ATOM      7  C   UNL     1       2.363   3.652  18.649  0.00  0.00    +0.000 A 
ATOM      8 BR   UNL     1       0.919   2.459  18.857  0.00  0.00    +0.000 Br
ATOM      9  C   UNL     1       2.929   3.881  17.399  0.00  0.00    +0.000 A 
ATOM     10  N   UNL     1       3.992   4.695  17.187  0.00  0.00    +0.000 NA
ATOM     11  H   UNL     1       5.900   6.109  17.051  0.00  0.00    +0.000 HD
ENDROOT
BRANCH   1  13
ATOM     12  C   UNL     1       7.560   7.876  17.522  0.00  0.00    +0.000 C 
ATOM     13  C   UNL     1       8.006   6.687  18.358  0.00  0.00    +0.000 C 
ENDBRANCH   1  13
TORSDOF 1
ENDMDL
MODEL 4
REMARK VINA RESULT:      -5.6      4.786      5.913
REMARK  Name = 
REMARK  2 active torsions:
REMARK  status: ('A' for Active; 'I' for Inactive)
REMARK    1  A    between atoms: C_1  and  C_2
REMARK    2  A    between atoms: C_2  and  C_3
REMARK                            x       y       z     vdW  Elec       q    Type
REMARK                         _______ _______ _______ _____ _____    ______ ____
ROOT
ATOM      1  C   UNL     1       4.934   5.321  16.198  0.00  0.00    +0.000 C 
ATOM      2  O   UNL     1       4.689   6.323  16.864  0.00  0.00    +0.000 OA
ATOM      3  N   UNL     1       4.436   4.057  16.448  0.00  0.00    +0.000 N 
ATOM      4  C   UNL     1       3.631   3.770  17.552  0.00  0.00    +0.000 A 
ATOM      5  C   UNL     1       2.648   4.650  17.998  0.00  0.00    +0.000 A 
ATOM      6  C   UNL     1       1.956   4.347  19.168  0.00  0.00    +0.000 A 
ATOM      7  C   UNL     1       2.281   3.190  19.857  0.00  0.00    +0.000 A 
ATOM      8 BR   UNL     1       1.458   2.788  21.504  0.00  0.00    +0.000 Br
ATOM      9  C   UNL     1       3.242   2.346  19.310  0.00  0.00    +0.000 A 
ATOM     10  N   UNL     1       3.898   2.595  18.151  0.00  0.00    +0.000 NA
ATOM     11  H   UNL     1       4.978   3.263  16.139  0.00  0.00    +0.000 HD
ENDROOT
BRANCH   1  13
ATOM     12  C   UNL     1       6.116   3.965  14.444  0.00  0.00    +0.000 C 
ATOM     13  C   UNL     1       5.841   5.359  14.982  0.00  0.00    +0.000 C 
ENDBRANCH   1  13
TORSDOF 1
ENDMDL
MODEL 5
REMARK VINA RESULT:      -5.5      4.262      4.971
REMARK  Name = 
REMARK  2 active torsions:
REMARK  status: ('A' for Active; 'I' for Inactive)
REMARK    1  A    between atoms: C_1  and  C_2
REMARK    2  A    between atoms: C_2  and  C_3
REMARK                            x       y       z     vdW  Elec       q    Type
REMARK                         _______ _______ _______ _____ _____    ______ ____
ROOT
ATOM      1  C   UNL     1       3.320   2.588  19.892  0.00  0.00    +0.000 C 
ATOM      2  O   UNL     1       2.938   1.860  18.981  0.00  0.00    +0.000 OA
ATOM      3  N   UNL     1       4.170   3.667  19.747  0.00  0.00    +0.000 N 
ATOM      4  C   UNL     1       4.748   4.010  18.524  0.00  0.00    +0.000 A 
ATOM      5  C   UNL     1       4.043   3.932  17.325  0.00  0.00    +0.000 A 
ATOM      6  C   UNL     1       4.715   4.187  16.133  0.00  0.00    +0.000 A 
ATOM      7  C   UNL     1       6.065   4.495  16.177  0.00  0.00    +0.000 A 
ATOM      8 BR   UNL     1       7.049   4.737  14.589  0.00  0.00    +0.000 Br
ATOM      9  C   UNL     1       6.675   4.599  17.423  0.00  0.00    +0.000 A 
ATOM     10  N   UNL     1       6.034   4.399  18.600  0.00  0.00    +0.000 NA
ATOM     11  H   UNL     1       4.736   3.936  20.539  0.00  0.00    +0.000 HD
ENDROOT
BRANCH   1  13
ATOM     12  C   UNL     1       1.443   2.808  21.549  0.00  0.00    +0.000 C 
ATOM     13  C   UNL     1       2.885   2.380  21.331  0.00  0.00    +0.000 C 
ENDBRANCH   1  13
TORSDOF 1
ENDMDL
MODEL 6
REMARK VINA RESULT:      -5.5      4.348      5.550
REMARK  Name = 
REMARK  2 active torsions:
REMARK  status: ('A' for Active; 'I' for Inactive)
REMARK    1  A    between atoms: C_1  and  C_2
REMARK    2  A    between atoms: C_2  and  C_3
REMARK                            x       y       z     vdW  Elec       q    Type
REMARK                         _______ _______ _______ _____ _____    ______ ____
ROOT
ATOM      1  C   UNL     1       6.222   4.492  16.355  0.00  0.00    +0.000 C 
ATOM      2  O   UNL     1       6.855   4.454  17.405  0.00  0.00    +0.000 OA
ATOM      3  N   UNL     1       4.846   4.427  16.250  0.00  0.00    +0.000 N 
ATOM      4  C   UNL     1       4.016   4.243  17.357  0.00  0.00    +0.000 A 
ATOM      5  C   UNL     1       4.265   4.862  18.579  0.00  0.00    +0.000 A 
ATOM      6  C   UNL     1       3.456   4.549  19.669  0.00  0.00    +0.000 A 
ATOM      7  C   UNL     1       2.442   3.620  19.504  0.00  0.00    +0.000 A 
ATOM      8 BR   UNL     1       1.391   3.073  20.969  0.00  0.00    +0.000 Br
ATOM      9  C   UNL     1       2.235   3.089  18.235  0.00  0.00    +0.000 A 
ATOM     10  N   UNL     1       2.979   3.411  17.149  0.00  0.00    +0.000 NA
ATOM     11  H   UNL     1       4.451   4.060  15.396  0.00  0.00    +0.000 HD
ENDROOT
BRANCH   1  13
ATOM     12  C   UNL     1       6.094   3.953  13.902  0.00  0.00    +0.000 C 
ATOM     13  C   UNL     1       6.902   4.620  15.004  0.00  0.00    +0.000 C 
ENDBRANCH   1  13
TORSDOF 1
ENDMDL
MODEL 7
REMARK VINA RESULT:      -5.5      4.907      6.082
REMARK  Name = 
REMARK  2 active torsions:
REMARK  status: ('A' for Active; 'I' for Inactive)
REMARK    1  A    between atoms: C_1  and  C_2
REMARK    2  A    between atoms: C_2  and  C_3
REMARK                            x       y       z     vdW  Elec       q    Type
REMARK                         _______ _______ _______ _____ _____    ______ ____
ROOT
ATOM      1  C   UNL     1       1.812   3.620  18.536  0.00  0.00    +0.000 C 
ATOM      2  O   UNL     1       1.714   3.839  17.332  0.00  0.00    +0.000 OA
ATOM      3  N   UNL     1       2.774   4.158  19.368  0.00  0.00    +0.000 N 
ATOM      4  C   UNL     1       3.801   4.979  18.898  0.00  0.00    +0.000 A 
ATOM      5  C   UNL     1       3.588   5.938  17.911  0.00  0.00    +0.000 A 
ATOM      6  C   UNL     1       4.679   6.647  17.416  0.00  0.00    +0.000 A 
ATOM      7  C   UNL     1       5.942   6.363  17.910  0.00  0.00    +0.000 A 
ATOM      8 BR   UNL     1       7.467   7.209  17.196  0.00  0.00    +0.000 Br
ATOM      9  C   UNL     1       6.054   5.424  18.930  0.00  0.00    +0.000 A 
ATOM     10  N   UNL     1       5.002   4.752  19.460  0.00  0.00    +0.000 NA
ATOM     11  H   UNL     1       3.033   3.638  20.194  0.00  0.00    +0.000 HD
ENDROOT
BRANCH   1  13
ATOM     12  C   UNL     1       0.955   2.878  20.779  0.00  0.00    +0.000 C 
ATOM     13  C   UNL     1       0.853   2.703  19.273  0.00  0.00    +0.000 C 
ENDBRANCH   1  13
TORSDOF 1
ENDMDL
MODEL 8
REMARK VINA RESULT:      -5.5      4.123      5.446
REMARK  Name = 
REMARK  2 active torsions:
REMARK  status: ('A' for Active; 'I' for Inactive)
REMARK    1  A    between atoms: C_1  and  C_2
REMARK    2  A    between atoms: C_2  and  C_3
REMARK                            x       y       z     vdW  Elec       q    Type
REMARK                         _______ _______ _______ _____ _____    ______ ____
ROOT
ATOM      1  C   UNL     1       6.168   5.170  15.461  0.00  0.00    +0.000 C 
ATOM      2  O   UNL     1       6.447   6.170  16.116  0.00  0.00    +0.000 OA
ATOM      3  N   UNL     1       5.150   4.284  15.755  0.00  0.00    +0.000 N 
ATOM      4  C   UNL     1       4.354   4.404  16.895  0.00  0.00    +0.000 A 
ATOM      5  C   UNL     1       3.914   5.639  17.362  0.00  0.00    +0.000 A 
ATOM      6  C   UNL     1       3.213   5.693  18.564  0.00  0.00    +0.000 A 
ATOM      7  C   UNL     1       2.991   4.517  19.262  0.00  0.00    +0.000 A 
ATOM      8 BR   UNL     1       2.150   4.543  20.948  0.00  0.00    +0.000 Br
ATOM      9  C   UNL     1       3.424   3.323  18.695  0.00  0.00    +0.000 A 
ATOM     10  N   UNL     1       4.070   3.239  17.506  0.00  0.00    +0.000 NA
ATOM     11  H   UNL     1       5.247   3.328  15.441  0.00  0.00    +0.000 HD
ENDROOT
BRANCH   1  13
ATOM     12  C   UNL     1       6.166   3.774  13.371  0.00  0.00    +0.000 C 
ATOM     13  C   UNL     1       6.934   4.782  14.210  0.00  0.00    +0.000 C 
ENDBRANCH   1  13
TORSDOF 1
ENDMDL
MODEL 9
REMARK VINA RESULT:      -5.4      3.753      4.592
REMARK  Name = 
REMARK  2 active torsions:
REMARK  status: ('A' for Active; 'I' for Inactive)
REMARK    1  A    between atoms: C_1  and  C_2
REMARK    2  A    between atoms: C_2  and  C_3
REMARK                            x       y       z     vdW  Elec       q    Type
REMARK                         _______ _______ _______ _____ _____    ______ ____
ROOT
ATOM      1  C   UNL     1       6.321   6.762  17.116  0.00  0.00    +0.000 C 
ATOM      2  O   UNL     1       5.680   6.731  16.070  0.00  0.00    +0.000 OA
ATOM      3  N   UNL     1       6.066   5.986  18.230  0.00  0.00    +0.000 N 
ATOM      4  C   UNL     1       4.982   5.110  18.304  0.00  0.00    +0.000 A 
ATOM      5  C   UNL     1       4.580   4.338  17.217  0.00  0.00    +0.000 A 
ATOM      6  C   UNL     1       3.426   3.567  17.330  0.00  0.00    +0.000 A 
ATOM      7  C   UNL     1       2.709   3.605  18.514  0.00  0.00    +0.000 A 
ATOM      8 BR   UNL     1       1.081   2.672  18.684  0.00  0.00    +0.000 Br
ATOM      9  C   UNL     1       3.213   4.366  19.565  0.00  0.00    +0.000 A 
ATOM     10  N   UNL     1       4.356   5.091  19.495  0.00  0.00    +0.000 NA
ATOM     11  H   UNL     1       6.346   6.344  19.132  0.00  0.00    +0.000 HD
ENDROOT
BRANCH   1  13
ATOM     12  C   UNL     1       8.263   7.369  18.593  0.00  0.00    +0.000 C 
ATOM     13  C   UNL     1       7.511   7.685  17.310  0.00  0.00    +0.000 C 
ENDBRANCH   1  13
TORSDOF 1
ENDMDL
