MODEL 1
REMARK VINA RESULT:      -8.9      0.000      0.000
REMARK  Name = 
REMARK  10 active torsions:
REMARK  status: ('A' for Active; 'I' for Inactive)
REMARK    1  A    between atoms: C_1  and  C_2
REMARK    2  A    between atoms: C_2  and  O_3
REMARK    3  A    between atoms: O_3  and  C_4
REMARK    4  A    between atoms: C_4  and  C_6
REMARK    5  A    between atoms: C_6  and  S_7
REMARK    6  A    between atoms: S_7  and  C_8
REMARK    7  A    between atoms: C_11  and  C_12
REMARK    8  A    between atoms: C_15  and  S_16
REMARK    9  A    between atoms: S_16  and  C_17
REMARK   10  A    between atoms: C_22  and  C_23
REMARK                            x       y       z     vdW  Elec       q    Type
REMARK                         _______ _______ _______ _____ _____    ______ ____
ROOT
ATOM      1  C   UNL     1       5.405   4.826  16.347  0.00  0.00    +0.000 A 
ATOM      2  N   UNL     1       5.234   6.130  16.063  0.00  0.00    +0.000 NA
ATOM      3  N   UNL     1       4.289   6.851  16.746  0.00  0.00    +0.000 NA
ATOM      4  C   UNL     1       3.545   6.248  17.700  0.00  0.00    +0.000 A 
ATOM      5  C   UNL     1       3.704   4.864  17.897  0.00  0.00    +0.000 A 
ATOM      6  N   UNL     1       4.660   4.153  17.238  0.00  0.00    +0.000 NA
ENDROOT
BRANCH   5   7
ATOM      7  C   UNL     1       2.921   4.050  18.866  0.00  0.00    +0.000 A 
ATOM      8  C   UNL     1       1.517   3.921  18.772  0.00  0.00    +0.000 A 
ATOM      9  C   UNL     1       0.761   3.431  19.841  0.00  0.00    +0.000 A 
ATOM     10  C   UNL     1       1.407   2.945  20.966  0.00  0.00    +0.000 A 
ATOM     11  F   UNL     1       0.683   2.507  22.003  0.00  0.00    +0.000 F 
ATOM     12  C   UNL     1       2.793   2.925  21.035  0.00  0.00    +0.000 A 
ATOM     13  C   UNL     1       3.546   3.478  19.993  0.00  0.00    +0.000 A 
ENDBRANCH   5   7
BRANCH   4  14
ATOM     14  C   UNL     1       2.687   7.161  18.499  0.00  0.00    +0.000 A 
ATOM     15  C   UNL     1       2.429   6.942  19.866  0.00  0.00    +0.000 A 
ATOM     16  C   UNL     1       1.669   7.855  20.617  0.00  0.00    +0.000 A 
ATOM     17  C   UNL     1       1.203   9.027  20.018  0.00  0.00    +0.000 A 
ATOM     18  C   UNL     1       1.410   9.253  18.666  0.00  0.00    +0.000 A 
ATOM     19  C   UNL     1       2.085   8.296  17.914  0.00  0.00    +0.000 A 
BRANCH  17  20
ATOM     20  S   UNL     1       0.244  10.208  20.935  0.00  0.00    +0.000 S 
ATOM     21  C   UNL     1      -0.302   9.285  22.348  0.00  0.00    +0.000 C 
ATOM     22  O   UNL     1       1.148  11.235  21.399  0.00  0.00    +0.000 OA
ATOM     23  O   UNL     1      -0.919  10.537  20.130  0.00  0.00    +0.000 OA
ENDBRANCH  17  20
ENDBRANCH   4  14
BRANCH   1  24
ATOM     24  S   UNL     1       6.754   3.970  15.571  0.00  0.00    +0.000 S 
BRANCH  24  25
ATOM     25  C   UNL     1       6.984   5.047  14.119  0.00  0.00    +0.000 C 
BRANCH  25  26
ATOM     26  C   UNL     1       6.735   4.286  12.834  0.00  0.00    +0.000 C 
ATOM     27  O   UNL     1       7.427   4.368  11.822  0.00  0.00    +0.000 OA
BRANCH  26  28
ATOM     28  O   UNL     1       5.653   3.465  12.962  0.00  0.00    +0.000 OA
BRANCH  28  30
ATOM     29  C   UNL     1       4.015   3.218  11.185  0.00  0.00    +0.000 C 
ATOM     30  C   UNL     1       5.322   2.721  11.778  0.00  0.00    +0.000 C 
ENDBRANCH  28  30
ENDBRANCH  26  28
ENDBRANCH  25  26
ENDBRANCH  24  25
ENDBRANCH   1  24
TORSDOF 8
ENDMDL
MODEL 2
REMARK VINA RESULT:      -8.7      0.974      1.338
REMARK  Name = 
REMARK  10 active torsions:
REMARK  status: ('A' for Active; 'I' for Inactive)
REMARK    1  A    between atoms: C_1  and  C_2
REMARK    2  A    between atoms: C_2  and  O_3
REMARK    3  A    between atoms: O_3  and  C_4
REMARK    4  A    between atoms: C_4  and  C_6
REMARK    5  A    between atoms: C_6  and  S_7
REMARK    6  A    between atoms: S_7  and  C_8
REMARK    7  A    between atoms: C_11  and  C_12
REMARK    8  A    between atoms: C_15  and  S_16
REMARK    9  A    between atoms: S_16  and  C_17
REMARK   10  A    between atoms: C_22  and  C_23
REMARK                            x       y       z     vdW  Elec       q    Type
REMARK                         _______ _______ _______ _____ _____    ______ ____
ROOT
ATOM      1  C   UNL     1       5.190   5.255  16.843  0.00  0.00    +0.000 A 
ATOM      2  N   UNL     1       5.039   6.513  16.392  0.00  0.00    +0.000 NA
ATOM      3  N   UNL     1       4.058   7.307  16.926  0.00  0.00    +0.000 NA
ATOM      4  C   UNL     1       3.259   6.823  17.903  0.00  0.00    +0.000 A 
ATOM      5  C   UNL     1       3.403   5.473  18.276  0.00  0.00    +0.000 A 
ATOM      6  N   UNL     1       4.394   4.692  17.766  0.00  0.00    +0.000 NA
ENDROOT
BRANCH   5   7
ATOM      7  C   UNL     1       2.564   4.780  19.291  0.00  0.00    +0.000 A 
ATOM      8  C   UNL     1       2.886   4.799  20.667  0.00  0.00    +0.000 A 
ATOM      9  C   UNL     1       2.294   3.905  21.562  0.00  0.00    +0.000 A 
ATOM     10  C   UNL     1       1.281   3.068  21.121  0.00  0.00    +0.000 A 
ATOM     11  F   UNL     1       0.737   2.188  21.969  0.00  0.00    +0.000 F 
ATOM     12  C   UNL     1       0.840   3.122  19.805  0.00  0.00    +0.000 A 
ATOM     13  C   UNL     1       1.480   3.969  18.895  0.00  0.00    +0.000 A 
ENDBRANCH   5   7
BRANCH   4  14
ATOM     14  C   UNL     1       2.358   7.823  18.533  0.00  0.00    +0.000 A 
ATOM     15  C   UNL     1       2.020   7.770  19.898  0.00  0.00    +0.000 A 
ATOM     16  C   UNL     1       1.220   8.764  20.488  0.00  0.00    +0.000 A 
ATOM     17  C   UNL     1       0.793   9.853  19.724  0.00  0.00    +0.000 A 
ATOM     18  C   UNL     1       1.081   9.914  18.368  0.00  0.00    +0.000 A 
ATOM     19  C   UNL     1       1.795   8.875  17.780  0.00  0.00    +0.000 A 
BRANCH  17  20
ATOM     20  S   UNL     1      -0.214  11.132  20.432  0.00  0.00    +0.000 S 
ATOM     21  C   UNL     1      -0.542  10.538  22.071  0.00  0.00    +0.000 C 
ATOM     22  O   UNL     1       0.606  12.317  20.547  0.00  0.00    +0.000 OA
ATOM     23  O   UNL     1      -1.467  11.153  19.697  0.00  0.00    +0.000 OA
ENDBRANCH  17  20
ENDBRANCH   4  14
BRANCH   1  24
ATOM     24  S   UNL     1       6.580   4.316  16.257  0.00  0.00    +0.000 S 
BRANCH  24  25
ATOM     25  C   UNL     1       6.023   4.008  14.550  0.00  0.00    +0.000 C 
BRANCH  25  26
ATOM     26  C   UNL     1       6.991   4.599  13.547  0.00  0.00    +0.000 C 
ATOM     27  O   UNL     1       7.836   5.453  13.803  0.00  0.00    +0.000 OA
BRANCH  26  28
ATOM     28  O   UNL     1       6.821   4.027  12.320  0.00  0.00    +0.000 OA
BRANCH  28  30
ATOM     29  C   UNL     1       5.879   1.954  11.473  0.00  0.00    +0.000 C 
ATOM     30  C   UNL     1       5.606   3.274  12.173  0.00  0.00    +0.000 C 
ENDBRANCH  28  30
ENDBRANCH  26  28
ENDBRANCH  25  26
ENDBRANCH  24  25
ENDBRANCH   1  24
TORSDOF 8
ENDMDL
MODEL 3
REMARK VINA RESULT:      -8.6      0.929      1.081
REMARK  Name = 
REMARK  10 active torsions:
REMARK  status: ('A' for Active; 'I' for Inactive)
REMARK    1  A    between atoms: C_1  and  C_2
REMARK    2  A    between atoms: C_2  and  O_3
REMARK    3  A    between atoms: O_3  and  C_4
REMARK    4  A    between atoms: C_4  and  C_6
REMARK    5  A    between atoms: C_6  and  S_7
REMARK    6  A    between atoms: S_7  and  C_8
REMARK    7  A    between atoms: C_11  and  C_12
REMARK    8  A    between atoms: C_15  and  S_16
REMARK    9  A    between atoms: S_16  and  C_17
REMARK   10  A    between atoms: C_22  and  C_23
REMARK                            x       y       z     vdW  Elec       q    Type
REMARK                         _______ _______ _______ _____ _____    ______ ____
ROOT
ATOM      1  C   UNL     1       5.547   5.457  16.158  0.00  0.00    +0.000 A 
ATOM      2  N   UNL     1       5.304   6.759  15.923  0.00  0.00    +0.000 NA
ATOM      3  N   UNL     1       4.297   7.390  16.604  0.00  0.00    +0.000 NA
ATOM      4  C   UNL     1       3.565   6.704  17.510  0.00  0.00    +0.000 A 
ATOM      5  C   UNL     1       3.804   5.324  17.654  0.00  0.00    +0.000 A 
ATOM      6  N   UNL     1       4.821   4.702  16.998  0.00  0.00    +0.000 NA
ENDROOT
BRANCH   5   7
ATOM      7  C   UNL     1       3.046   4.423  18.565  0.00  0.00    +0.000 A 
ATOM      8  C   UNL     1       1.684   4.116  18.349  0.00  0.00    +0.000 A 
ATOM      9  C   UNL     1       0.903   3.540  19.354  0.00  0.00    +0.000 A 
ATOM     10  C   UNL     1       1.500   3.148  20.541  0.00  0.00    +0.000 A 
ATOM     11  F   UNL     1       0.747   2.628  21.518  0.00  0.00    +0.000 F 
ATOM     12  C   UNL     1       2.866   3.306  20.734  0.00  0.00    +0.000 A 
ATOM     13  C   UNL     1       3.634   3.943  19.753  0.00  0.00    +0.000 A 
ENDBRANCH   5   7
BRANCH   4  14
ATOM     14  C   UNL     1       2.629   7.527  18.318  0.00  0.00    +0.000 A 
ATOM     15  C   UNL     1       2.402   7.280  19.685  0.00  0.00    +0.000 A 
ATOM     16  C   UNL     1       1.564   8.112  20.446  0.00  0.00    +0.000 A 
ATOM     17  C   UNL     1       0.983   9.237  19.855  0.00  0.00    +0.000 A 
ATOM     18  C   UNL     1       1.159   9.487  18.502  0.00  0.00    +0.000 A 
ATOM     19  C   UNL     1       1.917   8.601  17.742  0.00  0.00    +0.000 A 
BRANCH  17  20
ATOM     20  S   UNL     1      -0.077  10.317  20.782  0.00  0.00    +0.000 S 
ATOM     21  C   UNL     1       0.906  11.779  20.992  0.00  0.00    +0.000 C 
ATOM     22  O   UNL     1      -1.199  10.656  19.937  0.00  0.00    +0.000 OA
ATOM     23  O   UNL     1      -0.275   9.712  22.088  0.00  0.00    +0.000 OA
ENDBRANCH  17  20
ENDBRANCH   4  14
BRANCH   1  24
ATOM     24  S   UNL     1       6.969   4.719  15.390  0.00  0.00    +0.000 S 
BRANCH  24  25
ATOM     25  C   UNL     1       6.134   3.422  14.421  0.00  0.00    +0.000 C 
BRANCH  25  26
ATOM     26  C   UNL     1       6.089   3.785  12.952  0.00  0.00    +0.000 C 
ATOM     27  O   UNL     1       7.072   4.028  12.256  0.00  0.00    +0.000 OA
BRANCH  26  28
ATOM     28  O   UNL     1       4.804   3.773  12.492  0.00  0.00    +0.000 OA
BRANCH  28  30
ATOM     29  C   UNL     1       3.378   3.370  10.567  0.00  0.00    +0.000 C 
ATOM     30  C   UNL     1       4.578   2.901  11.372  0.00  0.00    +0.000 C 
ENDBRANCH  28  30
ENDBRANCH  26  28
ENDBRANCH  25  26
ENDBRANCH  24  25
ENDBRANCH   1  24
TORSDOF 8
ENDMDL
MODEL 4
REMARK VINA RESULT:      -8.5      0.877      1.351
REMARK  Name = 
REMARK  10 active torsions:
REMARK  status: ('A' for Active; 'I' for Inactive)
REMARK    1  A    between atoms: C_1  and  C_2
REMARK    2  A    between atoms: C_2  and  O_3
REMARK    3  A    between atoms: O_3  and  C_4
REMARK    4  A    between atoms: C_4  and  C_6
REMARK    5  A    between atoms: C_6  and  S_7
REMARK    6  A    between atoms: S_7  and  C_8
REMARK    7  A    between atoms: C_11  and  C_12
REMARK    8  A    between atoms: C_15  and  S_16
REMARK    9  A    between atoms: S_16  and  C_17
REMARK   10  A    between atoms: C_22  and  C_23
REMARK                            x       y       z     vdW  Elec       q    Type
REMARK                         _______ _______ _______ _____ _____    ______ ____
ROOT
ATOM      1  C   UNL     1       5.656   5.201  16.346  0.00  0.00    +0.000 A 
ATOM      2  N   UNL     1       5.485   6.507  16.073  0.00  0.00    +0.000 NA
ATOM      3  N   UNL     1       4.496   7.206  16.713  0.00  0.00    +0.000 NA
ATOM      4  C   UNL     1       3.709   6.581  17.617  0.00  0.00    +0.000 A 
ATOM      5  C   UNL     1       3.874   5.196  17.802  0.00  0.00    +0.000 A 
ATOM      6  N   UNL     1       4.872   4.506  17.186  0.00  0.00    +0.000 NA
ENDROOT
BRANCH   5   7
ATOM      7  C   UNL     1       3.050   4.358  18.715  0.00  0.00    +0.000 A 
ATOM      8  C   UNL     1       1.661   4.184  18.521  0.00  0.00    +0.000 A 
ATOM      9  C   UNL     1       0.846   3.672  19.534  0.00  0.00    +0.000 A 
ATOM     10  C   UNL     1       1.424   3.208  20.705  0.00  0.00    +0.000 A 
ATOM     11  F   UNL     1       0.642   2.749  21.689  0.00  0.00    +0.000 F 
ATOM     12  C   UNL     1       2.802   3.232  20.873  0.00  0.00    +0.000 A 
ATOM     13  C   UNL     1       3.610   3.808  19.886  0.00  0.00    +0.000 A 
ENDBRANCH   5   7
BRANCH   4  14
ATOM     14  C   UNL     1       2.798   7.472  18.382  0.00  0.00    +0.000 A 
ATOM     15  C   UNL     1       2.164   8.581  17.789  0.00  0.00    +0.000 A 
ATOM     16  C   UNL     1       1.255   9.371  18.513  0.00  0.00    +0.000 A 
ATOM     17  C   UNL     1       0.929   9.025  19.827  0.00  0.00    +0.000 A 
ATOM     18  C   UNL     1       1.564   7.959  20.449  0.00  0.00    +0.000 A 
ATOM     19  C   UNL     1       2.530   7.244  19.748  0.00  0.00    +0.000 A 
BRANCH  17  20
ATOM     20  S   UNL     1      -0.218   9.993  20.774  0.00  0.00    +0.000 S 
ATOM     21  C   UNL     1       0.711  11.445  21.187  0.00  0.00    +0.000 C 
ATOM     22  O   UNL     1      -1.288  10.389  19.887  0.00  0.00    +0.000 OA
ATOM     23  O   UNL     1      -0.490   9.263  22.001  0.00  0.00    +0.000 OA
ENDBRANCH  17  20
ENDBRANCH   4  14
BRANCH   1  24
ATOM     24  S   UNL     1       7.055   4.372  15.632  0.00  0.00    +0.000 S 
BRANCH  24  25
ATOM     25  C   UNL     1       6.290   3.794  14.083  0.00  0.00    +0.000 C 
BRANCH  25  26
ATOM     26  C   UNL     1       6.961   4.421  12.878  0.00  0.00    +0.000 C 
ATOM     27  O   UNL     1       7.738   5.372  12.920  0.00  0.00    +0.000 OA
BRANCH  26  28
ATOM     28  O   UNL     1       6.612   3.761  11.736  0.00  0.00    +0.000 OA
BRANCH  28  30
ATOM     29  C   UNL     1       4.291   3.218  11.263  0.00  0.00    +0.000 C 
ATOM     30  C   UNL     1       5.590   2.765  11.908  0.00  0.00    +0.000 C 
ENDBRANCH  28  30
ENDBRANCH  26  28
ENDBRANCH  25  26
ENDBRANCH  24  25
ENDBRANCH   1  24
TORSDOF 8
ENDMDL
MODEL 5
REMARK VINA RESULT:      -8.5      1.219      1.636
REMARK  Name = 
REMARK  10 active torsions:
REMARK  status: ('A' for Active; 'I' for Inactive)
REMARK    1  A    between atoms: C_1  and  C_2
REMARK    2  A    between atoms: C_2  and  O_3
REMARK    3  A    between atoms: O_3  and  C_4
REMARK    4  A    between atoms: C_4  and  C_6
REMARK    5  A    between atoms: C_6  and  S_7
REMARK    6  A    between atoms: S_7  and  C_8
REMARK    7  A    between atoms: C_11  and  C_12
REMARK    8  A    between atoms: C_15  and  S_16
REMARK    9  A    between atoms: S_16  and  C_17
REMARK   10  A    between atoms: C_22  and  C_23
REMARK                            x       y       z     vdW  Elec       q    Type
REMARK                         _______ _______ _______ _____ _____    ______ ____
ROOT
ATOM      1  C   UNL     1       5.374   5.373  17.208  0.00  0.00    +0.000 A 
ATOM      2  N   UNL     1       5.200   6.611  16.713  0.00  0.00    +0.000 NA
ATOM      3  N   UNL     1       4.143   7.368  17.146  0.00  0.00    +0.000 NA
ATOM      4  C   UNL     1       3.292   6.868  18.070  0.00  0.00    +0.000 A 
ATOM      5  C   UNL     1       3.469   5.536  18.490  0.00  0.00    +0.000 A 
ATOM      6  N   UNL     1       4.533   4.793  18.080  0.00  0.00    +0.000 NA
ENDROOT
BRANCH   5   7
ATOM      7  C   UNL     1       2.585   4.826  19.454  0.00  0.00    +0.000 A 
ATOM      8  C   UNL     1       2.898   4.735  20.828  0.00  0.00    +0.000 A 
ATOM      9  C   UNL     1       2.250   3.818  21.660  0.00  0.00    +0.000 A 
ATOM     10  C   UNL     1       1.195   3.072  21.161  0.00  0.00    +0.000 A 
ATOM     11  F   UNL     1       0.596   2.169  21.947  0.00  0.00    +0.000 F 
ATOM     12  C   UNL     1       0.767   3.237  19.850  0.00  0.00    +0.000 A 
ATOM     13  C   UNL     1       1.460   4.106  19.001  0.00  0.00    +0.000 A 
ENDBRANCH   5   7
BRANCH   4  14
ATOM     14  C   UNL     1       2.297   7.836  18.600  0.00  0.00    +0.000 A 
ATOM     15  C   UNL     1       2.010   7.938  19.975  0.00  0.00    +0.000 A 
ATOM     16  C   UNL     1       1.115   8.906  20.460  0.00  0.00    +0.000 A 
ATOM     17  C   UNL     1       0.537   9.821  19.577  0.00  0.00    +0.000 A 
ATOM     18  C   UNL     1       0.773   9.723  18.214  0.00  0.00    +0.000 A 
ATOM     19  C   UNL     1       1.589   8.701  17.739  0.00  0.00    +0.000 A 
BRANCH  17  20
ATOM     20  S   UNL     1      -0.594  11.062  20.152  0.00  0.00    +0.000 S 
ATOM     21  C   UNL     1       0.436  12.490  20.365  0.00  0.00    +0.000 C 
ATOM     22  O   UNL     1      -1.518  11.340  19.076  0.00  0.00    +0.000 OA
ATOM     23  O   UNL     1      -1.067  10.644  21.460  0.00  0.00    +0.000 OA
ENDBRANCH  17  20
ENDBRANCH   4  14
BRANCH   1  24
ATOM     24  S   UNL     1       6.849   4.491  16.758  0.00  0.00    +0.000 S 
BRANCH  24  25
ATOM     25  C   UNL     1       6.195   3.528  15.357  0.00  0.00    +0.000 C 
BRANCH  25  26
ATOM     26  C   UNL     1       6.238   4.334  14.076  0.00  0.00    +0.000 C 
ATOM     27  O   UNL     1       7.137   5.111  13.763  0.00  0.00    +0.000 OA
BRANCH  26  28
ATOM     28  O   UNL     1       5.155   4.053  13.294  0.00  0.00    +0.000 OA
BRANCH  28  30
ATOM     29  C   UNL     1       4.221   3.189  11.225  0.00  0.00    +0.000 C 
ATOM     30  C   UNL     1       5.454   3.307  12.103  0.00  0.00    +0.000 C 
ENDBRANCH  28  30
ENDBRANCH  26  28
ENDBRANCH  25  26
ENDBRANCH  24  25
ENDBRANCH   1  24
TORSDOF 8
ENDMDL
MODEL 6
REMARK VINA RESULT:      -8.3      0.692      1.075
REMARK  Name = 
REMARK  10 active torsions:
REMARK  status: ('A' for Active; 'I' for Inactive)
REMARK    1  A    between atoms: C_1  and  C_2
REMARK    2  A    between atoms: C_2  and  O_3
REMARK    3  A    between atoms: O_3  and  C_4
REMARK    4  A    between atoms: C_4  and  C_6
REMARK    5  A    between atoms: C_6  and  S_7
REMARK    6  A    between atoms: S_7  and  C_8
REMARK    7  A    between atoms: C_11  and  C_12
REMARK    8  A    between atoms: C_15  and  S_16
REMARK    9  A    between atoms: S_16  and  C_17
REMARK   10  A    between atoms: C_22  and  C_23
REMARK                            x       y       z     vdW  Elec       q    Type
REMARK                         _______ _______ _______ _____ _____    ______ ____
ROOT
ATOM      1  C   UNL     1       5.521   4.875  16.240  0.00  0.00    +0.000 A 
ATOM      2  N   UNL     1       5.353   6.173  15.930  0.00  0.00    +0.000 NA
ATOM      3  N   UNL     1       4.398   6.905  16.586  0.00  0.00    +0.000 NA
ATOM      4  C   UNL     1       3.642   6.319  17.542  0.00  0.00    +0.000 A 
ATOM      5  C   UNL     1       3.800   4.939  17.766  0.00  0.00    +0.000 A 
ATOM      6  N   UNL     1       4.765   4.217  17.134  0.00  0.00    +0.000 NA
ENDROOT
BRANCH   5   7
ATOM      7  C   UNL     1       3.005   4.142  18.740  0.00  0.00    +0.000 A 
ATOM      8  C   UNL     1       1.611   3.964  18.599  0.00  0.00    +0.000 A 
ATOM      9  C   UNL     1       0.829   3.496  19.658  0.00  0.00    +0.000 A 
ATOM     10  C   UNL     1       1.444   3.079  20.827  0.00  0.00    +0.000 A 
ATOM     11  F   UNL     1       0.694   2.662  21.855  0.00  0.00    +0.000 F 
ATOM     12  C   UNL     1       2.827   3.106  20.949  0.00  0.00    +0.000 A 
ATOM     13  C   UNL     1       3.602   3.639  19.914  0.00  0.00    +0.000 A 
ENDBRANCH   5   7
BRANCH   4  14
ATOM     14  C   UNL     1       2.772   7.246  18.312  0.00  0.00    +0.000 A 
ATOM     15  C   UNL     1       2.521   7.069  19.686  0.00  0.00    +0.000 A 
ATOM     16  C   UNL     1       1.749   7.995  20.409  0.00  0.00    +0.000 A 
ATOM     17  C   UNL     1       1.263   9.139  19.772  0.00  0.00    +0.000 A 
ATOM     18  C   UNL     1       1.463   9.322  18.411  0.00  0.00    +0.000 A 
ATOM     19  C   UNL     1       2.151   8.350  17.691  0.00  0.00    +0.000 A 
BRANCH  17  20
ATOM     20  S   UNL     1       0.289  10.335  20.650  0.00  0.00    +0.000 S 
ATOM     21  C   UNL     1      -0.187  11.486  19.387  0.00  0.00    +0.000 C 
ATOM     22  O   UNL     1      -0.906   9.667  21.113  0.00  0.00    +0.000 OA
ATOM     23  O   UNL     1       1.175  11.018  21.577  0.00  0.00    +0.000 OA
ENDBRANCH  17  20
ENDBRANCH   4  14
BRANCH   1  24
ATOM     24  S   UNL     1       6.882   4.007  15.499  0.00  0.00    +0.000 S 
BRANCH  24  25
ATOM     25  C   UNL     1       7.168   5.090  14.062  0.00  0.00    +0.000 C 
BRANCH  25  26
ATOM     26  C   UNL     1       6.884   4.359  12.766  0.00  0.00    +0.000 C 
ATOM     27  O   UNL     1       7.413   4.610  11.686  0.00  0.00    +0.000 OA
BRANCH  26  28
ATOM     28  O   UNL     1       5.983   3.355  12.967  0.00  0.00    +0.000 OA
BRANCH  28  30
ATOM     29  C   UNL     1       5.880   1.541  11.354  0.00  0.00    +0.000 C 
ATOM     30  C   UNL     1       5.327   2.892  11.775  0.00  0.00    +0.000 C 
ENDBRANCH  28  30
ENDBRANCH  26  28
ENDBRANCH  25  26
ENDBRANCH  24  25
ENDBRANCH   1  24
TORSDOF 8
ENDMDL
MODEL 7
REMARK VINA RESULT:      -8.2      2.544      3.444
REMARK  Name = 
REMARK  10 active torsions:
REMARK  status: ('A' for Active; 'I' for Inactive)
REMARK    1  A    between atoms: C_1  and  C_2
REMARK    2  A    between atoms: C_2  and  O_3
REMARK    3  A    between atoms: O_3  and  C_4
REMARK    4  A    between atoms: C_4  and  C_6
REMARK    5  A    between atoms: C_6  and  S_7
REMARK    6  A    between atoms: S_7  and  C_8
REMARK    7  A    between atoms: C_11  and  C_12
REMARK    8  A    between atoms: C_15  and  S_16
REMARK    9  A    between atoms: S_16  and  C_17
REMARK   10  A    between atoms: C_22  and  C_23
REMARK                            x       y       z     vdW  Elec       q    Type
REMARK                         _______ _______ _______ _____ _____    ______ ____
ROOT
ATOM      1  C   UNL     1       4.928   5.407  16.753  0.00  0.00    +0.000 A 
ATOM      2  N   UNL     1       4.763   6.694  16.397  0.00  0.00    +0.000 NA
ATOM      3  N   UNL     1       3.831   7.459  17.048  0.00  0.00    +0.000 NA
ATOM      4  C   UNL     1       3.094   6.918  18.043  0.00  0.00    +0.000 A 
ATOM      5  C   UNL     1       3.246   5.546  18.317  0.00  0.00    +0.000 A 
ATOM      6  N   UNL     1       4.189   4.791  17.690  0.00  0.00    +0.000 NA
ENDROOT
BRANCH   5   7
ATOM      7  C   UNL     1       2.469   4.794  19.340  0.00  0.00    +0.000 A 
ATOM      8  C   UNL     1       2.864   4.750  20.696  0.00  0.00    +0.000 A 
ATOM      9  C   UNL     1       2.329   3.806  21.576  0.00  0.00    +0.000 A 
ATOM     10  C   UNL     1       1.302   2.980  21.149  0.00  0.00    +0.000 A 
ATOM     11  F   UNL     1       0.813   2.053  21.981  0.00  0.00    +0.000 F 
ATOM     12  C   UNL     1       0.791   3.092  19.863  0.00  0.00    +0.000 A 
ATOM     13  C   UNL     1       1.373   3.991  18.963  0.00  0.00    +0.000 A 
ENDBRANCH   5   7
BRANCH   4  14
ATOM     14  C   UNL     1       2.251   7.882  18.798  0.00  0.00    +0.000 A 
ATOM     15  C   UNL     1       1.954   7.707  20.163  0.00  0.00    +0.000 A 
ATOM     16  C   UNL     1       1.210   8.665  20.873  0.00  0.00    +0.000 A 
ATOM     17  C   UNL     1       0.801   9.838  20.234  0.00  0.00    +0.000 A 
ATOM     18  C   UNL     1       1.049  10.022  18.882  0.00  0.00    +0.000 A 
ATOM     19  C   UNL     1       1.706   9.022  18.171  0.00  0.00    +0.000 A 
BRANCH  17  20
ATOM     20  S   UNL     1      -0.135  11.075  21.097  0.00  0.00    +0.000 S 
ATOM     21  C   UNL     1      -0.566  10.276  22.621  0.00  0.00    +0.000 C 
ATOM     22  O   UNL     1       0.765  12.163  21.407  0.00  0.00    +0.000 OA
ATOM     23  O   UNL     1      -1.354  11.300  20.341  0.00  0.00    +0.000 OA
ENDBRANCH  17  20
ENDBRANCH   4  14
BRANCH   1  24
ATOM     24  S   UNL     1       6.263   4.498  16.013  0.00  0.00    +0.000 S 
BRANCH  24  25
ATOM     25  C   UNL     1       7.413   4.470  17.425  0.00  0.00    +0.000 C 
BRANCH  25  26
ATOM     26  C   UNL     1       7.255   5.711  18.279  0.00  0.00    +0.000 C 
ATOM     27  O   UNL     1       6.822   5.724  19.429  0.00  0.00    +0.000 OA
BRANCH  26  28
ATOM     28  O   UNL     1       7.694   6.816  17.608  0.00  0.00    +0.000 OA
BRANCH  28  30
ATOM     29  C   UNL     1       8.115   9.191  17.897  0.00  0.00    +0.000 C 
ATOM     30  C   UNL     1       8.358   7.790  18.430  0.00  0.00    +0.000 C 
ENDBRANCH  28  30
ENDBRANCH  26  28
ENDBRANCH  25  26
ENDBRANCH  24  25
ENDBRANCH   1  24
TORSDOF 8
ENDMDL
MODEL 8
REMARK VINA RESULT:      -8.2      1.059      1.740
REMARK  Name = 
REMARK  10 active torsions:
REMARK  status: ('A' for Active; 'I' for Inactive)
REMARK    1  A    between atoms: C_1  and  C_2
REMARK    2  A    between atoms: C_2  and  O_3
REMARK    3  A    between atoms: O_3  and  C_4
REMARK    4  A    between atoms: C_4  and  C_6
REMARK    5  A    between atoms: C_6  and  S_7
REMARK    6  A    between atoms: S_7  and  C_8
REMARK    7  A    between atoms: C_11  and  C_12
REMARK    8  A    between atoms: C_15  and  S_16
REMARK    9  A    between atoms: S_16  and  C_17
REMARK   10  A    between atoms: C_22  and  C_23
REMARK                            x       y       z     vdW  Elec       q    Type
REMARK                         _______ _______ _______ _____ _____    ______ ____
ROOT
ATOM      1  C   UNL     1       4.988   4.927  16.707  0.00  0.00    +0.000 A 
ATOM      2  N   UNL     1       4.879   6.185  16.244  0.00  0.00    +0.000 NA
ATOM      3  N   UNL     1       3.983   7.043  16.825  0.00  0.00    +0.000 NA
ATOM      4  C   UNL     1       3.225   6.621  17.862  0.00  0.00    +0.000 A 
ATOM      5  C   UNL     1       3.316   5.272  18.250  0.00  0.00    +0.000 A 
ATOM      6  N   UNL     1       4.223   4.426  17.691  0.00  0.00    +0.000 NA
ENDROOT
BRANCH   5   7
ATOM      7  C   UNL     1       2.508   4.644  19.331  0.00  0.00    +0.000 A 
ATOM      8  C   UNL     1       2.919   4.669  20.682  0.00  0.00    +0.000 A 
ATOM      9  C   UNL     1       2.338   3.825  21.632  0.00  0.00    +0.000 A 
ATOM     10  C   UNL     1       1.255   3.039  21.274  0.00  0.00    +0.000 A 
ATOM     11  F   UNL     1       0.720   2.205  22.174  0.00  0.00    +0.000 F 
ATOM     12  C   UNL     1       0.733   3.094  19.989  0.00  0.00    +0.000 A 
ATOM     13  C   UNL     1       1.358   3.889  19.022  0.00  0.00    +0.000 A 
ENDBRANCH   5   7
BRANCH   4  14
ATOM     14  C   UNL     1       2.427   7.682  18.531  0.00  0.00    +0.000 A 
ATOM     15  C   UNL     1       1.929   8.798  17.831  0.00  0.00    +0.000 A 
ATOM     16  C   UNL     1       1.121   9.754  18.470  0.00  0.00    +0.000 A 
ATOM     17  C   UNL     1       0.758   9.573  19.807  0.00  0.00    +0.000 A 
ATOM     18  C   UNL     1       1.262   8.503  20.531  0.00  0.00    +0.000 A 
ATOM     19  C   UNL     1       2.136   7.616  19.910  0.00  0.00    +0.000 A 
BRANCH  17  20
ATOM     20  S   UNL     1      -0.265  10.755  20.648  0.00  0.00    +0.000 S 
ATOM     21  C   UNL     1       0.819  12.136  20.895  0.00  0.00    +0.000 C 
ATOM     22  O   UNL     1      -1.301  11.165  19.728  0.00  0.00    +0.000 OA
ATOM     23  O   UNL     1      -0.592  10.196  21.948  0.00  0.00    +0.000 OA
ENDBRANCH  17  20
ENDBRANCH   4  14
BRANCH   1  24
ATOM     24  S   UNL     1       6.279   3.900  16.048  0.00  0.00    +0.000 S 
BRANCH  24  25
ATOM     25  C   UNL     1       7.260   5.179  15.198  0.00  0.00    +0.000 C 
BRANCH  25  26
ATOM     26  C   UNL     1       7.292   4.935  13.704  0.00  0.00    +0.000 C 
ATOM     27  O   UNL     1       8.010   5.535  12.908  0.00  0.00    +0.000 OA
BRANCH  26  28
ATOM     28  O   UNL     1       6.436   3.928  13.362  0.00  0.00    +0.000 OA
BRANCH  28  30
ATOM     29  C   UNL     1       6.022   2.158  11.751  0.00  0.00    +0.000 C 
ATOM     30  C   UNL     1       6.418   3.609  11.961  0.00  0.00    +0.000 C 
ENDBRANCH  28  30
ENDBRANCH  26  28
ENDBRANCH  25  26
ENDBRANCH  24  25
ENDBRANCH   1  24
TORSDOF 8
ENDMDL
MODEL 9
REMARK VINA RESULT:      -8.2      2.547      3.589
REMARK  Name = 
REMARK  10 active torsions:
REMARK  status: ('A' for Active; 'I' for Inactive)
REMARK    1  A    between atoms: C_1  and  C_2
REMARK    2  A    between atoms: C_2  and  O_3
REMARK    3  A    between atoms: O_3  and  C_4
REMARK    4  A    between atoms: C_4  and  C_6
REMARK    5  A    between atoms: C_6  and  S_7
REMARK    6  A    between atoms: S_7  and  C_8
REMARK    7  A    between atoms: C_11  and  C_12
REMARK    8  A    between atoms: C_15  and  S_16
REMARK    9  A    between atoms: S_16  and  C_17
REMARK   10  A    between atoms: C_22  and  C_23
REMARK                            x       y       z     vdW  Elec       q    Type
REMARK                         _______ _______ _______ _____ _____    ______ ____
ROOT
ATOM      1  C   UNL     1       4.972   5.546  16.511  0.00  0.00    +0.000 A 
ATOM      2  N   UNL     1       4.800   6.817  16.107  0.00  0.00    +0.000 NA
ATOM      3  N   UNL     1       3.855   7.597  16.721  0.00  0.00    +0.000 NA
ATOM      4  C   UNL     1       3.114   7.086  17.730  0.00  0.00    +0.000 A 
ATOM      5  C   UNL     1       3.275   5.726  18.054  0.00  0.00    +0.000 A 
ATOM      6  N   UNL     1       4.230   4.958  17.463  0.00  0.00    +0.000 NA
ENDROOT
BRANCH   5   7
ATOM      7  C   UNL     1       2.495   5.005  19.097  0.00  0.00    +0.000 A 
ATOM      8  C   UNL     1       2.863   5.036  20.461  0.00  0.00    +0.000 A 
ATOM      9  C   UNL     1       2.333   4.123  21.376  0.00  0.00    +0.000 A 
ATOM     10  C   UNL     1       1.336   3.252  20.969  0.00  0.00    +0.000 A 
ATOM     11  F   UNL     1       0.851   2.354  21.835  0.00  0.00    +0.000 F 
ATOM     12  C   UNL     1       0.849   3.289  19.669  0.00  0.00    +0.000 A 
ATOM     13  C   UNL     1       1.428   4.157  18.738  0.00  0.00    +0.000 A 
ENDBRANCH   5   7
BRANCH   4  14
ATOM     14  C   UNL     1       2.257   8.069  18.441  0.00  0.00    +0.000 A 
ATOM     15  C   UNL     1       1.618   9.130  17.771  0.00  0.00    +0.000 A 
ATOM     16  C   UNL     1       0.759  10.008  18.452  0.00  0.00    +0.000 A 
ATOM     17  C   UNL     1       0.487   9.800  19.807  0.00  0.00    +0.000 A 
ATOM     18  C   UNL     1       1.128   8.785  20.502  0.00  0.00    +0.000 A 
ATOM     19  C   UNL     1       2.047   7.982  19.834  0.00  0.00    +0.000 A 
BRANCH  17  20
ATOM     20  S   UNL     1      -0.597  10.883  20.703  0.00  0.00    +0.000 S 
ATOM     21  C   UNL     1       0.433  12.276  21.081  0.00  0.00    +0.000 C 
ATOM     22  O   UNL     1      -1.623  11.326  19.786  0.00  0.00    +0.000 OA
ATOM     23  O   UNL     1      -0.938  10.219  21.949  0.00  0.00    +0.000 OA
ENDBRANCH  17  20
ENDBRANCH   4  14
BRANCH   1  24
ATOM     24  S   UNL     1       6.321   4.622  15.815  0.00  0.00    +0.000 S 
BRANCH  24  25
ATOM     25  C   UNL     1       7.330   4.407  17.318  0.00  0.00    +0.000 C 
BRANCH  25  26
ATOM     26  C   UNL     1       7.411   5.696  18.106  0.00  0.00    +0.000 C 
ATOM     27  O   UNL     1       7.026   5.840  19.264  0.00  0.00    +0.000 OA
BRANCH  26  28
ATOM     28  O   UNL     1       8.006   6.677  17.366  0.00  0.00    +0.000 OA
BRANCH  28  30
ATOM     29  C   UNL     1       8.469   8.928  18.155  0.00  0.00    +0.000 C 
ATOM     30  C   UNL     1       7.444   7.987  17.545  0.00  0.00    +0.000 C 
ENDBRANCH  28  30
ENDBRANCH  26  28
ENDBRANCH  25  26
ENDBRANCH  24  25
ENDBRANCH   1  24
TORSDOF 8
ENDMDL
