MODEL 1
REMARK VINA RESULT:      -7.3      0.000      0.000
REMARK  Name = 
REMARK  8 active torsions:
REMARK  status: ('A' for Active; 'I' for Inactive)
REMARK    1  A    between atoms: C_1  and  C_2
REMARK    2  A    between atoms: C_2  and  C_3
REMARK    3  A    between atoms: C_2  and  N_4
REMARK    4  A    between atoms: N_4  and  C_5
REMARK    5  A    between atoms: N_8  and  C_9
REMARK    6  A    between atoms: C_9  and  C_10
REMARK    7  A    between atoms: C_10  and  O_11
REMARK    8  A    between atoms: C_10  and  C_12
REMARK                            x       y       z     vdW  Elec       q    Type
REMARK                         _______ _______ _______ _____ _____    ______ ____
ROOT
ATOM      1  C   UNL     1       1.591   7.912  19.850  0.00  0.00    +0.000 C 
ENDROOT
BRANCH   1   2
ATOM      2  C   UNL     1       2.328   6.745  19.180  0.00  0.00    +0.000 A 
ATOM      3  C   UNL     1       3.244   7.091  18.163  0.00  0.00    +0.000 A 
ATOM      4  C   UNL     1       4.012   6.124  17.513  0.00  0.00    +0.000 A 
ATOM      5  C   UNL     1       3.881   4.790  17.879  0.00  0.00    +0.000 A 
ATOM      6  C   UNL     1       2.976   4.396  18.874  0.00  0.00    +0.000 A 
ATOM      7  C   UNL     1       2.883   3.033  19.202  0.00  0.00    +0.000 A 
ATOM      8  C   UNL     1       1.993   2.581  20.169  0.00  0.00    +0.000 A 
ATOM      9  C   UNL     1       1.175   3.493  20.820  0.00  0.00    +0.000 A 
ATOM     10  C   UNL     1       1.268   4.857  20.508  0.00  0.00    +0.000 A 
ATOM     11  C   UNL     1       2.171   5.362  19.537  0.00  0.00    +0.000 A 
ENDBRANCH   1   2
BRANCH   1  12
ATOM     12  O   UNL     1       2.065   8.087  21.185  0.00  0.00    +0.000 OA
ATOM     13  H   UNL     1       1.948   7.260  21.672  0.00  0.00    +0.000 HD
ENDBRANCH   1  12
BRANCH   1  14
ATOM     14  C   UNL     1       1.652   9.211  18.988  0.00  0.00    +0.000 C 
BRANCH  14  18
ATOM     15  C   UNL     1      -1.258  12.391  18.704  0.00  0.00    +0.000 C 
ATOM     16  C   UNL     1       0.229  12.762  18.767  0.00  0.00    +0.000 C 
ATOM     17  C   UNL     1       1.159  11.566  18.547  0.00  0.00    +0.000 C 
ATOM     18  N   UNL     1       0.888  10.416  19.430  0.00  0.00    +0.000 NA
ATOM     19  C   UNL     1      -0.548  10.063  19.425  0.00  0.00    +0.000 C 
ATOM     20  C   UNL     1      -1.476  11.245  19.696  0.00  0.00    +0.000 C 
BRANCH  15  21
ATOM     21  N   UNL     1      -1.663  12.107  17.311  0.00  0.00    +0.000 NA
ATOM     22  H   UNL     1      -1.952  12.979  16.867  0.00  0.00    +0.000 HD
BRANCH  21  24
ATOM     23  C   UNL     1      -4.143  11.670  17.335  0.00  0.00    +0.000 C 
ATOM     24  C   UNL     1      -2.731  11.106  17.149  0.00  0.00    +0.000 C 
ATOM     25  C   UNL     1      -2.632  10.490  15.747  0.00  0.00    +0.000 C 
ENDBRANCH  21  24
ENDBRANCH  15  21
ENDBRANCH  14  18
ENDBRANCH   1  14
TORSDOF 6
ENDMDL
MODEL 2
REMARK VINA RESULT:      -7.3      2.500      8.091
REMARK  Name = 
REMARK  8 active torsions:
REMARK  status: ('A' for Active; 'I' for Inactive)
REMARK    1  A    between atoms: C_1  and  C_2
REMARK    2  A    between atoms: C_2  and  C_3
REMARK    3  A    between atoms: C_2  and  N_4
REMARK    4  A    between atoms: N_4  and  C_5
REMARK    5  A    between atoms: N_8  and  C_9
REMARK    6  A    between atoms: C_9  and  C_10
REMARK    7  A    between atoms: C_10  and  O_11
REMARK    8  A    between atoms: C_10  and  C_12
REMARK                            x       y       z     vdW  Elec       q    Type
REMARK                         _______ _______ _______ _____ _____    ______ ____
ROOT
ATOM      1  C   UNL     1       1.234   9.322  17.952  0.00  0.00    +0.000 C 
ENDROOT
BRANCH   1   2
ATOM      2  C   UNL     1       0.182  10.149  18.702  0.00  0.00    +0.000 A 
ATOM      3  C   UNL     1       0.592  10.707  19.932  0.00  0.00    +0.000 A 
ATOM      4  C   UNL     1      -0.259  11.521  20.683  0.00  0.00    +0.000 A 
ATOM      5  C   UNL     1      -1.535  11.796  20.207  0.00  0.00    +0.000 A 
ATOM      6  C   UNL     1      -1.991  11.255  18.998  0.00  0.00    +0.000 A 
ATOM      7  C   UNL     1      -3.292  11.564  18.567  0.00  0.00    +0.000 A 
ATOM      8  C   UNL     1      -3.804  11.044  17.384  0.00  0.00    +0.000 A 
ATOM      9  C   UNL     1      -3.018  10.197  16.616  0.00  0.00    +0.000 A 
ATOM     10  C   UNL     1      -1.715   9.891  17.032  0.00  0.00    +0.000 A 
ATOM     11  C   UNL     1      -1.148  10.409  18.225  0.00  0.00    +0.000 A 
ENDBRANCH   1   2
BRANCH   1  12
ATOM     12  O   UNL     1       2.140  10.188  17.269  0.00  0.00    +0.000 OA
ATOM     13  H   UNL     1       2.984  10.195  17.738  0.00  0.00    +0.000 HD
ENDBRANCH   1  12
BRANCH   1  14
ATOM     14  C   UNL     1       1.938   8.291  18.888  0.00  0.00    +0.000 C 
BRANCH  14  18
ATOM     15  C   UNL     1       4.834   5.142  18.289  0.00  0.00    +0.000 C 
ATOM     16  C   UNL     1       4.517   6.078  17.116  0.00  0.00    +0.000 C 
ATOM     17  C   UNL     1       3.732   7.324  17.534  0.00  0.00    +0.000 C 
ATOM     18  N   UNL     1       2.504   7.039  18.299  0.00  0.00    +0.000 NA
ATOM     19  C   UNL     1       2.769   6.102  19.412  0.00  0.00    +0.000 C 
ATOM     20  C   UNL     1       3.506   4.833  18.987  0.00  0.00    +0.000 C 
BRANCH  15  21
ATOM     21  N   UNL     1       5.881   5.726  19.153  0.00  0.00    +0.000 NA
ATOM     22  H   UNL     1       5.703   6.725  19.258  0.00  0.00    +0.000 HD
BRANCH  21  24
ATOM     23  C   UNL     1       7.400   4.561  17.519  0.00  0.00    +0.000 C 
ATOM     24  C   UNL     1       7.268   5.528  18.699  0.00  0.00    +0.000 C 
ATOM     25  C   UNL     1       7.860   6.883  18.289  0.00  0.00    +0.000 C 
ENDBRANCH  21  24
ENDBRANCH  15  21
ENDBRANCH  14  18
ENDBRANCH   1  14
TORSDOF 6
ENDMDL
MODEL 3
REMARK VINA RESULT:      -7.2      1.993      3.140
REMARK  Name = 
REMARK  8 active torsions:
REMARK  status: ('A' for Active; 'I' for Inactive)
REMARK    1  A    between atoms: C_1  and  C_2
REMARK    2  A    between atoms: C_2  and  C_3
REMARK    3  A    between atoms: C_2  and  N_4
REMARK    4  A    between atoms: N_4  and  C_5
REMARK    5  A    between atoms: N_8  and  C_9
REMARK    6  A    between atoms: C_9  and  C_10
REMARK    7  A    between atoms: C_10  and  O_11
REMARK    8  A    between atoms: C_10  and  C_12
REMARK                            x       y       z     vdW  Elec       q    Type
REMARK                         _______ _______ _______ _____ _____    ______ ____
ROOT
ATOM      1  C   UNL     1       2.202   7.315  18.713  0.00  0.00    +0.000 C 
ENDROOT
BRANCH   1   2
ATOM      2  C   UNL     1       2.921   6.121  18.073  0.00  0.00    +0.000 A 
ATOM      3  C   UNL     1       4.074   6.423  17.316  0.00  0.00    +0.000 A 
ATOM      4  C   UNL     1       4.842   5.418  16.725  0.00  0.00    +0.000 A 
ATOM      5  C   UNL     1       4.472   4.089  16.892  0.00  0.00    +0.000 A 
ATOM      6  C   UNL     1       3.329   3.741  17.624  0.00  0.00    +0.000 A 
ATOM      7  C   UNL     1       3.000   2.381  17.758  0.00  0.00    +0.000 A 
ATOM      8  C   UNL     1       1.870   1.976  18.459  0.00  0.00    +0.000 A 
ATOM      9  C   UNL     1       1.046   2.934  19.032  0.00  0.00    +0.000 A 
ATOM     10  C   UNL     1       1.372   4.292  18.914  0.00  0.00    +0.000 A 
ATOM     11  C   UNL     1       2.521   4.748  18.219  0.00  0.00    +0.000 A 
ENDBRANCH   1   2
BRANCH   1  12
ATOM     12  O   UNL     1       2.572   7.428  20.087  0.00  0.00    +0.000 OA
ATOM     13  H   UNL     1       3.529   7.318  20.166  0.00  0.00    +0.000 HD
ENDBRANCH   1  12
BRANCH   1  14
ATOM     14  C   UNL     1       2.414   8.628  17.896  0.00  0.00    +0.000 C 
BRANCH  14  18
ATOM     15  C   UNL     1       0.064  11.639  19.914  0.00  0.00    +0.000 C 
ATOM     16  C   UNL     1      -0.665  10.464  19.251  0.00  0.00    +0.000 C 
ATOM     17  C   UNL     1       0.271   9.319  18.854  0.00  0.00    +0.000 C 
ATOM     18  N   UNL     1       1.418   9.735  18.024  0.00  0.00    +0.000 NA
ATOM     19  C   UNL     1       2.116  10.897  18.616  0.00  0.00    +0.000 C 
ATOM     20  C   UNL     1       1.190  12.060  18.964  0.00  0.00    +0.000 C 
BRANCH  15  21
ATOM     21  N   UNL     1       0.493  11.280  21.282  0.00  0.00    +0.000 NA
ATOM     22  H   UNL     1       1.280  10.634  21.223  0.00  0.00    +0.000 HD
BRANCH  21  24
ATOM     23  C   UNL     1      -0.022   9.648  23.129  0.00  0.00    +0.000 C 
ATOM     24  C   UNL     1      -0.548  10.697  22.145  0.00  0.00    +0.000 C 
ATOM     25  C   UNL     1      -1.224  11.819  22.945  0.00  0.00    +0.000 C 
ENDBRANCH  21  24
ENDBRANCH  15  21
ENDBRANCH  14  18
ENDBRANCH   1  14
TORSDOF 6
ENDMDL
MODEL 4
REMARK VINA RESULT:      -7.1      2.510      4.096
REMARK  Name = 
REMARK  8 active torsions:
REMARK  status: ('A' for Active; 'I' for Inactive)
REMARK    1  A    between atoms: C_1  and  C_2
REMARK    2  A    between atoms: C_2  and  C_3
REMARK    3  A    between atoms: C_2  and  N_4
REMARK    4  A    between atoms: N_4  and  C_5
REMARK    5  A    between atoms: N_8  and  C_9
REMARK    6  A    between atoms: C_9  and  C_10
REMARK    7  A    between atoms: C_10  and  O_11
REMARK    8  A    between atoms: C_10  and  C_12
REMARK                            x       y       z     vdW  Elec       q    Type
REMARK                         _______ _______ _______ _____ _____    ______ ____
ROOT
ATOM      1  C   UNL     1       2.891   5.380  18.157  0.00  0.00    +0.000 C 
ENDROOT
BRANCH   1   2
ATOM      2  C   UNL     1       4.421   5.289  18.092  0.00  0.00    +0.000 A 
ATOM      3  C   UNL     1       5.108   5.488  19.310  0.00  0.00    +0.000 A 
ATOM      4  C   UNL     1       6.497   5.382  19.390  0.00  0.00    +0.000 A 
ATOM      5  C   UNL     1       7.223   5.063  18.249  0.00  0.00    +0.000 A 
ATOM      6  C   UNL     1       6.589   4.868  17.015  0.00  0.00    +0.000 A 
ATOM      7  C   UNL     1       7.373   4.551  15.893  0.00  0.00    +0.000 A 
ATOM      8  C   UNL     1       6.800   4.361  14.641  0.00  0.00    +0.000 A 
ATOM      9  C   UNL     1       5.427   4.495  14.493  0.00  0.00    +0.000 A 
ATOM     10  C   UNL     1       4.635   4.800  15.608  0.00  0.00    +0.000 A 
ATOM     11  C   UNL     1       5.176   4.989  16.906  0.00  0.00    +0.000 A 
ENDBRANCH   1   2
BRANCH   1  12
ATOM     12  O   UNL     1       2.322   4.072  18.099  0.00  0.00    +0.000 OA
ATOM     13  H   UNL     1       1.404   4.115  18.398  0.00  0.00    +0.000 HD
ENDBRANCH   1  12
BRANCH   1  14
ATOM     14  C   UNL     1       2.410   6.221  19.380  0.00  0.00    +0.000 C 
BRANCH  14  18
ATOM     15  C   UNL     1       0.926  10.178  18.486  0.00  0.00    +0.000 C 
ATOM     16  C   UNL     1       2.154   9.668  17.723  0.00  0.00    +0.000 C 
ATOM     17  C   UNL     1       2.388   8.164  17.893  0.00  0.00    +0.000 C 
ATOM     18  N   UNL     1       2.441   7.712  19.296  0.00  0.00    +0.000 NA
ATOM     19  C   UNL     1       1.291   8.228  20.070  0.00  0.00    +0.000 C 
ATOM     20  C   UNL     1       1.088   9.736  19.944  0.00  0.00    +0.000 C 
BRANCH  15  21
ATOM     21  N   UNL     1      -0.319   9.732  17.826  0.00  0.00    +0.000 NA
ATOM     22  H   UNL     1      -0.225   9.868  16.819  0.00  0.00    +0.000 HD
BRANCH  21  24
ATOM     23  C   UNL     1      -1.540  11.910  18.153  0.00  0.00    +0.000 C 
ATOM     24  C   UNL     1      -1.555  10.384  18.289  0.00  0.00    +0.000 C 
ATOM     25  C   UNL     1      -2.742   9.835  17.485  0.00  0.00    +0.000 C 
ENDBRANCH  21  24
ENDBRANCH  15  21
ENDBRANCH  14  18
ENDBRANCH   1  14
TORSDOF 6
ENDMDL
MODEL 5
REMARK VINA RESULT:      -7.1      3.398      7.893
REMARK  Name = 
REMARK  8 active torsions:
REMARK  status: ('A' for Active; 'I' for Inactive)
REMARK    1  A    between atoms: C_1  and  C_2
REMARK    2  A    between atoms: C_2  and  C_3
REMARK    3  A    between atoms: C_2  and  N_4
REMARK    4  A    between atoms: N_4  and  C_5
REMARK    5  A    between atoms: N_8  and  C_9
REMARK    6  A    between atoms: C_9  and  C_10
REMARK    7  A    between atoms: C_10  and  O_11
REMARK    8  A    between atoms: C_10  and  C_12
REMARK                            x       y       z     vdW  Elec       q    Type
REMARK                         _______ _______ _______ _____ _____    ______ ____
ROOT
ATOM      1  C   UNL     1       2.527   7.255  19.476  0.00  0.00    +0.000 C 
ENDROOT
BRANCH   1   2
ATOM      2  C   UNL     1       1.575   8.454  19.391  0.00  0.00    +0.000 A 
ATOM      3  C   UNL     1       1.302   8.941  18.094  0.00  0.00    +0.000 A 
ATOM      4  C   UNL     1       0.412   9.996  17.883  0.00  0.00    +0.000 A 
ATOM      5  C   UNL     1      -0.227  10.577  18.971  0.00  0.00    +0.000 A 
ATOM      6  C   UNL     1       0.020  10.137  20.278  0.00  0.00    +0.000 A 
ATOM      7  C   UNL     1      -0.652  10.763  21.342  0.00  0.00    +0.000 A 
ATOM      8  C   UNL     1      -0.435  10.380  22.660  0.00  0.00    +0.000 A 
ATOM      9  C   UNL     1       0.469   9.364  22.933  0.00  0.00    +0.000 A 
ATOM     10  C   UNL     1       1.137   8.725  21.879  0.00  0.00    +0.000 A 
ATOM     11  C   UNL     1       0.936   9.076  20.519  0.00  0.00    +0.000 A 
ENDBRANCH   1   2
BRANCH   1  12
ATOM     12  O   UNL     1       1.851   6.135  20.048  0.00  0.00    +0.000 OA
ATOM     13  H   UNL     1       2.038   5.350  19.516  0.00  0.00    +0.000 HD
ENDBRANCH   1  12
BRANCH   1  14
ATOM     14  C   UNL     1       3.199   6.948  18.102  0.00  0.00    +0.000 C 
BRANCH  14  18
ATOM     15  C   UNL     1       5.917   4.199  16.175  0.00  0.00    +0.000 C 
ATOM     16  C   UNL     1       4.723   3.626  16.947  0.00  0.00    +0.000 C 
ATOM     17  C   UNL     1       3.675   4.683  17.308  0.00  0.00    +0.000 C 
ATOM     18  N   UNL     1       4.218   5.858  18.015  0.00  0.00    +0.000 NA
ATOM     19  C   UNL     1       5.401   6.406  17.317  0.00  0.00    +0.000 C 
ATOM     20  C   UNL     1       6.470   5.363  17.003  0.00  0.00    +0.000 C 
BRANCH  15  21
ATOM     21  N   UNL     1       5.527   4.539  14.790  0.00  0.00    +0.000 NA
ATOM     22  H   UNL     1       4.553   4.272  14.647  0.00  0.00    +0.000 HD
BRANCH  21  24
ATOM     23  C   UNL     1       5.550   3.446  12.522  0.00  0.00    +0.000 C 
ATOM     24  C   UNL     1       6.354   3.940  13.729  0.00  0.00    +0.000 C 
ATOM     25  C   UNL     1       7.375   4.978  13.243  0.00  0.00    +0.000 C 
ENDBRANCH  21  24
ENDBRANCH  15  21
ENDBRANCH  14  18
ENDBRANCH   1  14
TORSDOF 6
ENDMDL
MODEL 6
REMARK VINA RESULT:      -7.0      1.510      2.598
REMARK  Name = 
REMARK  8 active torsions:
REMARK  status: ('A' for Active; 'I' for Inactive)
REMARK    1  A    between atoms: C_1  and  C_2
REMARK    2  A    between atoms: C_2  and  C_3
REMARK    3  A    between atoms: C_2  and  N_4
REMARK    4  A    between atoms: N_4  and  C_5
REMARK    5  A    between atoms: N_8  and  C_9
REMARK    6  A    between atoms: C_9  and  C_10
REMARK    7  A    between atoms: C_10  and  O_11
REMARK    8  A    between atoms: C_10  and  C_12
REMARK                            x       y       z     vdW  Elec       q    Type
REMARK                         _______ _______ _______ _____ _____    ______ ____
ROOT
ATOM      1  C   UNL     1       1.843   7.404  19.401  0.00  0.00    +0.000 C 
ENDROOT
BRANCH   1   2
ATOM      2  C   UNL     1       2.724   6.567  18.466  0.00  0.00    +0.000 A 
ATOM      3  C   UNL     1       3.733   7.269  17.770  0.00  0.00    +0.000 A 
ATOM      4  C   UNL     1       4.631   6.611  16.927  0.00  0.00    +0.000 A 
ATOM      5  C   UNL     1       4.538   5.234  16.775  0.00  0.00    +0.000 A 
ATOM      6  C   UNL     1       3.547   4.495  17.434  0.00  0.00    +0.000 A 
ATOM      7  C   UNL     1       3.497   3.104  17.241  0.00  0.00    +0.000 A 
ATOM      8  C   UNL     1       2.527   2.322  17.856  0.00  0.00    +0.000 A 
ATOM      9  C   UNL     1       1.583   2.928  18.673  0.00  0.00    +0.000 A 
ATOM     10  C   UNL     1       1.630   4.313  18.881  0.00  0.00    +0.000 A 
ATOM     11  C   UNL     1       2.610   5.147  18.284  0.00  0.00    +0.000 A 
ENDBRANCH   1   2
BRANCH   1  12
ATOM     12  O   UNL     1       2.299   7.274  20.748  0.00  0.00    +0.000 OA
ATOM     13  H   UNL     1       3.265   7.313  20.758  0.00  0.00    +0.000 HD
ENDBRANCH   1  12
BRANCH   1  14
ATOM     14  C   UNL     1       1.723   8.883  18.920  0.00  0.00    +0.000 C 
BRANCH  14  18
ATOM     15  C   UNL     1      -0.973  12.258  18.881  0.00  0.00    +0.000 C 
ATOM     16  C   UNL     1      -0.328  11.852  20.212  0.00  0.00    +0.000 C 
ATOM     17  C   UNL     1       0.830  10.864  20.044  0.00  0.00    +0.000 C 
ATOM     18  N   UNL     1       0.493   9.662  19.258  0.00  0.00    +0.000 NA
ATOM     19  C   UNL     1      -0.172  10.022  17.986  0.00  0.00    +0.000 C 
ATOM     20  C   UNL     1      -1.360  10.965  18.157  0.00  0.00    +0.000 C 
BRANCH  15  21
ATOM     21  N   UNL     1      -0.080  13.162  18.126  0.00  0.00    +0.000 NA
ATOM     22  H   UNL     1       0.627  12.604  17.647  0.00  0.00    +0.000 HD
BRANCH  21  24
ATOM     23  C   UNL     1       2.035  14.476  18.499  0.00  0.00    +0.000 C 
ATOM     24  C   UNL     1       0.585  14.211  18.917  0.00  0.00    +0.000 C 
ATOM     25  C   UNL     1      -0.208  15.518  18.784  0.00  0.00    +0.000 C 
ENDBRANCH  21  24
ENDBRANCH  15  21
ENDBRANCH  14  18
ENDBRANCH   1  14
TORSDOF 6
ENDMDL
MODEL 7
REMARK VINA RESULT:      -7.0      3.366      7.639
REMARK  Name = 
REMARK  8 active torsions:
REMARK  status: ('A' for Active; 'I' for Inactive)
REMARK    1  A    between atoms: C_1  and  C_2
REMARK    2  A    between atoms: C_2  and  C_3
REMARK    3  A    between atoms: C_2  and  N_4
REMARK    4  A    between atoms: N_4  and  C_5
REMARK    5  A    between atoms: N_8  and  C_9
REMARK    6  A    between atoms: C_9  and  C_10
REMARK    7  A    between atoms: C_10  and  O_11
REMARK    8  A    between atoms: C_10  and  C_12
REMARK                            x       y       z     vdW  Elec       q    Type
REMARK                         _______ _______ _______ _____ _____    ______ ____
ROOT
ATOM      1  C   UNL     1       2.562   6.228  20.042  0.00  0.00    +0.000 C 
ENDROOT
BRANCH   1   2
ATOM      2  C   UNL     1       1.987   7.572  19.580  0.00  0.00    +0.000 A 
ATOM      3  C   UNL     1       2.104   7.857  18.202  0.00  0.00    +0.000 A 
ATOM      4  C   UNL     1       1.576   9.026  17.651  0.00  0.00    +0.000 A 
ATOM      5  C   UNL     1       0.911   9.927  18.473  0.00  0.00    +0.000 A 
ATOM      6  C   UNL     1       0.780   9.695  19.848  0.00  0.00    +0.000 A 
ATOM      7  C   UNL     1       0.101  10.642  20.633  0.00  0.00    +0.000 A 
ATOM      8  C   UNL     1      -0.047  10.473  22.005  0.00  0.00    +0.000 A 
ATOM      9  C   UNL     1       0.494   9.350  22.614  0.00  0.00    +0.000 A 
ATOM     10  C   UNL     1       1.164   8.393  21.838  0.00  0.00    +0.000 A 
ATOM     11  C   UNL     1       1.326   8.520  20.435  0.00  0.00    +0.000 A 
ENDBRANCH   1   2
BRANCH   1  12
ATOM     12  O   UNL     1       1.508   5.371  20.481  0.00  0.00    +0.000 OA
ATOM     13  H   UNL     1       1.071   5.774  21.243  0.00  0.00    +0.000 HD
ENDBRANCH   1  12
BRANCH   1  14
ATOM     14  C   UNL     1       3.483   5.585  18.959  0.00  0.00    +0.000 C 
BRANCH  14  18
ATOM     15  C   UNL     1       7.443   5.832  17.250  0.00  0.00    +0.000 C 
ATOM     16  C   UNL     1       7.299   5.340  18.695  0.00  0.00    +0.000 C 
ATOM     17  C   UNL     1       5.855   4.998  19.075  0.00  0.00    +0.000 C 
ATOM     18  N   UNL     1       4.886   6.078  18.810  0.00  0.00    +0.000 NA
ATOM     19  C   UNL     1       5.031   6.604  17.435  0.00  0.00    +0.000 C 
ATOM     20  C   UNL     1       6.462   6.995  17.072  0.00  0.00    +0.000 C 
BRANCH  15  21
ATOM     21  N   UNL     1       7.272   4.712  16.300  0.00  0.00    +0.000 NA
ATOM     22  H   UNL     1       8.187   4.309  16.097  0.00  0.00    +0.000 HD
BRANCH  21  24
ATOM     23  C   UNL     1       7.528   5.027  13.815  0.00  0.00    +0.000 C 
ATOM     24  C   UNL     1       6.599   5.046  15.033  0.00  0.00    +0.000 C 
ATOM     25  C   UNL     1       5.458   4.048  14.793  0.00  0.00    +0.000 C 
ENDBRANCH  21  24
ENDBRANCH  15  21
ENDBRANCH  14  18
ENDBRANCH   1  14
TORSDOF 6
ENDMDL
MODEL 8
REMARK VINA RESULT:      -6.9      1.603      2.418
REMARK  Name = 
REMARK  8 active torsions:
REMARK  status: ('A' for Active; 'I' for Inactive)
REMARK    1  A    between atoms: C_1  and  C_2
REMARK    2  A    between atoms: C_2  and  C_3
REMARK    3  A    between atoms: C_2  and  N_4
REMARK    4  A    between atoms: N_4  and  C_5
REMARK    5  A    between atoms: N_8  and  C_9
REMARK    6  A    between atoms: C_9  and  C_10
REMARK    7  A    between atoms: C_10  and  O_11
REMARK    8  A    between atoms: C_10  and  C_12
REMARK                            x       y       z     vdW  Elec       q    Type
REMARK                         _______ _______ _______ _____ _____    ______ ____
ROOT
ATOM      1  C   UNL     1       3.757   6.677  18.236  0.00  0.00    +0.000 C 
ENDROOT
BRANCH   1   2
ATOM      2  C   UNL     1       3.550   5.164  18.088  0.00  0.00    +0.000 A 
ATOM      3  C   UNL     1       4.247   4.543  17.028  0.00  0.00    +0.000 A 
ATOM      4  C   UNL     1       4.179   3.164  16.820  0.00  0.00    +0.000 A 
ATOM      5  C   UNL     1       3.418   2.382  17.679  0.00  0.00    +0.000 A 
ATOM      6  C   UNL     1       2.699   2.953  18.737  0.00  0.00    +0.000 A 
ATOM      7  C   UNL     1       1.942   2.115  19.573  0.00  0.00    +0.000 A 
ATOM      8  C   UNL     1       1.197   2.626  20.628  0.00  0.00    +0.000 A 
ATOM      9  C   UNL     1       1.193   3.995  20.857  0.00  0.00    +0.000 A 
ATOM     10  C   UNL     1       1.954   4.839  20.037  0.00  0.00    +0.000 A 
ATOM     11  C   UNL     1       2.738   4.358  18.957  0.00  0.00    +0.000 A 
ENDBRANCH   1   2
BRANCH   1  12
ATOM     12  O   UNL     1       4.834   7.106  17.403  0.00  0.00    +0.000 OA
ATOM     13  H   UNL     1       4.871   8.072  17.409  0.00  0.00    +0.000 HD
ENDBRANCH   1  12
BRANCH   1  14
ATOM     14  C   UNL     1       2.433   7.470  18.009  0.00  0.00    +0.000 C 
BRANCH  14  18
ATOM     15  C   UNL     1       0.155  10.672  19.804  0.00  0.00    +0.000 C 
ATOM     16  C   UNL     1       1.088  11.004  18.633  0.00  0.00    +0.000 C 
ATOM     17  C   UNL     1       1.588   9.763  17.889  0.00  0.00    +0.000 C 
ATOM     18  N   UNL     1       2.209   8.744  18.757  0.00  0.00    +0.000 NA
ATOM     19  C   UNL     1       1.351   8.436  19.921  0.00  0.00    +0.000 C 
ATOM     20  C   UNL     1       0.895   9.669  20.696  0.00  0.00    +0.000 C 
BRANCH  15  21
ATOM     21  N   UNL     1      -1.163  10.223  19.307  0.00  0.00    +0.000 NA
ATOM     22  H   UNL     1      -1.086   9.254  18.996  0.00  0.00    +0.000 HD
BRANCH  21  24
ATOM     23  C   UNL     1      -2.234  10.211  17.028  0.00  0.00    +0.000 C 
ATOM     24  C   UNL     1      -1.747  11.033  18.225  0.00  0.00    +0.000 C 
ATOM     25  C   UNL     1      -2.933  11.832  18.782  0.00  0.00    +0.000 C 
ENDBRANCH  21  24
ENDBRANCH  15  21
ENDBRANCH  14  18
ENDBRANCH   1  14
TORSDOF 6
ENDMDL
MODEL 9
REMARK VINA RESULT:      -6.9      1.801      2.973
REMARK  Name = 
REMARK  8 active torsions:
REMARK  status: ('A' for Active; 'I' for Inactive)
REMARK    1  A    between atoms: C_1  and  C_2
REMARK    2  A    between atoms: C_2  and  C_3
REMARK    3  A    between atoms: C_2  and  N_4
REMARK    4  A    between atoms: N_4  and  C_5
REMARK    5  A    between atoms: N_8  and  C_9
REMARK    6  A    between atoms: C_9  and  C_10
REMARK    7  A    between atoms: C_10  and  O_11
REMARK    8  A    between atoms: C_10  and  C_12
REMARK                            x       y       z     vdW  Elec       q    Type
REMARK                         _______ _______ _______ _____ _____    ______ ____
ROOT
ATOM      1  C   UNL     1       2.210   7.682  18.554  0.00  0.00    +0.000 C 
ENDROOT
BRANCH   1   2
ATOM      2  C   UNL     1       3.066   6.589  17.901  0.00  0.00    +0.000 A 
ATOM      3  C   UNL     1       4.243   7.025  17.256  0.00  0.00    +0.000 A 
ATOM      4  C   UNL     1       5.130   6.121  16.668  0.00  0.00    +0.000 A 
ATOM      5  C   UNL     1       4.855   4.761  16.725  0.00  0.00    +0.000 A 
ATOM      6  C   UNL     1       3.693   4.281  17.344  0.00  0.00    +0.000 A 
ATOM      7  C   UNL     1       3.463   2.895  17.370  0.00  0.00    +0.000 A 
ATOM      8  C   UNL     1       2.321   2.361  17.955  0.00  0.00    +0.000 A 
ATOM      9  C   UNL     1       1.384   3.215  18.520  0.00  0.00    +0.000 A 
ATOM     10  C   UNL     1       1.609   4.598  18.509  0.00  0.00    +0.000 A 
ATOM     11  C   UNL     1       2.766   5.184  17.934  0.00  0.00    +0.000 A 
ENDBRANCH   1   2
BRANCH   1  12
ATOM     12  O   UNL     1       2.336   7.617  19.975  0.00  0.00    +0.000 OA
ATOM     13  H   UNL     1       2.870   8.363  20.278  0.00  0.00    +0.000 HD
ENDBRANCH   1  12
BRANCH   1  14
ATOM     14  C   UNL     1       2.516   9.092  17.961  0.00  0.00    +0.000 C 
BRANCH  14  18
ATOM     15  C   UNL     1      -0.872  11.318  19.455  0.00  0.00    +0.000 C 
ATOM     16  C   UNL     1      -1.053  10.470  18.191  0.00  0.00    +0.000 C 
ATOM     17  C   UNL     1       0.103   9.496  17.946  0.00  0.00    +0.000 C 
ATOM     18  N   UNL     1       1.437  10.126  17.945  0.00  0.00    +0.000 NA
ATOM     19  C   UNL     1       1.625  10.988  19.132  0.00  0.00    +0.000 C 
ATOM     20  C   UNL     1       0.498  11.996  19.347  0.00  0.00    +0.000 C 
BRANCH  15  21
ATOM     21  N   UNL     1      -1.076  10.497  20.666  0.00  0.00    +0.000 NA
ATOM     22  H   UNL     1      -2.068  10.497  20.902  0.00  0.00    +0.000 HD
BRANCH  21  24
ATOM     23  C   UNL     1      -1.116  11.649  22.905  0.00  0.00    +0.000 C 
ATOM     24  C   UNL     1      -0.297  10.899  21.849  0.00  0.00    +0.000 C 
ATOM     25  C   UNL     1       0.308   9.648  22.501  0.00  0.00    +0.000 C 
ENDBRANCH  21  24
ENDBRANCH  15  21
ENDBRANCH  14  18
ENDBRANCH   1  14
TORSDOF 6
ENDMDL
