MODEL 1
REMARK VINA RESULT:      -9.0      0.000      0.000
REMARK  Name = 
REMARK  11 active torsions:
REMARK  status: ('A' for Active; 'I' for Inactive)
REMARK    1  A    between atoms: C_1  and  N_2
REMARK    2  A    between atoms: N_2  and  C_3
REMARK    3  A    between atoms: N_2  and  C_4
REMARK    4  A    between atoms: C_4  and  C_5
REMARK    5  A    between atoms: C_5  and  O_6
REMARK    6  A    between atoms: O_6  and  C_7
REMARK    7  A    between atoms: C_9  and  N_10
REMARK    8  A    between atoms: C_13  and  C_14
REMARK    9  A    between atoms: N_21  and  C_22
REMARK   10  A    between atoms: C_22  and  C_23
REMARK   11  A    between atoms: C_25  and  C_26
REMARK                            x       y       z     vdW  Elec       q    Type
REMARK                         _______ _______ _______ _____ _____    ______ ____
ROOT
ATOM      1  C   UNL     1       2.344   4.700  17.845  0.00  0.00    +0.000 A 
ATOM      2  C   UNL     1       3.503   5.058  17.208  0.00  0.00    +0.000 A 
ATOM      3  C   UNL     1       4.020   6.282  17.566  0.00  0.00    +0.000 A 
ATOM      4  N   UNL     1       3.414   7.063  18.484  0.00  0.00    +0.000 NA
ATOM      5  C   UNL     1       2.302   6.621  19.067  0.00  0.00    +0.000 A 
ATOM      6  N   UNL     1       1.687   7.355  20.067  0.00  0.00    +0.000 N 
ATOM      7  N   UNL     1       1.734   5.455  18.775  0.00  0.00    +0.000 NA
ATOM      8  H   UNL     1       0.803   6.904  20.263  0.00  0.00    +0.000 HD
ENDROOT
BRANCH   3   9
ATOM      9  N   UNL     1       5.243   6.700  16.996  0.00  0.00    +0.000 N 
ATOM     10  C   UNL     1       5.985   5.969  16.135  0.00  0.00    +0.000 A 
ATOM     11  C   UNL     1       5.436   5.133  15.133  0.00  0.00    +0.000 A 
ATOM     12  C   UNL     1       6.513   4.550  14.520  0.00  0.00    +0.000 A 
ATOM     13  N   UNL     1       7.613   5.073  15.132  0.00  0.00    +0.000 N 
ATOM     14  N   UNL     1       7.320   5.977  16.089  0.00  0.00    +0.000 NA
ATOM     15  H   UNL     1       5.778   7.272  17.638  0.00  0.00    +0.000 HD
ATOM     16  H   UNL     1       8.587   4.862  14.947  0.00  0.00    +0.000 HD
BRANCH  12  17
ATOM     17  C   UNL     1       6.424   3.520  13.420  0.00  0.00    +0.000 C 
ATOM     18  C   UNL     1       5.360   3.649  12.357  0.00  0.00    +0.000 C 
ATOM     19  C   UNL     1       6.779   3.949  12.015  0.00  0.00    +0.000 C 
ENDBRANCH  12  17
ENDBRANCH   3   9
BRANCH   1  20
ATOM     20  O   UNL     1       1.810   3.459  17.532  0.00  0.00    +0.000 OA
BRANCH  20  21
ATOM     21  C   UNL     1       2.726   2.404  17.856  0.00  0.00    +0.000 C 
BRANCH  21  22
ATOM     22  C   UNL     1       2.464   1.886  19.279  0.00  0.00    +0.000 C 
BRANCH  22  24
ATOM     23  C   UNL     1       2.434   2.662  21.565  0.00  0.00    +0.000 C 
ATOM     24  N   UNL     1       3.210   2.622  20.323  0.00  0.00    +0.000 NA
ATOM     25  C   UNL     1       4.528   2.042  20.584  0.00  0.00    +0.000 C 
ENDBRANCH  22  24
ENDBRANCH  21  22
ENDBRANCH  20  21
ENDBRANCH   1  20
BRANCH   6  26
ATOM     26  C   UNL     1       1.590   8.790  19.841  0.00  0.00    +0.000 C 
BRANCH  26  27
ATOM     27  C   UNL     1       0.940   9.578  20.924  0.00  0.00    +0.000 A 
ATOM     28  C   UNL     1       0.127  10.684  20.963  0.00  0.00    +0.000 A 
ATOM     29  C   UNL     1      -0.183  10.872  22.338  0.00  0.00    +0.000 A 
ATOM     30  N   UNL     1       0.446   9.948  23.082  0.00  0.00    +0.000 NA
ATOM     31  O   UNL     1       1.143   9.144  22.198  0.00  0.00    +0.000 OA
BRANCH  29  32
ATOM     32  C   UNL     1      -1.075  11.886  22.905  0.00  0.00    +0.000 A 
ATOM     33  C   UNL     1      -2.412  11.625  23.147  0.00  0.00    +0.000 A 
ATOM     34  C   UNL     1      -3.150  12.679  23.632  0.00  0.00    +0.000 A 
ATOM     35  N   UNL     1      -2.638  13.899  23.876  0.00  0.00    +0.000 NA
ATOM     36  C   UNL     1      -1.332  14.043  23.615  0.00  0.00    +0.000 A 
ATOM     37  N   UNL     1      -0.513  13.094  23.141  0.00  0.00    +0.000 NA
ENDBRANCH  29  32
ENDBRANCH  26  27
ENDBRANCH   6  26
TORSDOF 9
ENDMDL
MODEL 2
REMARK VINA RESULT:      -8.7      1.797      2.213
REMARK  Name = 
REMARK  11 active torsions:
REMARK  status: ('A' for Active; 'I' for Inactive)
REMARK    1  A    between atoms: C_1  and  N_2
REMARK    2  A    between atoms: N_2  and  C_3
REMARK    3  A    between atoms: N_2  and  C_4
REMARK    4  A    between atoms: C_4  and  C_5
REMARK    5  A    between atoms: C_5  and  O_6
REMARK    6  A    between atoms: O_6  and  C_7
REMARK    7  A    between atoms: C_9  and  N_10
REMARK    8  A    between atoms: C_13  and  C_14
REMARK    9  A    between atoms: N_21  and  C_22
REMARK   10  A    between atoms: C_22  and  C_23
REMARK   11  A    between atoms: C_25  and  C_26
REMARK                            x       y       z     vdW  Elec       q    Type
REMARK                         _______ _______ _______ _____ _____    ______ ____
ROOT
ATOM      1  C   UNL     1       4.865   4.327  19.139  0.00  0.00    +0.000 A 
ATOM      2  C   UNL     1       5.631   4.597  18.035  0.00  0.00    +0.000 A 
ATOM      3  C   UNL     1       5.386   5.806  17.426  0.00  0.00    +0.000 A 
ATOM      4  N   UNL     1       4.450   6.656  17.898  0.00  0.00    +0.000 NA
ATOM      5  C   UNL     1       3.770   6.318  18.990  0.00  0.00    +0.000 A 
ATOM      6  N   UNL     1       2.854   7.191  19.553  0.00  0.00    +0.000 N 
ATOM      7  N   UNL     1       3.941   5.168  19.635  0.00  0.00    +0.000 NA
ATOM      8  H   UNL     1       2.367   6.680  20.278  0.00  0.00    +0.000 HD
ENDROOT
BRANCH   3   9
ATOM      9  N   UNL     1       6.172   6.183  16.316  0.00  0.00    +0.000 N 
ATOM     10  C   UNL     1       6.377   5.422  15.218  0.00  0.00    +0.000 A 
ATOM     11  C   UNL     1       5.390   4.588  14.640  0.00  0.00    +0.000 A 
ATOM     12  C   UNL     1       6.012   3.968  13.589  0.00  0.00    +0.000 A 
ATOM     13  N   UNL     1       7.279   4.470  13.563  0.00  0.00    +0.000 N 
ATOM     14  N   UNL     1       7.514   5.393  14.517  0.00  0.00    +0.000 NA
ATOM     15  H   UNL     1       6.964   6.750  16.594  0.00  0.00    +0.000 HD
ATOM     16  H   UNL     1       8.030   4.231  12.926  0.00  0.00    +0.000 HD
BRANCH  12  17
ATOM     17  C   UNL     1       5.373   2.926  12.703  0.00  0.00    +0.000 C 
ATOM     18  C   UNL     1       4.562   3.358  11.505  0.00  0.00    +0.000 C 
ATOM     19  C   UNL     1       5.912   2.759  11.301  0.00  0.00    +0.000 C 
ENDBRANCH  12  17
ENDBRANCH   3   9
BRANCH   1  20
ATOM     20  O   UNL     1       5.106   3.130  19.796  0.00  0.00    +0.000 OA
BRANCH  20  21
ATOM     21  C   UNL     1       3.895   2.384  19.977  0.00  0.00    +0.000 C 
BRANCH  21  22
ATOM     22  C   UNL     1       3.511   1.663  18.675  0.00  0.00    +0.000 C 
BRANCH  22  24
ATOM     23  C   UNL     1       1.320   2.535  19.193  0.00  0.00    +0.000 C 
ATOM     24  N   UNL     1       2.214   2.100  18.117  0.00  0.00    +0.000 NA
ATOM     25  C   UNL     1       2.360   3.176  17.134  0.00  0.00    +0.000 C 
ENDBRANCH  22  24
ENDBRANCH  21  22
ENDBRANCH  20  21
ENDBRANCH   1  20
BRANCH   6  26
ATOM     26  C   UNL     1       1.978   7.888  18.621  0.00  0.00    +0.000 C 
BRANCH  26  27
ATOM     27  C   UNL     1       1.202   9.026  19.184  0.00  0.00    +0.000 A 
ATOM     28  C   UNL     1       1.072   9.587  20.431  0.00  0.00    +0.000 A 
ATOM     29  C   UNL     1       0.205  10.700  20.251  0.00  0.00    +0.000 A 
ATOM     30  N   UNL     1      -0.192  10.772  18.971  0.00  0.00    +0.000 NA
ATOM     31  O   UNL     1       0.431   9.729  18.310  0.00  0.00    +0.000 OA
BRANCH  29  32
ATOM     32  C   UNL     1      -0.198  11.670  21.272  0.00  0.00    +0.000 A 
ATOM     33  C   UNL     1      -1.119  11.352  22.254  0.00  0.00    +0.000 A 
ATOM     34  C   UNL     1      -1.448  12.369  23.119  0.00  0.00    +0.000 A 
ATOM     35  N   UNL     1      -0.924  13.606  23.051  0.00  0.00    +0.000 NA
ATOM     36  C   UNL     1      -0.037  13.806  22.068  0.00  0.00    +0.000 A 
ATOM     37  N   UNL     1       0.362  12.897  21.168  0.00  0.00    +0.000 NA
ENDBRANCH  29  32
ENDBRANCH  26  27
ENDBRANCH   6  26
TORSDOF 9
ENDMDL
MODEL 3
REMARK VINA RESULT:      -8.5      2.807      3.211
REMARK  Name = 
REMARK  11 active torsions:
REMARK  status: ('A' for Active; 'I' for Inactive)
REMARK    1  A    between atoms: C_1  and  N_2
REMARK    2  A    between atoms: N_2  and  C_3
REMARK    3  A    between atoms: N_2  and  C_4
REMARK    4  A    between atoms: C_4  and  C_5
REMARK    5  A    between atoms: C_5  and  O_6
REMARK    6  A    between atoms: O_6  and  C_7
REMARK    7  A    between atoms: C_9  and  N_10
REMARK    8  A    between atoms: C_13  and  C_14
REMARK    9  A    between atoms: N_21  and  C_22
REMARK   10  A    between atoms: C_22  and  C_23
REMARK   11  A    between atoms: C_25  and  C_26
REMARK                            x       y       z     vdW  Elec       q    Type
REMARK                         _______ _______ _______ _____ _____    ______ ____
ROOT
ATOM      1  C   UNL     1       2.502   4.515  17.516  0.00  0.00    +0.000 A 
ATOM      2  C   UNL     1       3.798   4.609  17.082  0.00  0.00    +0.000 A 
ATOM      3  C   UNL     1       4.439   5.788  17.384  0.00  0.00    +0.000 A 
ATOM      4  N   UNL     1       3.818   6.775  18.062  0.00  0.00    +0.000 NA
ATOM      5  C   UNL     1       2.564   6.585  18.463  0.00  0.00    +0.000 A 
ATOM      6  N   UNL     1       1.912   7.540  19.226  0.00  0.00    +0.000 N 
ATOM      7  N   UNL     1       1.871   5.480  18.209  0.00  0.00    +0.000 NA
ATOM      8  H   UNL     1       0.945   7.252  19.296  0.00  0.00    +0.000 HD
ENDROOT
BRANCH   3   9
ATOM      9  N   UNL     1       5.795   5.940  17.020  0.00  0.00    +0.000 N 
ATOM     10  C   UNL     1       6.370   5.389  15.928  0.00  0.00    +0.000 A 
ATOM     11  C   UNL     1       5.719   5.250  14.679  0.00  0.00    +0.000 A 
ATOM     12  C   UNL     1       6.623   4.613  13.871  0.00  0.00    +0.000 A 
ATOM     13  N   UNL     1       7.742   4.444  14.631  0.00  0.00    +0.000 N 
ATOM     14  N   UNL     1       7.631   4.950  15.876  0.00  0.00    +0.000 NA
ATOM     15  H   UNL     1       6.396   5.998  17.833  0.00  0.00    +0.000 HD
ATOM     16  H   UNL     1       8.612   3.996  14.366  0.00  0.00    +0.000 HD
BRANCH  12  17
ATOM     17  C   UNL     1       6.355   4.185  12.448  0.00  0.00    +0.000 C 
ATOM     18  C   UNL     1       6.522   2.735  12.058  0.00  0.00    +0.000 C 
ATOM     19  C   UNL     1       5.151   3.309  12.186  0.00  0.00    +0.000 C 
ENDBRANCH  12  17
ENDBRANCH   3   9
BRANCH   1  20
ATOM     20  O   UNL     1       1.834   3.328  17.258  0.00  0.00    +0.000 OA
BRANCH  20  21
ATOM     21  C   UNL     1       2.320   2.267  18.091  0.00  0.00    +0.000 C 
BRANCH  21  22
ATOM     22  C   UNL     1       1.608   2.287  19.453  0.00  0.00    +0.000 C 
BRANCH  22  24
ATOM     23  C   UNL     1       1.880   2.529  21.840  0.00  0.00    +0.000 C 
ATOM     24  N   UNL     1       2.407   2.914  20.528  0.00  0.00    +0.000 NA
ATOM     25  C   UNL     1       3.827   2.567  20.447  0.00  0.00    +0.000 C 
ENDBRANCH  22  24
ENDBRANCH  21  22
ENDBRANCH  20  21
ENDBRANCH   1  20
BRANCH   6  26
ATOM     26  C   UNL     1       2.095   8.925  18.812  0.00  0.00    +0.000 C 
BRANCH  26  27
ATOM     27  C   UNL     1       0.852   9.725  18.649  0.00  0.00    +0.000 A 
ATOM     28  C   UNL     1      -0.246   9.653  17.826  0.00  0.00    +0.000 A 
ATOM     29  C   UNL     1      -1.101  10.708  18.250  0.00  0.00    +0.000 A 
ATOM     30  N   UNL     1      -0.522  11.397  19.247  0.00  0.00    +0.000 NA
ATOM     31  O   UNL     1       0.692  10.781  19.493  0.00  0.00    +0.000 OA
BRANCH  29  32
ATOM     32  C   UNL     1      -2.435  11.018  17.730  0.00  0.00    +0.000 A 
ATOM     33  C   UNL     1      -2.764  10.808  16.403  0.00  0.00    +0.000 A 
ATOM     34  C   UNL     1      -4.032  11.189  16.033  0.00  0.00    +0.000 A 
ATOM     35  N   UNL     1      -4.927  11.728  16.881  0.00  0.00    +0.000 NA
ATOM     36  C   UNL     1      -4.510  11.881  18.144  0.00  0.00    +0.000 A 
ATOM     37  N   UNL     1      -3.302  11.550  18.622  0.00  0.00    +0.000 NA
ENDBRANCH  29  32
ENDBRANCH  26  27
ENDBRANCH   6  26
TORSDOF 9
ENDMDL
MODEL 4
REMARK VINA RESULT:      -8.4      2.765      3.249
REMARK  Name = 
REMARK  11 active torsions:
REMARK  status: ('A' for Active; 'I' for Inactive)
REMARK    1  A    between atoms: C_1  and  N_2
REMARK    2  A    between atoms: N_2  and  C_3
REMARK    3  A    between atoms: N_2  and  C_4
REMARK    4  A    between atoms: C_4  and  C_5
REMARK    5  A    between atoms: C_5  and  O_6
REMARK    6  A    between atoms: O_6  and  C_7
REMARK    7  A    between atoms: C_9  and  N_10
REMARK    8  A    between atoms: C_13  and  C_14
REMARK    9  A    between atoms: N_21  and  C_22
REMARK   10  A    between atoms: C_22  and  C_23
REMARK   11  A    between atoms: C_25  and  C_26
REMARK                            x       y       z     vdW  Elec       q    Type
REMARK                         _______ _______ _______ _____ _____    ______ ____
ROOT
ATOM      1  C   UNL     1       4.683   4.459  19.213  0.00  0.00    +0.000 A 
ATOM      2  C   UNL     1       5.513   4.728  18.156  0.00  0.00    +0.000 A 
ATOM      3  C   UNL     1       5.279   5.918  17.509  0.00  0.00    +0.000 A 
ATOM      4  N   UNL     1       4.296   6.754  17.901  0.00  0.00    +0.000 NA
ATOM      5  C   UNL     1       3.554   6.420  18.954  0.00  0.00    +0.000 A 
ATOM      6  N   UNL     1       2.582   7.280  19.438  0.00  0.00    +0.000 N 
ATOM      7  N   UNL     1       3.709   5.286  19.631  0.00  0.00    +0.000 NA
ATOM      8  H   UNL     1       2.061   6.771  20.140  0.00  0.00    +0.000 HD
ENDROOT
BRANCH   3   9
ATOM      9  N   UNL     1       6.128   6.295  16.444  0.00  0.00    +0.000 N 
ATOM     10  C   UNL     1       6.409   5.524  15.370  0.00  0.00    +0.000 A 
ATOM     11  C   UNL     1       5.470   4.671  14.742  0.00  0.00    +0.000 A 
ATOM     12  C   UNL     1       6.163   4.049  13.738  0.00  0.00    +0.000 A 
ATOM     13  N   UNL     1       7.423   4.567  13.784  0.00  0.00    +0.000 N 
ATOM     14  N   UNL     1       7.587   5.504  14.740  0.00  0.00    +0.000 NA
ATOM     15  H   UNL     1       6.894   6.875  16.763  0.00  0.00    +0.000 HD
ATOM     16  H   UNL     1       8.214   4.331  13.196  0.00  0.00    +0.000 HD
BRANCH  12  17
ATOM     17  C   UNL     1       5.592   2.989  12.827  0.00  0.00    +0.000 C 
ATOM     18  C   UNL     1       4.668   3.388  11.701  0.00  0.00    +0.000 C 
ATOM     19  C   UNL     1       6.062   2.960  11.391  0.00  0.00    +0.000 C 
ENDBRANCH  12  17
ENDBRANCH   3   9
BRANCH   1  20
ATOM     20  O   UNL     1       4.909   3.282  19.909  0.00  0.00    +0.000 OA
BRANCH  20  21
ATOM     21  C   UNL     1       3.711   2.498  20.005  0.00  0.00    +0.000 C 
BRANCH  21  22
ATOM     22  C   UNL     1       3.451   1.755  18.686  0.00  0.00    +0.000 C 
BRANCH  22  24
ATOM     23  C   UNL     1       1.187   2.515  19.045  0.00  0.00    +0.000 C 
ATOM     24  N   UNL     1       2.178   2.132  18.035  0.00  0.00    +0.000 NA
ATOM     25  C   UNL     1       2.342   3.220  17.070  0.00  0.00    +0.000 C 
ENDBRANCH  22  24
ENDBRANCH  21  22
ENDBRANCH  20  21
ENDBRANCH   1  20
BRANCH   6  26
ATOM     26  C   UNL     1       1.753   7.938  18.437  0.00  0.00    +0.000 C 
BRANCH  26  27
ATOM     27  C   UNL     1       1.398   9.356  18.716  0.00  0.00    +0.000 A 
ATOM     28  C   UNL     1       1.962  10.572  18.418  0.00  0.00    +0.000 A 
ATOM     29  C   UNL     1       1.060  11.540  18.940  0.00  0.00    +0.000 A 
ATOM     30  N   UNL     1       0.033  10.929  19.552  0.00  0.00    +0.000 NA
ATOM     31  O   UNL     1       0.246   9.570  19.409  0.00  0.00    +0.000 OA
BRANCH  29  32
ATOM     32  C   UNL     1       1.175  12.996  18.826  0.00  0.00    +0.000 A 
ATOM     33  C   UNL     1       0.094  13.830  19.054  0.00  0.00    +0.000 A 
ATOM     34  C   UNL     1       0.323  15.172  18.863  0.00  0.00    +0.000 A 
ATOM     35  N   UNL     1       1.510  15.681  18.486  0.00  0.00    +0.000 NA
ATOM     36  C   UNL     1       2.491  14.788  18.299  0.00  0.00    +0.000 A 
ATOM     37  N   UNL     1       2.389  13.461  18.453  0.00  0.00    +0.000 NA
ENDBRANCH  29  32
ENDBRANCH  26  27
ENDBRANCH   6  26
TORSDOF 9
ENDMDL
MODEL 5
REMARK VINA RESULT:      -8.4      2.951      3.334
REMARK  Name = 
REMARK  11 active torsions:
REMARK  status: ('A' for Active; 'I' for Inactive)
REMARK    1  A    between atoms: C_1  and  N_2
REMARK    2  A    between atoms: N_2  and  C_3
REMARK    3  A    between atoms: N_2  and  C_4
REMARK    4  A    between atoms: C_4  and  C_5
REMARK    5  A    between atoms: C_5  and  O_6
REMARK    6  A    between atoms: O_6  and  C_7
REMARK    7  A    between atoms: C_9  and  N_10
REMARK    8  A    between atoms: C_13  and  C_14
REMARK    9  A    between atoms: N_21  and  C_22
REMARK   10  A    between atoms: C_22  and  C_23
REMARK   11  A    between atoms: C_25  and  C_26
REMARK                            x       y       z     vdW  Elec       q    Type
REMARK                         _______ _______ _______ _____ _____    ______ ____
ROOT
ATOM      1  C   UNL     1       4.682   4.712  19.025  0.00  0.00    +0.000 A 
ATOM      2  C   UNL     1       5.501   4.875  17.939  0.00  0.00    +0.000 A 
ATOM      3  C   UNL     1       5.288   6.018  17.204  0.00  0.00    +0.000 A 
ATOM      4  N   UNL     1       4.332   6.907  17.544  0.00  0.00    +0.000 NA
ATOM      5  C   UNL     1       3.599   6.676  18.630  0.00  0.00    +0.000 A 
ATOM      6  N   UNL     1       2.659   7.597  19.059  0.00  0.00    +0.000 N 
ATOM      7  N   UNL     1       3.737   5.595  19.391  0.00  0.00    +0.000 NA
ATOM      8  H   UNL     1       2.136   7.159  19.807  0.00  0.00    +0.000 HD
ENDROOT
BRANCH   3   9
ATOM      9  N   UNL     1       6.128   6.287  16.100  0.00  0.00    +0.000 N 
ATOM     10  C   UNL     1       6.337   5.445  15.064  0.00  0.00    +0.000 A 
ATOM     11  C   UNL     1       5.334   4.616  14.506  0.00  0.00    +0.000 A 
ATOM     12  C   UNL     1       5.965   3.902  13.521  0.00  0.00    +0.000 A 
ATOM     13  N   UNL     1       7.252   4.348  13.509  0.00  0.00    +0.000 N 
ATOM     14  N   UNL     1       7.495   5.323  14.409  0.00  0.00    +0.000 NA
ATOM     15  H   UNL     1       6.934   6.838  16.370  0.00  0.00    +0.000 HD
ATOM     16  H   UNL     1       8.013   4.036  12.918  0.00  0.00    +0.000 HD
BRANCH  12  17
ATOM     17  C   UNL     1       5.311   2.830  12.683  0.00  0.00    +0.000 C 
ATOM     18  C   UNL     1       4.606   3.208  11.402  0.00  0.00    +0.000 C 
ATOM     19  C   UNL     1       5.922   2.511  11.338  0.00  0.00    +0.000 C 
ENDBRANCH  12  17
ENDBRANCH   3   9
BRANCH   1  20
ATOM     20  O   UNL     1       4.889   3.587  19.808  0.00  0.00    +0.000 OA
BRANCH  20  21
ATOM     21  C   UNL     1       3.967   2.542  19.468  0.00  0.00    +0.000 C 
BRANCH  21  22
ATOM     22  C   UNL     1       2.867   2.430  20.536  0.00  0.00    +0.000 C 
BRANCH  22  24
ATOM     23  C   UNL     1       0.942   3.884  20.430  0.00  0.00    +0.000 C 
ATOM     24  N   UNL     1       1.501   2.600  19.997  0.00  0.00    +0.000 NA
ATOM     25  C   UNL     1       1.459   2.514  18.536  0.00  0.00    +0.000 C 
ENDBRANCH  22  24
ENDBRANCH  21  22
ENDBRANCH  20  21
ENDBRANCH   1  20
BRANCH   6  26
ATOM     26  C   UNL     1       1.831   8.197  18.022  0.00  0.00    +0.000 C 
BRANCH  26  27
ATOM     27  C   UNL     1       1.355   9.582  18.289  0.00  0.00    +0.000 A 
ATOM     28  C   UNL     1       1.933  10.827  18.259  0.00  0.00    +0.000 A 
ATOM     29  C   UNL     1       0.881  11.735  18.565  0.00  0.00    +0.000 A 
ATOM     30  N   UNL     1      -0.254  11.059  18.805  0.00  0.00    +0.000 NA
ATOM     31  O   UNL     1       0.044   9.720  18.631  0.00  0.00    +0.000 OA
BRANCH  29  32
ATOM     32  C   UNL     1       0.966  13.197  18.597  0.00  0.00    +0.000 A 
ATOM     33  C   UNL     1       2.181  13.856  18.528  0.00  0.00    +0.000 A 
ATOM     34  C   UNL     1       2.125  15.226  18.619  0.00  0.00    +0.000 A 
ATOM     35  N   UNL     1       0.980  15.919  18.759  0.00  0.00    +0.000 NA
ATOM     36  C   UNL     1      -0.140  15.185  18.807  0.00  0.00    +0.000 A 
ATOM     37  N   UNL     1      -0.211  13.849  18.730  0.00  0.00    +0.000 NA
ENDBRANCH  29  32
ENDBRANCH  26  27
ENDBRANCH   6  26
TORSDOF 9
ENDMDL
MODEL 6
REMARK VINA RESULT:      -8.3      0.865      1.090
REMARK  Name = 
REMARK  11 active torsions:
REMARK  status: ('A' for Active; 'I' for Inactive)
REMARK    1  A    between atoms: C_1  and  N_2
REMARK    2  A    between atoms: N_2  and  C_3
REMARK    3  A    between atoms: N_2  and  C_4
REMARK    4  A    between atoms: C_4  and  C_5
REMARK    5  A    between atoms: C_5  and  O_6
REMARK    6  A    between atoms: O_6  and  C_7
REMARK    7  A    between atoms: C_9  and  N_10
REMARK    8  A    between atoms: C_13  and  C_14
REMARK    9  A    between atoms: N_21  and  C_22
REMARK   10  A    between atoms: C_22  and  C_23
REMARK   11  A    between atoms: C_25  and  C_26
REMARK                            x       y       z     vdW  Elec       q    Type
REMARK                         _______ _______ _______ _____ _____    ______ ____
ROOT
ATOM      1  C   UNL     1       2.461   4.550  17.637  0.00  0.00    +0.000 A 
ATOM      2  C   UNL     1       3.637   4.876  17.013  0.00  0.00    +0.000 A 
ATOM      3  C   UNL     1       4.168   6.099  17.352  0.00  0.00    +0.000 A 
ATOM      4  N   UNL     1       3.558   6.910  18.242  0.00  0.00    +0.000 NA
ATOM      5  C   UNL     1       2.430   6.499  18.815  0.00  0.00    +0.000 A 
ATOM      6  N   UNL     1       1.810   7.265  19.788  0.00  0.00    +0.000 N 
ATOM      7  N   UNL     1       1.848   5.336  18.539  0.00  0.00    +0.000 NA
ATOM      8  H   UNL     1       0.915   6.832  19.978  0.00  0.00    +0.000 HD
ENDROOT
BRANCH   3   9
ATOM      9  N   UNL     1       5.407   6.484  16.795  0.00  0.00    +0.000 N 
ATOM     10  C   UNL     1       6.116   5.753  15.907  0.00  0.00    +0.000 A 
ATOM     11  C   UNL     1       5.532   4.977  14.878  0.00  0.00    +0.000 A 
ATOM     12  C   UNL     1       6.584   4.371  14.243  0.00  0.00    +0.000 A 
ATOM     13  N   UNL     1       7.705   4.825  14.870  0.00  0.00    +0.000 N 
ATOM     14  N   UNL     1       7.451   5.706  15.860  0.00  0.00    +0.000 NA
ATOM     15  H   UNL     1       5.966   7.011  17.455  0.00  0.00    +0.000 HD
ATOM     16  H   UNL     1       8.669   4.579  14.677  0.00  0.00    +0.000 HD
BRANCH  12  17
ATOM     17  C   UNL     1       6.451   3.384  13.108  0.00  0.00    +0.000 C 
ATOM     18  C   UNL     1       5.392   3.596  12.052  0.00  0.00    +0.000 C 
ATOM     19  C   UNL     1       6.823   3.847  11.718  0.00  0.00    +0.000 C 
ENDBRANCH  12  17
ENDBRANCH   3   9
BRANCH   1  20
ATOM     20  O   UNL     1       1.913   3.312  17.342  0.00  0.00    +0.000 OA
BRANCH  20  21
ATOM     21  C   UNL     1       2.432   2.294  18.211  0.00  0.00    +0.000 C 
BRANCH  21  22
ATOM     22  C   UNL     1       1.667   2.288  19.543  0.00  0.00    +0.000 C 
BRANCH  22  24
ATOM     23  C   UNL     1       3.885   2.675  20.417  0.00  0.00    +0.000 C 
ATOM     24  N   UNL     1       2.544   2.172  20.728  0.00  0.00    +0.000 NA
ATOM     25  C   UNL     1       2.011   2.883  21.892  0.00  0.00    +0.000 C 
ENDBRANCH  22  24
ENDBRANCH  21  22
ENDBRANCH  20  21
ENDBRANCH   1  20
BRANCH   6  26
ATOM     26  C   UNL     1       1.740   8.696  19.528  0.00  0.00    +0.000 C 
BRANCH  26  27
ATOM     27  C   UNL     1       0.891   9.486  20.460  0.00  0.00    +0.000 A 
ATOM     28  C   UNL     1      -0.121  10.403  20.309  0.00  0.00    +0.000 A 
ATOM     29  C   UNL     1      -0.538  10.722  21.630  0.00  0.00    +0.000 A 
ATOM     30  N   UNL     1       0.215  10.059  22.523  0.00  0.00    +0.000 NA
ATOM     31  O   UNL     1       1.102   9.290  21.791  0.00  0.00    +0.000 OA
BRANCH  29  32
ATOM     32  C   UNL     1      -1.639  11.609  22.012  0.00  0.00    +0.000 A 
ATOM     33  C   UNL     1      -2.101  11.675  23.314  0.00  0.00    +0.000 A 
ATOM     34  C   UNL     1      -3.173  12.509  23.528  0.00  0.00    +0.000 A 
ATOM     35  N   UNL     1      -3.757  13.238  22.559  0.00  0.00    +0.000 NA
ATOM     36  C   UNL     1      -3.226  13.107  21.336  0.00  0.00    +0.000 A 
ATOM     37  N   UNL     1      -2.188  12.328  21.006  0.00  0.00    +0.000 NA
ENDBRANCH  29  32
ENDBRANCH  26  27
ENDBRANCH   6  26
TORSDOF 9
ENDMDL
MODEL 7
REMARK VINA RESULT:      -8.3      5.079      8.475
REMARK  Name = 
REMARK  11 active torsions:
REMARK  status: ('A' for Active; 'I' for Inactive)
REMARK    1  A    between atoms: C_1  and  N_2
REMARK    2  A    between atoms: N_2  and  C_3
REMARK    3  A    between atoms: N_2  and  C_4
REMARK    4  A    between atoms: C_4  and  C_5
REMARK    5  A    between atoms: C_5  and  O_6
REMARK    6  A    between atoms: O_6  and  C_7
REMARK    7  A    between atoms: C_9  and  N_10
REMARK    8  A    between atoms: C_13  and  C_14
REMARK    9  A    between atoms: N_21  and  C_22
REMARK   10  A    between atoms: C_22  and  C_23
REMARK   11  A    between atoms: C_25  and  C_26
REMARK                            x       y       z     vdW  Elec       q    Type
REMARK                         _______ _______ _______ _____ _____    ______ ____
ROOT
ATOM      1  C   UNL     1       6.379   4.613  15.678  0.00  0.00    +0.000 A 
ATOM      2  C   UNL     1       5.317   4.372  16.509  0.00  0.00    +0.000 A 
ATOM      3  C   UNL     1       5.165   5.262  17.548  0.00  0.00    +0.000 A 
ATOM      4  N   UNL     1       6.015   6.296  17.721  0.00  0.00    +0.000 NA
ATOM      5  C   UNL     1       7.006   6.463  16.849  0.00  0.00    +0.000 A 
ATOM      6  N   UNL     1       7.857   7.551  16.944  0.00  0.00    +0.000 N 
ATOM      7  N   UNL     1       7.226   5.647  15.823  0.00  0.00    +0.000 NA
ATOM      8  H   UNL     1       8.602   7.403  16.276  0.00  0.00    +0.000 HD
ENDROOT
BRANCH   3   9
ATOM      9  N   UNL     1       4.061   5.116  18.417  0.00  0.00    +0.000 N 
ATOM     10  C   UNL     1       3.293   6.132  18.867  0.00  0.00    +0.000 A 
ATOM     11  C   UNL     1       2.938   7.259  18.088  0.00  0.00    +0.000 A 
ATOM     12  C   UNL     1       2.200   8.056  18.923  0.00  0.00    +0.000 A 
ATOM     13  N   UNL     1       2.118   7.378  20.102  0.00  0.00    +0.000 N 
ATOM     14  N   UNL     1       2.736   6.180  20.081  0.00  0.00    +0.000 NA
ATOM     15  H   UNL     1       4.205   4.364  19.080  0.00  0.00    +0.000 HD
ATOM     16  H   UNL     1       1.658   7.670  20.957  0.00  0.00    +0.000 HD
BRANCH  12  17
ATOM     17  C   UNL     1       1.652   9.414  18.555  0.00  0.00    +0.000 C 
ATOM     18  C   UNL     1       0.353   9.514  17.790  0.00  0.00    +0.000 C 
ATOM     19  C   UNL     1       0.385   9.876  19.236  0.00  0.00    +0.000 C 
ENDBRANCH  12  17
ENDBRANCH   3   9
BRANCH   1  20
ATOM     20  O   UNL     1       6.545   3.755  14.602  0.00  0.00    +0.000 OA
BRANCH  20  21
ATOM     21  C   UNL     1       6.564   4.475  13.362  0.00  0.00    +0.000 C 
BRANCH  21  22
ATOM     22  C   UNL     1       6.728   3.505  12.182  0.00  0.00    +0.000 C 
BRANCH  22  24
ATOM     23  C   UNL     1       4.447   3.186  11.456  0.00  0.00    +0.000 C 
ATOM     24  N   UNL     1       5.618   2.537  12.053  0.00  0.00    +0.000 NA
ATOM     25  C   UNL     1       5.987   1.363  11.260  0.00  0.00    +0.000 C 
ENDBRANCH  22  24
ENDBRANCH  21  22
ENDBRANCH  20  21
ENDBRANCH   1  20
BRANCH   6  26
ATOM     26  C   UNL     1       8.314   7.892  18.284  0.00  0.00    +0.000 C 
BRANCH  26  27
ATOM     27  C   UNL     1       8.601   9.331  18.529  0.00  0.00    +0.000 A 
ATOM     28  C   UNL     1       9.010  10.067  19.614  0.00  0.00    +0.000 A 
ATOM     29  C   UNL     1       9.150  11.398  19.132  0.00  0.00    +0.000 A 
ATOM     30  N   UNL     1       8.803  11.457  17.837  0.00  0.00    +0.000 NA
ATOM     31  O   UNL     1       8.464  10.169  17.464  0.00  0.00    +0.000 OA
BRANCH  29  32
ATOM     32  C   UNL     1       9.627  12.558  19.889  0.00  0.00    +0.000 A 
ATOM     33  C   UNL     1      10.415  13.533  19.303  0.00  0.00    +0.000 A 
ATOM     34  C   UNL     1      10.838  14.541  20.136  0.00  0.00    +0.000 A 
ATOM     35  N   UNL     1      10.521  14.614  21.442  0.00  0.00    +0.000 NA
ATOM     36  C   UNL     1       9.747  13.624  21.906  0.00  0.00    +0.000 A 
ATOM     37  N   UNL     1       9.275  12.591  21.194  0.00  0.00    +0.000 NA
ENDBRANCH  29  32
ENDBRANCH  26  27
ENDBRANCH   6  26
TORSDOF 9
ENDMDL
MODEL 8
REMARK VINA RESULT:      -8.3      4.909      8.529
REMARK  Name = 
REMARK  11 active torsions:
REMARK  status: ('A' for Active; 'I' for Inactive)
REMARK    1  A    between atoms: C_1  and  N_2
REMARK    2  A    between atoms: N_2  and  C_3
REMARK    3  A    between atoms: N_2  and  C_4
REMARK    4  A    between atoms: C_4  and  C_5
REMARK    5  A    between atoms: C_5  and  O_6
REMARK    6  A    between atoms: O_6  and  C_7
REMARK    7  A    between atoms: C_9  and  N_10
REMARK    8  A    between atoms: C_13  and  C_14
REMARK    9  A    between atoms: N_21  and  C_22
REMARK   10  A    between atoms: C_22  and  C_23
REMARK   11  A    between atoms: C_25  and  C_26
REMARK                            x       y       z     vdW  Elec       q    Type
REMARK                         _______ _______ _______ _____ _____    ______ ____
ROOT
ATOM      1  C   UNL     1       6.448   4.515  15.721  0.00  0.00    +0.000 A 
ATOM      2  C   UNL     1       5.384   4.204  16.525  0.00  0.00    +0.000 A 
ATOM      3  C   UNL     1       5.126   5.098  17.539  0.00  0.00    +0.000 A 
ATOM      4  N   UNL     1       5.882   6.202  17.714  0.00  0.00    +0.000 NA
ATOM      5  C   UNL     1       6.882   6.434  16.868  0.00  0.00    +0.000 A 
ATOM      6  N   UNL     1       7.637   7.591  16.964  0.00  0.00    +0.000 N 
ATOM      7  N   UNL     1       7.202   5.619  15.868  0.00  0.00    +0.000 NA
ATOM      8  H   UNL     1       8.412   7.492  16.321  0.00  0.00    +0.000 HD
ENDROOT
BRANCH   3   9
ATOM      9  N   UNL     1       4.011   4.878  18.377  0.00  0.00    +0.000 N 
ATOM     10  C   UNL     1       3.269   5.852  18.948  0.00  0.00    +0.000 A 
ATOM     11  C   UNL     1       2.953   7.078  18.314  0.00  0.00    +0.000 A 
ATOM     12  C   UNL     1       2.232   7.787  19.238  0.00  0.00    +0.000 A 
ATOM     13  N   UNL     1       2.120   6.970  20.323  0.00  0.00    +0.000 N 
ATOM     14  N   UNL     1       2.703   5.765  20.155  0.00  0.00    +0.000 NA
ATOM     15  H   UNL     1       4.127   4.046  18.943  0.00  0.00    +0.000 HD
ATOM     16  H   UNL     1       1.662   7.167  21.205  0.00  0.00    +0.000 HD
BRANCH  12  17
ATOM     17  C   UNL     1       1.727   9.195  19.039  0.00  0.00    +0.000 C 
ATOM     18  C   UNL     1       1.131   9.597  17.711  0.00  0.00    +0.000 C 
ATOM     19  C   UNL     1       0.237   9.399  18.888  0.00  0.00    +0.000 C 
ENDBRANCH  12  17
ENDBRANCH   3   9
BRANCH   1  20
ATOM     20  O   UNL     1       6.719   3.652  14.670  0.00  0.00    +0.000 OA
BRANCH  20  21
ATOM     21  C   UNL     1       6.497   4.290  13.405  0.00  0.00    +0.000 C 
BRANCH  21  22
ATOM     22  C   UNL     1       5.100   3.943  12.868  0.00  0.00    +0.000 C 
BRANCH  22  24
ATOM     23  C   UNL     1       5.847   2.020  11.613  0.00  0.00    +0.000 C 
ATOM     24  N   UNL     1       5.122   3.291  11.541  0.00  0.00    +0.000 NA
ATOM     25  C   UNL     1       3.777   3.060  11.008  0.00  0.00    +0.000 C 
ENDBRANCH  22  24
ENDBRANCH  21  22
ENDBRANCH  20  21
ENDBRANCH   1  20
BRANCH   6  26
ATOM     26  C   UNL     1       8.022   7.996  18.309  0.00  0.00    +0.000 C 
BRANCH  26  27
ATOM     27  C   UNL     1       8.573   9.371  18.443  0.00  0.00    +0.000 A 
ATOM     28  C   UNL     1       8.408  10.552  17.760  0.00  0.00    +0.000 A 
ATOM     29  C   UNL     1       9.195  11.504  18.465  0.00  0.00    +0.000 A 
ATOM     30  N   UNL     1       9.827  10.910  19.490  0.00  0.00    +0.000 NA
ATOM     31  O   UNL     1       9.436   9.584  19.473  0.00  0.00    +0.000 OA
BRANCH  29  32
ATOM     32  C   UNL     1       9.306  12.936  18.174  0.00  0.00    +0.000 A 
ATOM     33  C   UNL     1       8.215  13.781  18.258  0.00  0.00    +0.000 A 
ATOM     34  C   UNL     1       8.444  15.092  17.910  0.00  0.00    +0.000 A 
ATOM     35  N   UNL     1       9.641  15.561  17.515  0.00  0.00    +0.000 NA
ATOM     36  C   UNL     1      10.633  14.660  17.476  0.00  0.00    +0.000 A 
ATOM     37  N   UNL     1      10.531  13.362  17.790  0.00  0.00    +0.000 NA
ENDBRANCH  29  32
ENDBRANCH  26  27
ENDBRANCH   6  26
TORSDOF 9
ENDMDL
MODEL 9
REMARK VINA RESULT:      -8.3      5.098      7.183
REMARK  Name = 
REMARK  11 active torsions:
REMARK  status: ('A' for Active; 'I' for Inactive)
REMARK    1  A    between atoms: C_1  and  N_2
REMARK    2  A    between atoms: N_2  and  C_3
REMARK    3  A    between atoms: N_2  and  C_4
REMARK    4  A    between atoms: C_4  and  C_5
REMARK    5  A    between atoms: C_5  and  O_6
REMARK    6  A    between atoms: O_6  and  C_7
REMARK    7  A    between atoms: C_9  and  N_10
REMARK    8  A    between atoms: C_13  and  C_14
REMARK    9  A    between atoms: N_21  and  C_22
REMARK   10  A    between atoms: C_22  and  C_23
REMARK   11  A    between atoms: C_25  and  C_26
REMARK                            x       y       z     vdW  Elec       q    Type
REMARK                         _______ _______ _______ _____ _____    ______ ____
ROOT
ATOM      1  C   UNL     1       5.587   4.509  17.413  0.00  0.00    +0.000 A 
ATOM      2  C   UNL     1       5.959   4.123  16.152  0.00  0.00    +0.000 A 
ATOM      3  C   UNL     1       6.924   4.902  15.555  0.00  0.00    +0.000 A 
ATOM      4  N   UNL     1       7.457   5.970  16.185  0.00  0.00    +0.000 NA
ATOM      5  C   UNL     1       7.049   6.255  17.419  0.00  0.00    +0.000 A 
ATOM      6  N   UNL     1       7.621   7.296  18.130  0.00  0.00    +0.000 N 
ATOM      7  N   UNL     1       6.119   5.559  18.063  0.00  0.00    +0.000 NA
ATOM      8  H   UNL     1       7.072   7.415  18.972  0.00  0.00    +0.000 HD
ENDROOT
BRANCH   3   9
ATOM      9  N   UNL     1       7.403   4.537  14.277  0.00  0.00    +0.000 N 
ATOM     10  C   UNL     1       6.656   3.969  13.305  0.00  0.00    +0.000 A 
ATOM     11  C   UNL     1       5.301   4.296  13.056  0.00  0.00    +0.000 A 
ATOM     12  C   UNL     1       4.914   3.473  12.033  0.00  0.00    +0.000 A 
ATOM     13  N   UNL     1       6.020   2.749  11.703  0.00  0.00    +0.000 N 
ATOM     14  N   UNL     1       7.110   3.065  12.432  0.00  0.00    +0.000 NA
ATOM     15  H   UNL     1       8.364   4.222  14.314  0.00  0.00    +0.000 HD
ATOM     16  H   UNL     1       6.104   2.029  10.994  0.00  0.00    +0.000 HD
BRANCH  12  17
ATOM     17  C   UNL     1       3.518   3.410  11.460  0.00  0.00    +0.000 C 
ATOM     18  C   UNL     1       3.219   4.084  10.141  0.00  0.00    +0.000 C 
ATOM     19  C   UNL     1       3.303   2.597  10.204  0.00  0.00    +0.000 C 
ENDBRANCH  12  17
ENDBRANCH   3   9
BRANCH   1  20
ATOM     20  O   UNL     1       4.639   3.730  18.057  0.00  0.00    +0.000 OA
BRANCH  20  21
ATOM     21  C   UNL     1       3.357   3.843  17.425  0.00  0.00    +0.000 C 
BRANCH  21  22
ATOM     22  C   UNL     1       2.288   4.246  18.452  0.00  0.00    +0.000 C 
BRANCH  22  24
ATOM     23  C   UNL     1       2.801   6.361  19.498  0.00  0.00    +0.000 C 
ATOM     24  N   UNL     1       2.841   4.905  19.655  0.00  0.00    +0.000 NA
ATOM     25  C   UNL     1       2.134   4.522  20.879  0.00  0.00    +0.000 C 
ENDBRANCH  22  24
ENDBRANCH  21  22
ENDBRANCH  20  21
ENDBRANCH   1  20
BRANCH   6  26
ATOM     26  C   UNL     1       7.853   8.528  17.389  0.00  0.00    +0.000 C 
BRANCH  26  27
ATOM     27  C   UNL     1       8.520   9.625  18.141  0.00  0.00    +0.000 A 
ATOM     28  C   UNL     1       8.779  10.951  17.893  0.00  0.00    +0.000 A 
ATOM     29  C   UNL     1       9.401  11.438  19.076  0.00  0.00    +0.000 A 
ATOM     30  N   UNL     1       9.542  10.441  19.965  0.00  0.00    +0.000 NA
ATOM     31  O   UNL     1       8.991   9.316  19.380  0.00  0.00    +0.000 OA
BRANCH  29  32
ATOM     32  C   UNL     1       9.817  12.816  19.344  0.00  0.00    +0.000 A 
ATOM     33  C   UNL     1      10.941  13.103  20.099  0.00  0.00    +0.000 A 
ATOM     34  C   UNL     1      11.190  14.437  20.319  0.00  0.00    +0.000 A 
ATOM     35  N   UNL     1      10.418  15.430  19.840  0.00  0.00    +0.000 NA
ATOM     36  C   UNL     1       9.360  15.044  19.116  0.00  0.00    +0.000 A 
ATOM     37  N   UNL     1       9.015  13.780  18.836  0.00  0.00    +0.000 NA
ENDBRANCH  29  32
ENDBRANCH  26  27
ENDBRANCH   6  26
TORSDOF 9
ENDMDL
