MODEL 1
REMARK VINA RESULT:      -8.0      0.000      0.000
REMARK  Name = 
REMARK  6 active torsions:
REMARK  status: ('A' for Active; 'I' for Inactive)
REMARK    1  A    between atoms: C_1  and  C_2
REMARK    2  A    between atoms: C_2  and  O_3
REMARK    3  A    between atoms: C_2  and  C_18
REMARK    4  A    between atoms: O_3  and  C_4
REMARK    5  A    between atoms: C_11  and  C_12
REMARK    6  A    between atoms: C_12  and  O_14
REMARK                            x       y       z     vdW  Elec       q    Type
REMARK                         _______ _______ _______ _____ _____    ______ ____
ROOT
ATOM      1  C   UNL     1       6.784   4.833  17.694  0.00  0.00    +0.000 A 
ATOM      2  C   UNL     1       7.850   5.506  18.251  0.00  0.00    +0.000 A 
ATOM      3  C   UNL     1       7.510   5.672  19.603  0.00  0.00    +0.000 A 
ATOM      4  N   UNL     1       6.323   5.146  19.906  0.00  0.00    +0.000 NA
ATOM      5  N   UNL     1       5.898   4.575  18.738  0.00  0.00    +0.000 N 
ATOM      6  C   UNL     1       4.657   3.853  18.673  0.00  0.00    +0.000 A 
ATOM      7  C   UNL     1       3.872   3.755  19.819  0.00  0.00    +0.000 A 
ATOM      8  C   UNL     1       2.666   3.053  19.733  0.00  0.00    +0.000 A 
ATOM      9  C   UNL     1       2.302   2.433  18.538  0.00  0.00    +0.000 A 
ATOM     10  C   UNL     1       3.141   2.573  17.457  0.00  0.00    +0.000 A 
ATOM     11  N   UNL     1       4.286   3.283  17.496  0.00  0.00    +0.000 NA
ENDROOT
BRANCH   8  12
ATOM     12  C   UNL     1       1.754   2.897  20.891  0.00  0.00    +0.000 C 
ATOM     13  O   UNL     1       2.150   2.555  21.991  0.00  0.00    +0.000 OA
BRANCH  12  14
ATOM     14  O   UNL     1       0.453   3.101  20.605  0.00  0.00    +0.000 OA
ATOM     15  H   UNL     1       0.084   2.566  19.879  0.00  0.00    +0.000 HD
ENDBRANCH  12  14
ENDBRANCH   8  12
BRANCH   1  16
ATOM     16  O   UNL     1       6.512   4.421  16.453  0.00  0.00    +0.000 OA
BRANCH  16  18
ATOM     17  C   UNL     1       5.239   6.354  15.620  0.00  0.00    +0.000 C 
ATOM     18  C   UNL     1       6.406   5.385  15.404  0.00  0.00    +0.000 C 
BRANCH  18  19
ATOM     19  C   UNL     1       6.188   4.570  14.136  0.00  0.00    +0.000 A 
ATOM     20  C   UNL     1       7.233   4.375  13.222  0.00  0.00    +0.000 A 
ATOM     21  C   UNL     1       7.039   3.590  12.083  0.00  0.00    +0.000 A 
ATOM     22  C   UNL     1       5.800   3.001  11.854  0.00  0.00    +0.000 A 
ATOM     23  F   UNL     1       5.623   2.237  10.769  0.00  0.00    +0.000 F 
ATOM     24  C   UNL     1       4.747   3.185  12.739  0.00  0.00    +0.000 A 
ATOM     25  C   UNL     1       4.941   3.966  13.880  0.00  0.00    +0.000 A 
ENDBRANCH  18  19
ENDBRANCH  16  18
ENDBRANCH   1  16
TORSDOF 5
ENDMDL
MODEL 2
REMARK VINA RESULT:      -7.8      4.240      6.573
REMARK  Name = 
REMARK  6 active torsions:
REMARK  status: ('A' for Active; 'I' for Inactive)
REMARK    1  A    between atoms: C_1  and  C_2
REMARK    2  A    between atoms: C_2  and  O_3
REMARK    3  A    between atoms: C_2  and  C_18
REMARK    4  A    between atoms: O_3  and  C_4
REMARK    5  A    between atoms: C_11  and  C_12
REMARK    6  A    between atoms: C_12  and  O_14
REMARK                            x       y       z     vdW  Elec       q    Type
REMARK                         _______ _______ _______ _____ _____    ______ ____
ROOT
ATOM      1  C   UNL     1       5.100   4.805  17.132  0.00  0.00    +0.000 A 
ATOM      2  C   UNL     1       5.991   4.665  16.089  0.00  0.00    +0.000 A 
ATOM      3  C   UNL     1       5.866   5.847  15.342  0.00  0.00    +0.000 A 
ATOM      4  N   UNL     1       4.974   6.693  15.857  0.00  0.00    +0.000 NA
ATOM      5  N   UNL     1       4.540   6.074  16.998  0.00  0.00    +0.000 N 
ATOM      6  C   UNL     1       3.591   6.708  17.872  0.00  0.00    +0.000 A 
ATOM      7  C   UNL     1       3.096   7.964  17.533  0.00  0.00    +0.000 A 
ATOM      8  C   UNL     1       2.169   8.560  18.394  0.00  0.00    +0.000 A 
ATOM      9  C   UNL     1       1.803   7.921  19.578  0.00  0.00    +0.000 A 
ATOM     10  C   UNL     1       2.349   6.685  19.839  0.00  0.00    +0.000 A 
ATOM     11  N   UNL     1       3.207   6.064  19.006  0.00  0.00    +0.000 NA
ENDROOT
BRANCH   8  12
ATOM     12  C   UNL     1       1.575   9.891  18.122  0.00  0.00    +0.000 C 
ATOM     13  O   UNL     1       0.434  10.173  18.442  0.00  0.00    +0.000 OA
BRANCH  12  14
ATOM     14  O   UNL     1       2.379  10.728  17.437  0.00  0.00    +0.000 OA
ATOM     15  H   UNL     1       2.964  11.295  17.972  0.00  0.00    +0.000 HD
ENDBRANCH  12  14
ENDBRANCH   8  12
BRANCH   1  16
ATOM     16  O   UNL     1       4.748   4.010  18.145  0.00  0.00    +0.000 OA
BRANCH  16  18
ATOM     17  C   UNL     1       2.979   3.139  16.675  0.00  0.00    +0.000 C 
ATOM     18  C   UNL     1       3.874   2.907  17.896  0.00  0.00    +0.000 C 
BRANCH  18  19
ATOM     19  C   UNL     1       3.026   2.781  19.156  0.00  0.00    +0.000 A 
ATOM     20  C   UNL     1       3.628   2.575  20.406  0.00  0.00    +0.000 A 
ATOM     21  C   UNL     1       2.847   2.504  21.563  0.00  0.00    +0.000 A 
ATOM     22  C   UNL     1       1.466   2.636  21.472  0.00  0.00    +0.000 A 
ATOM     23  F   UNL     1       0.724   2.583  22.585  0.00  0.00    +0.000 F 
ATOM     24  C   UNL     1       0.846   2.834  20.246  0.00  0.00    +0.000 A 
ATOM     25  C   UNL     1       1.625   2.908  19.090  0.00  0.00    +0.000 A 
ENDBRANCH  18  19
ENDBRANCH  16  18
ENDBRANCH   1  16
TORSDOF 5
ENDMDL
MODEL 3
REMARK VINA RESULT:      -7.7      3.600      4.571
REMARK  Name = 
REMARK  6 active torsions:
REMARK  status: ('A' for Active; 'I' for Inactive)
REMARK    1  A    between atoms: C_1  and  C_2
REMARK    2  A    between atoms: C_2  and  O_3
REMARK    3  A    between atoms: C_2  and  C_18
REMARK    4  A    between atoms: O_3  and  C_4
REMARK    5  A    between atoms: C_11  and  C_12
REMARK    6  A    between atoms: C_12  and  O_14
REMARK                            x       y       z     vdW  Elec       q    Type
REMARK                         _______ _______ _______ _____ _____    ______ ____
ROOT
ATOM      1  C   UNL     1       3.401   3.877  19.571  0.00  0.00    +0.000 A 
ATOM      2  C   UNL     1       3.300   2.708  20.294  0.00  0.00    +0.000 A 
ATOM      3  C   UNL     1       2.488   3.028  21.393  0.00  0.00    +0.000 A 
ATOM      4  N   UNL     1       2.085   4.298  21.386  0.00  0.00    +0.000 NA
ATOM      5  N   UNL     1       2.602   4.811  20.227  0.00  0.00    +0.000 N 
ATOM      6  C   UNL     1       2.339   6.167  19.833  0.00  0.00    +0.000 A 
ATOM      7  C   UNL     1       1.560   6.972  20.660  0.00  0.00    +0.000 A 
ATOM      8  C   UNL     1       1.322   8.291  20.260  0.00  0.00    +0.000 A 
ATOM      9  C   UNL     1       1.816   8.752  19.041  0.00  0.00    +0.000 A 
ATOM     10  C   UNL     1       2.569   7.886  18.281  0.00  0.00    +0.000 A 
ATOM     11  N   UNL     1       2.856   6.626  18.662  0.00  0.00    +0.000 NA
ENDROOT
BRANCH   8  12
ATOM     12  C   UNL     1       0.512   9.232  21.072  0.00  0.00    +0.000 C 
ATOM     13  O   UNL     1       0.731  10.430  21.093  0.00  0.00    +0.000 OA
BRANCH  12  14
ATOM     14  O   UNL     1      -0.435   8.640  21.827  0.00  0.00    +0.000 OA
ATOM     15  H   UNL     1      -0.933   9.225  22.427  0.00  0.00    +0.000 HD
ENDBRANCH  12  14
ENDBRANCH   8  12
BRANCH   1  16
ATOM     16  O   UNL     1       4.056   4.207  18.455  0.00  0.00    +0.000 OA
BRANCH  16  18
ATOM     17  C   UNL     1       6.076   5.318  19.313  0.00  0.00    +0.000 C 
ATOM     18  C   UNL     1       5.485   4.195  18.454  0.00  0.00    +0.000 C 
BRANCH  18  19
ATOM     19  C   UNL     1       5.883   4.381  16.995  0.00  0.00    +0.000 A 
ATOM     20  C   UNL     1       7.181   4.788  16.654  0.00  0.00    +0.000 A 
ATOM     21  C   UNL     1       7.553   4.913  15.313  0.00  0.00    +0.000 A 
ATOM     22  C   UNL     1       6.628   4.637  14.312  0.00  0.00    +0.000 A 
ATOM     23  F   UNL     1       6.994   4.745  13.029  0.00  0.00    +0.000 F 
ATOM     24  C   UNL     1       5.335   4.241  14.623  0.00  0.00    +0.000 A 
ATOM     25  C   UNL     1       4.964   4.111  15.962  0.00  0.00    +0.000 A 
ENDBRANCH  18  19
ENDBRANCH  16  18
ENDBRANCH   1  16
TORSDOF 5
ENDMDL
MODEL 4
REMARK VINA RESULT:      -7.7      3.755      4.810
REMARK  Name = 
REMARK  6 active torsions:
REMARK  status: ('A' for Active; 'I' for Inactive)
REMARK    1  A    between atoms: C_1  and  C_2
REMARK    2  A    between atoms: C_2  and  O_3
REMARK    3  A    between atoms: C_2  and  C_18
REMARK    4  A    between atoms: O_3  and  C_4
REMARK    5  A    between atoms: C_11  and  C_12
REMARK    6  A    between atoms: C_12  and  O_14
REMARK                            x       y       z     vdW  Elec       q    Type
REMARK                         _______ _______ _______ _____ _____    ______ ____
ROOT
ATOM      1  C   UNL     1       3.317   4.199  19.524  0.00  0.00    +0.000 A 
ATOM      2  C   UNL     1       3.141   3.094  20.329  0.00  0.00    +0.000 A 
ATOM      3  C   UNL     1       2.320   3.534  21.378  0.00  0.00    +0.000 A 
ATOM      4  N   UNL     1       1.981   4.818  21.266  0.00  0.00    +0.000 NA
ATOM      5  N   UNL     1       2.550   5.217  20.088  0.00  0.00    +0.000 N 
ATOM      6  C   UNL     1       2.364   6.551  19.588  0.00  0.00    +0.000 A 
ATOM      7  C   UNL     1       1.607   7.452  20.331  0.00  0.00    +0.000 A 
ATOM      8  C   UNL     1       1.444   8.747  19.829  0.00  0.00    +0.000 A 
ATOM      9  C   UNL     1       1.989   9.091  18.594  0.00  0.00    +0.000 A 
ATOM     10  C   UNL     1       2.716   8.136  17.920  0.00  0.00    +0.000 A 
ATOM     11  N   UNL     1       2.930   6.896  18.401  0.00  0.00    +0.000 NA
ENDROOT
BRANCH   8  12
ATOM     12  C   UNL     1       0.663   9.784  20.547  0.00  0.00    +0.000 C 
ATOM     13  O   UNL     1       1.076  10.330  21.554  0.00  0.00    +0.000 OA
BRANCH  12  14
ATOM     14  O   UNL     1      -0.558  10.017  20.028  0.00  0.00    +0.000 OA
ATOM     15  H   UNL     1      -1.262  10.234  20.666  0.00  0.00    +0.000 HD
ENDBRANCH  12  14
ENDBRANCH   8  12
BRANCH   1  16
ATOM     16  O   UNL     1       4.013   4.413  18.405  0.00  0.00    +0.000 OA
BRANCH  16  18
ATOM     17  C   UNL     1       6.115   5.359  19.265  0.00  0.00    +0.000 C 
ATOM     18  C   UNL     1       5.435   4.270  18.429  0.00  0.00    +0.000 C 
BRANCH  18  19
ATOM     19  C   UNL     1       5.869   4.374  16.973  0.00  0.00    +0.000 A 
ATOM     20  C   UNL     1       4.968   4.094  15.935  0.00  0.00    +0.000 A 
ATOM     21  C   UNL     1       5.359   4.235  14.601  0.00  0.00    +0.000 A 
ATOM     22  C   UNL     1       6.652   4.652  14.302  0.00  0.00    +0.000 A 
ATOM     23  F   UNL     1       7.018   4.800  13.023  0.00  0.00    +0.000 F 
ATOM     24  C   UNL     1       7.565   4.929  15.310  0.00  0.00    +0.000 A 
ATOM     25  C   UNL     1       7.174   4.792  16.643  0.00  0.00    +0.000 A 
ENDBRANCH  18  19
ENDBRANCH  16  18
ENDBRANCH   1  16
TORSDOF 5
ENDMDL
MODEL 5
REMARK VINA RESULT:      -7.6      3.722      7.151
REMARK  Name = 
REMARK  6 active torsions:
REMARK  status: ('A' for Active; 'I' for Inactive)
REMARK    1  A    between atoms: C_1  and  C_2
REMARK    2  A    between atoms: C_2  and  O_3
REMARK    3  A    between atoms: C_2  and  C_18
REMARK    4  A    between atoms: O_3  and  C_4
REMARK    5  A    between atoms: C_11  and  C_12
REMARK    6  A    between atoms: C_12  and  O_14
REMARK                            x       y       z     vdW  Elec       q    Type
REMARK                         _______ _______ _______ _____ _____    ______ ____
ROOT
ATOM      1  C   UNL     1       3.357   3.674  19.459  0.00  0.00    +0.000 A 
ATOM      2  C   UNL     1       2.745   2.474  19.751  0.00  0.00    +0.000 A 
ATOM      3  C   UNL     1       3.070   1.629  18.679  0.00  0.00    +0.000 A 
ATOM      4  N   UNL     1       3.837   2.222  17.765  0.00  0.00    +0.000 NA
ATOM      5  N   UNL     1       4.064   3.472  18.275  0.00  0.00    +0.000 N 
ATOM      6  C   UNL     1       4.906   4.412  17.588  0.00  0.00    +0.000 A 
ATOM      7  C   UNL     1       5.481   4.043  16.374  0.00  0.00    +0.000 A 
ATOM      8  C   UNL     1       6.292   4.975  15.720  0.00  0.00    +0.000 A 
ATOM      9  C   UNL     1       6.547   6.214  16.307  0.00  0.00    +0.000 A 
ATOM     10  C   UNL     1       5.946   6.493  17.513  0.00  0.00    +0.000 A 
ATOM     11  N   UNL     1       5.121   5.634  18.144  0.00  0.00    +0.000 NA
ENDROOT
BRANCH   8  12
ATOM     12  C   UNL     1       6.944   4.685  14.420  0.00  0.00    +0.000 C 
ATOM     13  O   UNL     1       7.784   5.420  13.934  0.00  0.00    +0.000 OA
BRANCH  12  14
ATOM     14  O   UNL     1       6.480   3.582  13.801  0.00  0.00    +0.000 OA
ATOM     15  H   UNL     1       6.255   2.828  14.377  0.00  0.00    +0.000 HD
ENDBRANCH  12  14
ENDBRANCH   8  12
BRANCH   1  16
ATOM     16  O   UNL     1       3.390   4.857  20.077  0.00  0.00    +0.000 OA
BRANCH  16  18
ATOM     17  C   UNL     1       0.980   4.477  20.390  0.00  0.00    +0.000 C 
ATOM     18  C   UNL     1       2.194   5.371  20.666  0.00  0.00    +0.000 C 
BRANCH  18  19
ATOM     19  C   UNL     1       1.995   6.742  20.032  0.00  0.00    +0.000 A 
ATOM     20  C   UNL     1       2.369   6.975  18.701  0.00  0.00    +0.000 A 
ATOM     21  C   UNL     1       2.143   8.221  18.111  0.00  0.00    +0.000 A 
ATOM     22  C   UNL     1       1.547   9.236  18.851  0.00  0.00    +0.000 A 
ATOM     23  F   UNL     1       1.319  10.424  18.278  0.00  0.00    +0.000 F 
ATOM     24  C   UNL     1       1.174   9.033  20.173  0.00  0.00    +0.000 A 
ATOM     25  C   UNL     1       1.396   7.787  20.761  0.00  0.00    +0.000 A 
ENDBRANCH  18  19
ENDBRANCH  16  18
ENDBRANCH   1  16
TORSDOF 5
ENDMDL
MODEL 6
REMARK VINA RESULT:      -7.4      3.682      7.181
REMARK  Name = 
REMARK  6 active torsions:
REMARK  status: ('A' for Active; 'I' for Inactive)
REMARK    1  A    between atoms: C_1  and  C_2
REMARK    2  A    between atoms: C_2  and  O_3
REMARK    3  A    between atoms: C_2  and  C_18
REMARK    4  A    between atoms: O_3  and  C_4
REMARK    5  A    between atoms: C_11  and  C_12
REMARK    6  A    between atoms: C_12  and  O_14
REMARK                            x       y       z     vdW  Elec       q    Type
REMARK                         _______ _______ _______ _____ _____    ______ ____
ROOT
ATOM      1  C   UNL     1       3.363   3.602  19.438  0.00  0.00    +0.000 A 
ATOM      2  C   UNL     1       2.774   2.393  19.739  0.00  0.00    +0.000 A 
ATOM      3  C   UNL     1       3.074   1.559  18.651  0.00  0.00    +0.000 A 
ATOM      4  N   UNL     1       3.806   2.168  17.719  0.00  0.00    +0.000 NA
ATOM      5  N   UNL     1       4.035   3.416  18.230  0.00  0.00    +0.000 N 
ATOM      6  C   UNL     1       4.845   4.371  17.525  0.00  0.00    +0.000 A 
ATOM      7  C   UNL     1       5.385   4.017  16.291  0.00  0.00    +0.000 A 
ATOM      8  C   UNL     1       6.165   4.963  15.619  0.00  0.00    +0.000 A 
ATOM      9  C   UNL     1       6.425   6.200  16.207  0.00  0.00    +0.000 A 
ATOM     10  C   UNL     1       5.859   6.463  17.433  0.00  0.00    +0.000 A 
ATOM     11  N   UNL     1       5.064   5.591  18.083  0.00  0.00    +0.000 NA
ENDROOT
BRANCH   8  12
ATOM     12  C   UNL     1       6.779   4.690  14.297  0.00  0.00    +0.000 C 
ATOM     13  O   UNL     1       6.384   3.799  13.566  0.00  0.00    +0.000 OA
BRANCH  12  14
ATOM     14  O   UNL     1       7.843   5.464  14.009  0.00  0.00    +0.000 OA
ATOM     15  H   UNL     1       8.569   5.457  14.660  0.00  0.00    +0.000 HD
ENDBRANCH  12  14
ENDBRANCH   8  12
BRANCH   1  16
ATOM     16  O   UNL     1       3.403   4.781  20.063  0.00  0.00    +0.000 OA
BRANCH  16  18
ATOM     17  C   UNL     1       1.003   4.380  20.429  0.00  0.00    +0.000 C 
ATOM     18  C   UNL     1       2.213   5.289  20.670  0.00  0.00    +0.000 C 
BRANCH  18  19
ATOM     19  C   UNL     1       1.987   6.650  20.023  0.00  0.00    +0.000 A 
ATOM     20  C   UNL     1       1.467   7.718  20.768  0.00  0.00    +0.000 A 
ATOM     21  C   UNL     1       1.304   8.976  20.181  0.00  0.00    +0.000 A 
ATOM     22  C   UNL     1       1.657   9.166  18.849  0.00  0.00    +0.000 A 
ATOM     23  F   UNL     1       1.513  10.376  18.295  0.00  0.00    +0.000 F 
ATOM     24  C   UNL     1       2.167   8.124  18.089  0.00  0.00    +0.000 A 
ATOM     25  C   UNL     1       2.334   6.868  18.675  0.00  0.00    +0.000 A 
ENDBRANCH  18  19
ENDBRANCH  16  18
ENDBRANCH   1  16
TORSDOF 5
ENDMDL
MODEL 7
REMARK VINA RESULT:      -7.4      4.208      7.574
REMARK  Name = 
REMARK  6 active torsions:
REMARK  status: ('A' for Active; 'I' for Inactive)
REMARK    1  A    between atoms: C_1  and  C_2
REMARK    2  A    between atoms: C_2  and  O_3
REMARK    3  A    between atoms: C_2  and  C_18
REMARK    4  A    between atoms: O_3  and  C_4
REMARK    5  A    between atoms: C_11  and  C_12
REMARK    6  A    between atoms: C_12  and  O_14
REMARK                            x       y       z     vdW  Elec       q    Type
REMARK                         _______ _______ _______ _____ _____    ______ ____
ROOT
ATOM      1  C   UNL     1       2.380   3.894  18.560  0.00  0.00    +0.000 A 
ATOM      2  C   UNL     1       1.960   2.676  19.050  0.00  0.00    +0.000 A 
ATOM      3  C   UNL     1       2.708   1.722  18.343  0.00  0.00    +0.000 A 
ATOM      4  N   UNL     1       3.552   2.269  17.468  0.00  0.00    +0.000 NA
ATOM      5  N   UNL     1       3.392   3.617  17.642  0.00  0.00    +0.000 N 
ATOM      6  C   UNL     1       4.181   4.560  16.899  0.00  0.00    +0.000 A 
ATOM      7  C   UNL     1       5.107   4.085  15.974  0.00  0.00    +0.000 A 
ATOM      8  C   UNL     1       5.860   5.020  15.257  0.00  0.00    +0.000 A 
ATOM      9  C   UNL     1       5.709   6.382  15.512  0.00  0.00    +0.000 A 
ATOM     10  C   UNL     1       4.777   6.764  16.449  0.00  0.00    +0.000 A 
ATOM     11  N   UNL     1       4.003   5.889  17.121  0.00  0.00    +0.000 NA
ENDROOT
BRANCH   8  12
ATOM     12  C   UNL     1       6.867   4.620  14.245  0.00  0.00    +0.000 C 
ATOM     13  O   UNL     1       7.836   5.309  13.980  0.00  0.00    +0.000 OA
BRANCH  12  14
ATOM     14  O   UNL     1       6.581   3.470  13.604  0.00  0.00    +0.000 OA
ATOM     15  H   UNL     1       7.321   3.047  13.129  0.00  0.00    +0.000 HD
ENDBRANCH  12  14
ENDBRANCH   8  12
BRANCH   1  16
ATOM     16  O   UNL     1       2.021   5.154  18.815  0.00  0.00    +0.000 OA
BRANCH  16  18
ATOM     17  C   UNL     1       2.056   5.096  21.274  0.00  0.00    +0.000 C 
ATOM     18  C   UNL     1       2.517   5.797  19.991  0.00  0.00    +0.000 C 
BRANCH  18  19
ATOM     19  C   UNL     1       1.959   7.213  19.935  0.00  0.00    +0.000 A 
ATOM     20  C   UNL     1       2.057   7.975  18.762  0.00  0.00    +0.000 A 
ATOM     21  C   UNL     1       1.504   9.257  18.703  0.00  0.00    +0.000 A 
ATOM     22  C   UNL     1       0.856   9.780  19.816  0.00  0.00    +0.000 A 
ATOM     23  F   UNL     1       0.315  11.003  19.750  0.00  0.00    +0.000 F 
ATOM     24  C   UNL     1       0.752   9.050  20.992  0.00  0.00    +0.000 A 
ATOM     25  C   UNL     1       1.301   7.768  21.051  0.00  0.00    +0.000 A 
ENDBRANCH  18  19
ENDBRANCH  16  18
ENDBRANCH   1  16
TORSDOF 5
ENDMDL
MODEL 8
REMARK VINA RESULT:      -7.3      4.294      7.693
REMARK  Name = 
REMARK  6 active torsions:
REMARK  status: ('A' for Active; 'I' for Inactive)
REMARK    1  A    between atoms: C_1  and  C_2
REMARK    2  A    between atoms: C_2  and  O_3
REMARK    3  A    between atoms: C_2  and  C_18
REMARK    4  A    between atoms: O_3  and  C_4
REMARK    5  A    between atoms: C_11  and  C_12
REMARK    6  A    between atoms: C_12  and  O_14
REMARK                            x       y       z     vdW  Elec       q    Type
REMARK                         _______ _______ _______ _____ _____    ______ ____
ROOT
ATOM      1  C   UNL     1       2.147   3.990  18.544  0.00  0.00    +0.000 A 
ATOM      2  C   UNL     1       1.651   2.782  18.983  0.00  0.00    +0.000 A 
ATOM      3  C   UNL     1       2.379   1.811  18.279  0.00  0.00    +0.000 A 
ATOM      4  N   UNL     1       3.282   2.339  17.453  0.00  0.00    +0.000 NA
ATOM      5  N   UNL     1       3.179   3.688  17.658  0.00  0.00    +0.000 N 
ATOM      6  C   UNL     1       4.041   4.611  16.971  0.00  0.00    +0.000 A 
ATOM      7  C   UNL     1       4.979   4.116  16.069  0.00  0.00    +0.000 A 
ATOM      8  C   UNL     1       5.803   5.032  15.408  0.00  0.00    +0.000 A 
ATOM      9  C   UNL     1       5.707   6.392  15.695  0.00  0.00    +0.000 A 
ATOM     10  C   UNL     1       4.758   6.794  16.607  0.00  0.00    +0.000 A 
ATOM     11  N   UNL     1       3.918   5.941  17.224  0.00  0.00    +0.000 NA
ENDROOT
BRANCH   8  12
ATOM     12  C   UNL     1       6.828   4.610  14.423  0.00  0.00    +0.000 C 
ATOM     13  O   UNL     1       7.824   5.272  14.194  0.00  0.00    +0.000 OA
BRANCH  12  14
ATOM     14  O   UNL     1       6.530   3.473  13.765  0.00  0.00    +0.000 OA
ATOM     15  H   UNL     1       5.581   3.269  13.666  0.00  0.00    +0.000 HD
ENDBRANCH  12  14
ENDBRANCH   8  12
BRANCH   1  16
ATOM     16  O   UNL     1       1.839   5.259  18.821  0.00  0.00    +0.000 OA
BRANCH  16  18
ATOM     17  C   UNL     1       2.090   5.148  21.266  0.00  0.00    +0.000 C 
ATOM     18  C   UNL     1       2.423   5.886  19.964  0.00  0.00    +0.000 C 
BRANCH  18  19
ATOM     19  C   UNL     1       1.835   7.291  19.991  0.00  0.00    +0.000 A 
ATOM     20  C   UNL     1       1.222   7.789  21.150  0.00  0.00    +0.000 A 
ATOM     21  C   UNL     1       0.725   9.095  21.182  0.00  0.00    +0.000 A 
ATOM     22  C   UNL     1       0.837   9.903  20.056  0.00  0.00    +0.000 A 
ATOM     23  F   UNL     1       0.372  11.157  20.096  0.00  0.00    +0.000 F 
ATOM     24  C   UNL     1       1.432   9.432  18.894  0.00  0.00    +0.000 A 
ATOM     25  C   UNL     1       1.932   8.129  18.862  0.00  0.00    +0.000 A 
ENDBRANCH  18  19
ENDBRANCH  16  18
ENDBRANCH   1  16
TORSDOF 5
ENDMDL
MODEL 9
REMARK VINA RESULT:      -7.2      3.303      4.137
REMARK  Name = 
REMARK  6 active torsions:
REMARK  status: ('A' for Active; 'I' for Inactive)
REMARK    1  A    between atoms: C_1  and  C_2
REMARK    2  A    between atoms: C_2  and  O_3
REMARK    3  A    between atoms: C_2  and  C_18
REMARK    4  A    between atoms: O_3  and  C_4
REMARK    5  A    between atoms: C_11  and  C_12
REMARK    6  A    between atoms: C_12  and  O_14
REMARK                            x       y       z     vdW  Elec       q    Type
REMARK                         _______ _______ _______ _____ _____    ______ ____
ROOT
ATOM      1  C   UNL     1       3.958   4.164  18.544  0.00  0.00    +0.000 A 
ATOM      2  C   UNL     1       4.038   2.904  19.097  0.00  0.00    +0.000 A 
ATOM      3  C   UNL     1       3.301   2.981  20.289  0.00  0.00    +0.000 A 
ATOM      4  N   UNL     1       2.776   4.189  20.495  0.00  0.00    +0.000 NA
ATOM      5  N   UNL     1       3.134   4.907  19.387  0.00  0.00    +0.000 N 
ATOM      6  C   UNL     1       2.704   6.267  19.213  0.00  0.00    +0.000 A 
ATOM      7  C   UNL     1       1.928   6.862  20.204  0.00  0.00    +0.000 A 
ATOM      8  C   UNL     1       1.526   8.188  20.018  0.00  0.00    +0.000 A 
ATOM      9  C   UNL     1       1.860   8.862  18.844  0.00  0.00    +0.000 A 
ATOM     10  C   UNL     1       2.623   8.195  17.913  0.00  0.00    +0.000 A 
ATOM     11  N   UNL     1       3.066   6.934  18.085  0.00  0.00    +0.000 NA
ENDROOT
BRANCH   8  12
ATOM     12  C   UNL     1       0.705   8.916  21.015  0.00  0.00    +0.000 C 
ATOM     13  O   UNL     1      -0.338   9.472  20.721  0.00  0.00    +0.000 OA
BRANCH  12  14
ATOM     14  O   UNL     1       1.243   8.962  22.250  0.00  0.00    +0.000 OA
ATOM     15  H   UNL     1       0.881   9.637  22.852  0.00  0.00    +0.000 HD
ENDBRANCH  12  14
ENDBRANCH   8  12
BRANCH   1  16
ATOM     16  O   UNL     1       4.474   4.712  17.441  0.00  0.00    +0.000 OA
BRANCH  16  18
ATOM     17  C   UNL     1       6.434   6.167  17.745  0.00  0.00    +0.000 C 
ATOM     18  C   UNL     1       5.893   4.802  17.304  0.00  0.00    +0.000 C 
BRANCH  18  19
ATOM     19  C   UNL     1       6.164   4.582  15.822  0.00  0.00    +0.000 A 
ATOM     20  C   UNL     1       5.247   3.883  15.023  0.00  0.00    +0.000 A 
ATOM     21  C   UNL     1       5.480   3.722  13.655  0.00  0.00    +0.000 A 
ATOM     22  C   UNL     1       6.630   4.256  13.084  0.00  0.00    +0.000 A 
ATOM     23  F   UNL     1       6.842   4.113  11.770  0.00  0.00    +0.000 F 
ATOM     24  C   UNL     1       7.557   4.945  13.854  0.00  0.00    +0.000 A 
ATOM     25  C   UNL     1       7.323   5.110  15.220  0.00  0.00    +0.000 A 
ENDBRANCH  18  19
ENDBRANCH  16  18
ENDBRANCH   1  16
TORSDOF 5
ENDMDL
