MODEL 1
REMARK VINA RESULT:      -6.6      0.000      0.000
REMARK  Name = 
REMARK  3 active torsions:
REMARK  status: ('A' for Active; 'I' for Inactive)
REMARK    1  A    between atoms: C_1  and  C_2
REMARK    2  A    between atoms: C_2  and  N_3
REMARK    3  A    between atoms: C_17  and  C_18
REMARK                            x       y       z     vdW  Elec       q    Type
REMARK                         _______ _______ _______ _____ _____    ______ ____
ROOT
ATOM      1  N   UNL     1      -1.215  13.486  22.799  0.00  0.00    +0.000 N 
ATOM      2  C   UNL     1      -1.546  12.164  22.699  0.00  0.00    +0.000 C 
ATOM      3  O   UNL     1      -2.119  11.483  23.539  0.00  0.00    +0.000 OA
ATOM      4  C   UNL     1      -1.124  11.674  21.330  0.00  0.00    +0.000 C 
ATOM      5  C   UNL     1      -0.283  10.405  21.403  0.00  0.00    +0.000 C 
ATOM      6  C   UNL     1       0.514  10.289  20.149  0.00  0.00    +0.000 A 
ATOM      7  C   UNL     1       0.727  11.372  19.313  0.00  0.00    +0.000 A 
ATOM      8  N   UNL     1       1.521  10.942  18.278  0.00  0.00    +0.000 N 
ATOM      9  C   UNL     1       1.857   9.616  18.463  0.00  0.00    +0.000 A 
ATOM     10  C   UNL     1       2.680   8.779  17.701  0.00  0.00    +0.000 A 
ATOM     11  C   UNL     1       2.855   7.463  18.143  0.00  0.00    +0.000 A 
ATOM     12  C   UNL     1       2.234   7.004  19.302  0.00  0.00    +0.000 A 
ATOM     13  C   UNL     1       1.416   7.851  20.054  0.00  0.00    +0.000 A 
ATOM     14  C   UNL     1       1.226   9.180  19.628  0.00  0.00    +0.000 A 
ATOM     15  C   UNL     1       0.250  12.798  19.517  0.00  0.00    +0.000 C 
ATOM     16  N   UNL     1      -0.367  12.828  20.847  0.00  0.00    +0.000 N 
ATOM     17  C   UNL     1      -0.562  13.921  21.673  0.00  0.00    +0.000 C 
ATOM     18  O   UNL     1      -0.196  15.066  21.463  0.00  0.00    +0.000 OA
ATOM     19  H   UNL     1       1.876  11.520  17.529  0.00  0.00    +0.000 HD
ENDROOT
BRANCH  15  20
ATOM     20  C   UNL     1       1.394  13.782  19.332  0.00  0.00    +0.000 A 
ATOM     21  C   UNL     1       2.629  13.557  19.960  0.00  0.00    +0.000 A 
ATOM     22  C   UNL     1       3.665  14.489  19.841  0.00  0.00    +0.000 A 
ATOM     23  C   UNL     1       3.483  15.655  19.093  0.00  0.00    +0.000 A 
ATOM     24 CL   UNL     1       4.791  16.781  19.030  0.00  0.00    +0.000 Cl
ATOM     25  C   UNL     1       2.266  15.880  18.443  0.00  0.00    +0.000 A 
ATOM     26 CL   UNL     1       1.965  17.297  17.503  0.00  0.00    +0.000 Cl
ATOM     27  C   UNL     1       1.232  14.948  18.562  0.00  0.00    +0.000 A 
ENDBRANCH  15  20
BRANCH   1  29
ATOM     28  C   UNL     1      -2.781  14.915  24.031  0.00  0.00    +0.000 C 
ATOM     29  C   UNL     1      -1.397  14.279  23.997  0.00  0.00    +0.000 C 
ENDBRANCH   1  29
TORSDOF 2
ENDMDL
MODEL 2
REMARK VINA RESULT:      -6.6      6.210      8.469
REMARK  Name = 
REMARK  3 active torsions:
REMARK  status: ('A' for Active; 'I' for Inactive)
REMARK    1  A    between atoms: C_1  and  C_2
REMARK    2  A    between atoms: C_2  and  N_3
REMARK    3  A    between atoms: C_17  and  C_18
REMARK                            x       y       z     vdW  Elec       q    Type
REMARK                         _______ _______ _______ _____ _____    ______ ____
ROOT
ATOM      1  N   UNL     1       4.462  15.075  20.061  0.00  0.00    +0.000 N 
ATOM      2  C   UNL     1       5.251  15.168  18.948  0.00  0.00    +0.000 C 
ATOM      3  O   UNL     1       4.878  15.312  17.792  0.00  0.00    +0.000 OA
ATOM      4  C   UNL     1       6.697  15.109  19.391  0.00  0.00    +0.000 C 
ATOM      5  C   UNL     1       7.498  14.066  18.619  0.00  0.00    +0.000 C 
ATOM      6  C   UNL     1       8.694  13.692  19.424  0.00  0.00    +0.000 A 
ATOM      7  C   UNL     1       8.777  13.956  20.781  0.00  0.00    +0.000 A 
ATOM      8  N   UNL     1       9.978  13.459  21.223  0.00  0.00    +0.000 N 
ATOM      9  C   UNL     1      10.643  12.840  20.184  0.00  0.00    +0.000 A 
ATOM     10  C   UNL     1      11.863  12.154  20.174  0.00  0.00    +0.000 A 
ATOM     11  C   UNL     1      12.290  11.607  18.959  0.00  0.00    +0.000 A 
ATOM     12  C   UNL     1      11.526  11.739  17.802  0.00  0.00    +0.000 A 
ATOM     13  C   UNL     1      10.309  12.426  17.826  0.00  0.00    +0.000 A 
ATOM     14  C   UNL     1       9.859  12.984  19.038  0.00  0.00    +0.000 A 
ATOM     15  C   UNL     1       7.721  14.603  21.657  0.00  0.00    +0.000 C 
ATOM     16  N   UNL     1       6.539  14.770  20.804  0.00  0.00    +0.000 N 
ATOM     17  C   UNL     1       5.217  14.898  21.193  0.00  0.00    +0.000 C 
ATOM     18  O   UNL     1       4.785  14.837  22.332  0.00  0.00    +0.000 OA
ATOM     19  H   UNL     1      10.303  13.469  22.181  0.00  0.00    +0.000 HD
ENDROOT
BRANCH  15  20
ATOM     20  C   UNL     1       7.480  13.779  22.911  0.00  0.00    +0.000 A 
ATOM     21  C   UNL     1       7.187  12.410  22.812  0.00  0.00    +0.000 A 
ATOM     22  C   UNL     1       6.906  11.661  23.959  0.00  0.00    +0.000 A 
ATOM     23  C   UNL     1       6.917  12.266  25.218  0.00  0.00    +0.000 A 
ATOM     24 CL   UNL     1       6.515  11.288  26.584  0.00  0.00    +0.000 Cl
ATOM     25  C   UNL     1       7.230  13.624  25.333  0.00  0.00    +0.000 A 
ATOM     26 CL   UNL     1       7.262  14.443  26.853  0.00  0.00    +0.000 Cl
ATOM     27  C   UNL     1       7.512  14.371  24.187  0.00  0.00    +0.000 A 
ENDBRANCH  15  20
BRANCH   1  29
ATOM     28  C   UNL     1       2.526  13.599  19.773  0.00  0.00    +0.000 C 
ATOM     29  C   UNL     1       3.015  15.019  20.027  0.00  0.00    +0.000 C 
ENDBRANCH   1  29
TORSDOF 2
ENDMDL
MODEL 3
REMARK VINA RESULT:      -6.4      1.707      5.827
REMARK  Name = 
REMARK  3 active torsions:
REMARK  status: ('A' for Active; 'I' for Inactive)
REMARK    1  A    between atoms: C_1  and  C_2
REMARK    2  A    between atoms: C_2  and  N_3
REMARK    3  A    between atoms: C_17  and  C_18
REMARK                            x       y       z     vdW  Elec       q    Type
REMARK                         _______ _______ _______ _____ _____    ______ ____
ROOT
ATOM      1  N   UNL     1       0.788  10.470  19.293  0.00  0.00    +0.000 N 
ATOM      2  C   UNL     1       0.136  10.107  20.439  0.00  0.00    +0.000 C 
ATOM      3  O   UNL     1      -0.434   9.047  20.656  0.00  0.00    +0.000 OA
ATOM      4  C   UNL     1       0.277  11.235  21.438  0.00  0.00    +0.000 C 
ATOM      5  C   UNL     1      -1.064  11.659  22.026  0.00  0.00    +0.000 C 
ATOM      6  C   UNL     1      -0.936  13.048  22.551  0.00  0.00    +0.000 A 
ATOM      7  C   UNL     1       0.096  13.886  22.164  0.00  0.00    +0.000 A 
ATOM      8  N   UNL     1      -0.096  15.091  22.794  0.00  0.00    +0.000 N 
ATOM      9  C   UNL     1      -1.257  15.053  23.539  0.00  0.00    +0.000 A 
ATOM     10  C   UNL     1      -1.875  16.053  24.299  0.00  0.00    +0.000 A 
ATOM     11  C   UNL     1      -3.073  15.730  24.945  0.00  0.00    +0.000 A 
ATOM     12  C   UNL     1      -3.632  14.459  24.833  0.00  0.00    +0.000 A 
ATOM     13  C   UNL     1      -3.005  13.471  24.070  0.00  0.00    +0.000 A 
ATOM     14  C   UNL     1      -1.798  13.773  23.410  0.00  0.00    +0.000 A 
ATOM     15  C   UNL     1       1.203  13.583  21.172  0.00  0.00    +0.000 C 
ATOM     16  N   UNL     1       0.881  12.270  20.601  0.00  0.00    +0.000 N 
ATOM     17  C   UNL     1       1.296  11.741  19.392  0.00  0.00    +0.000 C 
ATOM     18  O   UNL     1       1.967  12.304  18.543  0.00  0.00    +0.000 OA
ATOM     19  H   UNL     1       0.478  15.915  22.676  0.00  0.00    +0.000 HD
ENDROOT
BRANCH  15  20
ATOM     20  C   UNL     1       1.332  14.699  20.148  0.00  0.00    +0.000 A 
ATOM     21  C   UNL     1       0.188  15.220  19.523  0.00  0.00    +0.000 A 
ATOM     22  C   UNL     1       0.306  16.206  18.537  0.00  0.00    +0.000 A 
ATOM     23  C   UNL     1       1.564  16.685  18.166  0.00  0.00    +0.000 A 
ATOM     24 CL   UNL     1       1.634  17.869  16.909  0.00  0.00    +0.000 Cl
ATOM     25  C   UNL     1       2.710  16.192  18.797  0.00  0.00    +0.000 A 
ATOM     26 CL   UNL     1       4.299  16.733  18.391  0.00  0.00    +0.000 Cl
ATOM     27  C   UNL     1       2.591  15.208  19.782  0.00  0.00    +0.000 A 
ENDBRANCH  15  20
BRANCH   1  29
ATOM     28  C   UNL     1       2.050   8.797  18.021  0.00  0.00    +0.000 C 
ATOM     29  C   UNL     1       0.806   9.673  18.083  0.00  0.00    +0.000 C 
ENDBRANCH   1  29
TORSDOF 2
ENDMDL
MODEL 4
REMARK VINA RESULT:      -6.4      0.615      1.380
REMARK  Name = 
REMARK  3 active torsions:
REMARK  status: ('A' for Active; 'I' for Inactive)
REMARK    1  A    between atoms: C_1  and  C_2
REMARK    2  A    between atoms: C_2  and  N_3
REMARK    3  A    between atoms: C_17  and  C_18
REMARK                            x       y       z     vdW  Elec       q    Type
REMARK                         _______ _______ _______ _____ _____    ______ ____
ROOT
ATOM      1  N   UNL     1      -1.299  13.509  22.860  0.00  0.00    +0.000 N 
ATOM      2  C   UNL     1      -1.623  12.186  22.738  0.00  0.00    +0.000 C 
ATOM      3  O   UNL     1      -2.205  11.492  23.560  0.00  0.00    +0.000 OA
ATOM      4  C   UNL     1      -1.179  11.717  21.368  0.00  0.00    +0.000 C 
ATOM      5  C   UNL     1      -0.334  10.450  21.436  0.00  0.00    +0.000 C 
ATOM      6  C   UNL     1       0.481  10.355  20.192  0.00  0.00    +0.000 A 
ATOM      7  C   UNL     1       0.702  11.451  19.374  0.00  0.00    +0.000 A 
ATOM      8  N   UNL     1       1.512  11.038  18.345  0.00  0.00    +0.000 N 
ATOM      9  C   UNL     1       1.851   9.711  18.517  0.00  0.00    +0.000 A 
ATOM     10  C   UNL     1       2.689   8.888  17.755  0.00  0.00    +0.000 A 
ATOM     11  C   UNL     1       2.863   7.567  18.181  0.00  0.00    +0.000 A 
ATOM     12  C   UNL     1       2.228   7.090  19.325  0.00  0.00    +0.000 A 
ATOM     13  C   UNL     1       1.395   7.923  20.077  0.00  0.00    +0.000 A 
ATOM     14  C   UNL     1       1.206   9.257  19.667  0.00  0.00    +0.000 A 
ATOM     15  C   UNL     1       0.216  12.871  19.591  0.00  0.00    +0.000 C 
ATOM     16  N   UNL     1      -0.421  12.881  20.912  0.00  0.00    +0.000 N 
ATOM     17  C   UNL     1      -0.632  13.961  21.750  0.00  0.00    +0.000 C 
ATOM     18  O   UNL     1      -0.268  15.110  21.561  0.00  0.00    +0.000 OA
ATOM     19  H   UNL     1       1.876  11.628  17.609  0.00  0.00    +0.000 HD
ENDROOT
BRANCH  15  20
ATOM     20  C   UNL     1       1.358  13.863  19.435  0.00  0.00    +0.000 A 
ATOM     21  C   UNL     1       1.288  14.875  18.465  0.00  0.00    +0.000 A 
ATOM     22  C   UNL     1       2.361  15.752  18.278  0.00  0.00    +0.000 A 
ATOM     23  C   UNL     1       3.514  15.633  19.058  0.00  0.00    +0.000 A 
ATOM     24 CL   UNL     1       4.816  16.724  18.739  0.00  0.00    +0.000 Cl
ATOM     25  C   UNL     1       3.587  14.645  20.044  0.00  0.00    +0.000 A 
ATOM     26 CL   UNL     1       4.978  14.434  21.045  0.00  0.00    +0.000 Cl
ATOM     27  C   UNL     1       2.514  13.769  20.230  0.00  0.00    +0.000 A 
ENDBRANCH  15  20
BRANCH   1  29
ATOM     28  C   UNL     1      -2.881  14.930  24.080  0.00  0.00    +0.000 C 
ATOM     29  C   UNL     1      -1.501  14.284  24.066  0.00  0.00    +0.000 C 
ENDBRANCH   1  29
TORSDOF 2
ENDMDL
MODEL 5
REMARK VINA RESULT:      -6.3      1.871      5.826
REMARK  Name = 
REMARK  3 active torsions:
REMARK  status: ('A' for Active; 'I' for Inactive)
REMARK    1  A    between atoms: C_1  and  C_2
REMARK    2  A    between atoms: C_2  and  N_3
REMARK    3  A    between atoms: C_17  and  C_18
REMARK                            x       y       z     vdW  Elec       q    Type
REMARK                         _______ _______ _______ _____ _____    ______ ____
ROOT
ATOM      1  N   UNL     1       0.736  10.575  19.322  0.00  0.00    +0.000 N 
ATOM      2  C   UNL     1       0.169  10.268  20.528  0.00  0.00    +0.000 C 
ATOM      3  O   UNL     1      -0.392   9.225  20.833  0.00  0.00    +0.000 OA
ATOM      4  C   UNL     1       0.396  11.435  21.465  0.00  0.00    +0.000 C 
ATOM      5  C   UNL     1      -0.893  11.900  22.134  0.00  0.00    +0.000 C 
ATOM      6  C   UNL     1      -0.714  13.307  22.589  0.00  0.00    +0.000 A 
ATOM      7  C   UNL     1       0.294  14.116  22.090  0.00  0.00    +0.000 A 
ATOM      8  N   UNL     1       0.161  15.348  22.681  0.00  0.00    +0.000 N 
ATOM      9  C   UNL     1      -0.941  15.355  23.512  0.00  0.00    +0.000 A 
ATOM     10  C   UNL     1      -1.490  16.393  24.273  0.00  0.00    +0.000 A 
ATOM     11  C   UNL     1      -2.639  16.112  25.021  0.00  0.00    +0.000 A 
ATOM     12  C   UNL     1      -3.216  14.844  25.006  0.00  0.00    +0.000 A 
ATOM     13  C   UNL     1      -2.657  13.818  24.240  0.00  0.00    +0.000 A 
ATOM     14  C   UNL     1      -1.501  14.078  23.479  0.00  0.00    +0.000 A 
ATOM     15  C   UNL     1       1.319  13.759  21.030  0.00  0.00    +0.000 C 
ATOM     16  N   UNL     1       0.944  12.427  20.541  0.00  0.00    +0.000 N 
ATOM     17  C   UNL     1       1.261  11.843  19.328  0.00  0.00    +0.000 C 
ATOM     18  O   UNL     1       1.871  12.362  18.408  0.00  0.00    +0.000 OA
ATOM     19  H   UNL     1       0.732  16.160  22.485  0.00  0.00    +0.000 HD
ENDROOT
BRANCH  15  20
ATOM     20  C   UNL     1       1.380  14.830  19.953  0.00  0.00    +0.000 A 
ATOM     21  C   UNL     1       2.609  15.179  19.372  0.00  0.00    +0.000 A 
ATOM     22  C   UNL     1       2.679  16.205  18.424  0.00  0.00    +0.000 A 
ATOM     23  C   UNL     1       1.524  16.892  18.042  0.00  0.00    +0.000 A 
ATOM     24 CL   UNL     1       1.695  18.177  16.900  0.00  0.00    +0.000 Cl
ATOM     25  C   UNL     1       0.290  16.539  18.596  0.00  0.00    +0.000 A 
ATOM     26 CL   UNL     1      -1.180  17.342  18.175  0.00  0.00    +0.000 Cl
ATOM     27  C   UNL     1       0.221  15.513  19.542  0.00  0.00    +0.000 A 
ENDBRANCH  15  20
BRANCH   1  29
ATOM     28  C   UNL     1       1.910   8.881  17.996  0.00  0.00    +0.000 C 
ATOM     29  C   UNL     1       0.654   9.729  18.149  0.00  0.00    +0.000 C 
ENDBRANCH   1  29
TORSDOF 2
ENDMDL
MODEL 6
REMARK VINA RESULT:      -6.3      6.617      9.130
REMARK  Name = 
REMARK  3 active torsions:
REMARK  status: ('A' for Active; 'I' for Inactive)
REMARK    1  A    between atoms: C_1  and  C_2
REMARK    2  A    between atoms: C_2  and  N_3
REMARK    3  A    between atoms: C_17  and  C_18
REMARK                            x       y       z     vdW  Elec       q    Type
REMARK                         _______ _______ _______ _____ _____    ______ ____
ROOT
ATOM      1  N   UNL     1      10.241  13.211  18.597  0.00  0.00    +0.000 N 
ATOM      2  C   UNL     1      10.635  12.619  19.765  0.00  0.00    +0.000 C 
ATOM      3  O   UNL     1      11.439  11.706  19.891  0.00  0.00    +0.000 OA
ATOM      4  C   UNL     1       9.938  13.323  20.909  0.00  0.00    +0.000 C 
ATOM      5  C   UNL     1       9.233  12.348  21.846  0.00  0.00    +0.000 C 
ATOM      6  C   UNL     1       8.173  13.083  22.590  0.00  0.00    +0.000 A 
ATOM      7  C   UNL     1       7.688  14.307  22.158  0.00  0.00    +0.000 A 
ATOM      8  N   UNL     1       6.706  14.692  23.036  0.00  0.00    +0.000 N 
ATOM      9  C   UNL     1       6.521  13.716  23.994  0.00  0.00    +0.000 A 
ATOM     10  C   UNL     1       5.604  13.649  25.050  0.00  0.00    +0.000 A 
ATOM     11  C   UNL     1       5.636  12.513  25.866  0.00  0.00    +0.000 A 
ATOM     12  C   UNL     1       6.546  11.485  25.634  0.00  0.00    +0.000 A 
ATOM     13  C   UNL     1       7.455  11.565  24.575  0.00  0.00    +0.000 A 
ATOM     14  C   UNL     1       7.441  12.698  23.740  0.00  0.00    +0.000 A 
ATOM     15  C   UNL     1       8.093  15.066  20.908  0.00  0.00    +0.000 C 
ATOM     16  N   UNL     1       9.005  14.179  20.178  0.00  0.00    +0.000 N 
ATOM     17  C   UNL     1       9.309  14.192  18.828  0.00  0.00    +0.000 C 
ATOM     18  O   UNL     1       8.821  14.920  17.979  0.00  0.00    +0.000 OA
ATOM     19  H   UNL     1       6.141  15.528  22.958  0.00  0.00    +0.000 HD
ENDROOT
BRANCH  15  20
ATOM     20  C   UNL     1       6.870  15.499  20.118  0.00  0.00    +0.000 A 
ATOM     21  C   UNL     1       6.693  16.849  19.772  0.00  0.00    +0.000 A 
ATOM     22  C   UNL     1       5.540  17.262  19.097  0.00  0.00    +0.000 A 
ATOM     23  C   UNL     1       4.551  16.335  18.756  0.00  0.00    +0.000 A 
ATOM     24 CL   UNL     1       3.135  16.927  17.964  0.00  0.00    +0.000 Cl
ATOM     25  C   UNL     1       4.726  14.985  19.074  0.00  0.00    +0.000 A 
ATOM     26 CL   UNL     1       3.549  13.782  18.687  0.00  0.00    +0.000 Cl
ATOM     27  C   UNL     1       5.879  14.573  19.747  0.00  0.00    +0.000 A 
ENDBRANCH  15  20
BRANCH   1  29
ATOM     28  C   UNL     1      11.870  13.515  16.790  0.00  0.00    +0.000 C 
ATOM     29  C   UNL     1      10.643  12.757  17.282  0.00  0.00    +0.000 C 
ENDBRANCH   1  29
TORSDOF 2
ENDMDL
MODEL 7
REMARK VINA RESULT:      -6.2      6.395      8.745
REMARK  Name = 
REMARK  3 active torsions:
REMARK  status: ('A' for Active; 'I' for Inactive)
REMARK    1  A    between atoms: C_1  and  C_2
REMARK    2  A    between atoms: C_2  and  N_3
REMARK    3  A    between atoms: C_17  and  C_18
REMARK                            x       y       z     vdW  Elec       q    Type
REMARK                         _______ _______ _______ _____ _____    ______ ____
ROOT
ATOM      1  N   UNL     1       5.050  16.564  21.032  0.00  0.00    +0.000 N 
ATOM      2  C   UNL     1       5.820  16.725  19.913  0.00  0.00    +0.000 C 
ATOM      3  O   UNL     1       5.479  17.230  18.853  0.00  0.00    +0.000 OA
ATOM      4  C   UNL     1       7.210  16.211  20.220  0.00  0.00    +0.000 C 
ATOM      5  C   UNL     1       7.705  15.221  19.171  0.00  0.00    +0.000 C 
ATOM      6  C   UNL     1       8.780  14.384  19.776  0.00  0.00    +0.000 A 
ATOM      7  C   UNL     1       8.948  14.285  21.147  0.00  0.00    +0.000 A 
ATOM      8  N   UNL     1       9.988  13.418  21.371  0.00  0.00    +0.000 N 
ATOM      9  C   UNL     1      10.457  12.925  20.171  0.00  0.00    +0.000 A 
ATOM     10  C   UNL     1      11.461  11.985  19.912  0.00  0.00    +0.000 A 
ATOM     11  C   UNL     1      11.716  11.659  18.575  0.00  0.00    +0.000 A 
ATOM     12  C   UNL     1      10.994  12.248  17.540  0.00  0.00    +0.000 A 
ATOM     13  C   UNL     1       9.993  13.184  17.813  0.00  0.00    +0.000 A 
ATOM     14  C   UNL     1       9.719  13.526  19.152  0.00  0.00    +0.000 A 
ATOM     15  C   UNL     1       8.105  14.940  22.226  0.00  0.00    +0.000 C 
ATOM     16  N   UNL     1       6.992  15.590  21.525  0.00  0.00    +0.000 N 
ATOM     17  C   UNL     1       5.753  15.941  22.032  0.00  0.00    +0.000 C 
ATOM     18  O   UNL     1       5.337  15.714  23.156  0.00  0.00    +0.000 OA
ATOM     19  H   UNL     1      10.320  13.118  22.279  0.00  0.00    +0.000 HD
ENDROOT
BRANCH  15  20
ATOM     20  C   UNL     1       7.681  13.923  23.273  0.00  0.00    +0.000 A 
ATOM     21  C   UNL     1       6.950  12.785  22.898  0.00  0.00    +0.000 A 
ATOM     22  C   UNL     1       6.506  11.877  23.864  0.00  0.00    +0.000 A 
ATOM     23  C   UNL     1       6.789  12.091  25.216  0.00  0.00    +0.000 A 
ATOM     24 CL   UNL     1       6.169  10.951  26.356  0.00  0.00    +0.000 Cl
ATOM     25  C   UNL     1       7.537  13.208  25.601  0.00  0.00    +0.000 A 
ATOM     26 CL   UNL     1       7.924  13.541  27.250  0.00  0.00    +0.000 Cl
ATOM     27  C   UNL     1       7.980  14.114  24.634  0.00  0.00    +0.000 A 
ENDBRANCH  15  20
BRANCH   1  29
ATOM     28  C   UNL     1       2.796  15.706  20.592  0.00  0.00    +0.000 C 
ATOM     29  C   UNL     1       3.637  16.873  21.095  0.00  0.00    +0.000 C 
ENDBRANCH   1  29
TORSDOF 2
ENDMDL
MODEL 8
REMARK VINA RESULT:      -6.2      6.784      8.977
REMARK  Name = 
REMARK  3 active torsions:
REMARK  status: ('A' for Active; 'I' for Inactive)
REMARK    1  A    between atoms: C_1  and  C_2
REMARK    2  A    between atoms: C_2  and  N_3
REMARK    3  A    between atoms: C_17  and  C_18
REMARK                            x       y       z     vdW  Elec       q    Type
REMARK                         _______ _______ _______ _____ _____    ______ ____
ROOT
ATOM      1  N   UNL     1       5.570  17.221  20.886  0.00  0.00    +0.000 N 
ATOM      2  C   UNL     1       6.239  17.146  19.696  0.00  0.00    +0.000 C 
ATOM      3  O   UNL     1       5.831  17.500  18.599  0.00  0.00    +0.000 OA
ATOM      4  C   UNL     1       7.619  16.584  19.966  0.00  0.00    +0.000 C 
ATOM      5  C   UNL     1       7.954  15.407  19.058  0.00  0.00    +0.000 C 
ATOM      6  C   UNL     1       9.028  14.599  19.701  0.00  0.00    +0.000 A 
ATOM      7  C   UNL     1       9.318  14.707  21.051  0.00  0.00    +0.000 A 
ATOM      8  N   UNL     1      10.321  13.811  21.328  0.00  0.00    +0.000 N 
ATOM      9  C   UNL     1      10.645  13.101  20.190  0.00  0.00    +0.000 A 
ATOM     10  C   UNL     1      11.563  12.060  20.006  0.00  0.00    +0.000 A 
ATOM     11  C   UNL     1      11.671  11.508  18.725  0.00  0.00    +0.000 A 
ATOM     12  C   UNL     1      10.891  11.977  17.671  0.00  0.00    +0.000 A 
ATOM     13  C   UNL     1       9.978  13.017  17.869  0.00  0.00    +0.000 A 
ATOM     14  C   UNL     1       9.852  13.586  19.150  0.00  0.00    +0.000 A 
ATOM     15  C   UNL     1       8.621  15.585  22.073  0.00  0.00    +0.000 C 
ATOM     16  N   UNL     1       7.488  16.197  21.370  0.00  0.00    +0.000 N 
ATOM     17  C   UNL     1       6.325  16.714  21.913  0.00  0.00    +0.000 C 
ATOM     18  O   UNL     1       6.003  16.700  23.090  0.00  0.00    +0.000 OA
ATOM     19  H   UNL     1      10.718  13.635  22.241  0.00  0.00    +0.000 HD
ENDROOT
BRANCH  15  20
ATOM     20  C   UNL     1       8.237  14.781  23.305  0.00  0.00    +0.000 A 
ATOM     21  C   UNL     1       8.742  15.136  24.566  0.00  0.00    +0.000 A 
ATOM     22  C   UNL     1       8.439  14.364  25.693  0.00  0.00    +0.000 A 
ATOM     23  C   UNL     1       7.628  13.233  25.576  0.00  0.00    +0.000 A 
ATOM     24 CL   UNL     1       7.336  12.304  27.003  0.00  0.00    +0.000 Cl
ATOM     25  C   UNL     1       7.100  12.882  24.330  0.00  0.00    +0.000 A 
ATOM     26 CL   UNL     1       6.092  11.498  24.106  0.00  0.00    +0.000 Cl
ATOM     27  C   UNL     1       7.402  13.654  23.205  0.00  0.00    +0.000 A 
ENDBRANCH  15  20
BRANCH   1  29
ATOM     28  C   UNL     1       3.238  16.470  20.801  0.00  0.00    +0.000 C 
ATOM     29  C   UNL     1       4.190  17.640  21.014  0.00  0.00    +0.000 C 
ENDBRANCH   1  29
TORSDOF 2
ENDMDL
MODEL 9
REMARK VINA RESULT:      -6.2      6.097      8.398
REMARK  Name = 
REMARK  3 active torsions:
REMARK  status: ('A' for Active; 'I' for Inactive)
REMARK    1  A    between atoms: C_1  and  C_2
REMARK    2  A    between atoms: C_2  and  N_3
REMARK    3  A    between atoms: C_17  and  C_18
REMARK                            x       y       z     vdW  Elec       q    Type
REMARK                         _______ _______ _______ _____ _____    ______ ____
ROOT
ATOM      1  N   UNL     1       4.426  15.560  19.733  0.00  0.00    +0.000 N 
ATOM      2  C   UNL     1       5.136  15.370  18.580  0.00  0.00    +0.000 C 
ATOM      3  O   UNL     1       4.684  15.262  17.448  0.00  0.00    +0.000 OA
ATOM      4  C   UNL     1       6.609  15.362  18.929  0.00  0.00    +0.000 C 
ATOM      5  C   UNL     1       7.331  14.144  18.365  0.00  0.00    +0.000 C 
ATOM      6  C   UNL     1       8.575  13.920  19.155  0.00  0.00    +0.000 A 
ATOM      7  C   UNL     1       8.760  14.482  20.407  0.00  0.00    +0.000 A 
ATOM      8  N   UNL     1       9.979  14.056  20.872  0.00  0.00    +0.000 N 
ATOM      9  C   UNL     1      10.556  13.195  19.961  0.00  0.00    +0.000 A 
ATOM     10  C   UNL     1      11.759  12.482  20.028  0.00  0.00    +0.000 A 
ATOM     11  C   UNL     1      12.087  11.659  18.945  0.00  0.00    +0.000 A 
ATOM     12  C   UNL     1      11.245  11.552  17.841  0.00  0.00    +0.000 A 
ATOM     13  C   UNL     1      10.047  12.269  17.787  0.00  0.00    +0.000 A 
ATOM     14  C   UNL     1       9.695  13.103  18.866  0.00  0.00    +0.000 A 
ATOM     15  C   UNL     1       7.781  15.347  21.179  0.00  0.00    +0.000 C 
ATOM     16  N   UNL     1       6.545  15.358  20.389  0.00  0.00    +0.000 N 
ATOM     17  C   UNL     1       5.257  15.618  20.823  0.00  0.00    +0.000 C 
ATOM     18  O   UNL     1       4.906  15.831  21.972  0.00  0.00    +0.000 OA
ATOM     19  H   UNL     1      10.372  14.271  21.779  0.00  0.00    +0.000 HD
ENDROOT
BRANCH  15  20
ATOM     20  C   UNL     1       7.615  14.838  22.602  0.00  0.00    +0.000 A 
ATOM     21  C   UNL     1       7.891  15.680  23.691  0.00  0.00    +0.000 A 
ATOM     22  C   UNL     1       7.797  15.198  25.000  0.00  0.00    +0.000 A 
ATOM     23  C   UNL     1       7.423  13.874  25.240  0.00  0.00    +0.000 A 
ATOM     24 CL   UNL     1       7.372  13.337  26.881  0.00  0.00    +0.000 Cl
ATOM     25  C   UNL     1       7.122  13.031  24.165  0.00  0.00    +0.000 A 
ATOM     26 CL   UNL     1       6.655  11.383  24.381  0.00  0.00    +0.000 Cl
ATOM     27  C   UNL     1       7.215  13.514  22.857  0.00  0.00    +0.000 A 
ENDBRANCH  15  20
BRANCH   1  29
ATOM     28  C   UNL     1       2.448  14.128  19.952  0.00  0.00    +0.000 C 
ATOM     29  C   UNL     1       2.980  15.548  19.806  0.00  0.00    +0.000 C 
ENDBRANCH   1  29
TORSDOF 2
ENDMDL
