MODEL 1
REMARK VINA RESULT:      -7.3      0.000      0.000
REMARK  Name = 
REMARK  4 active torsions:
REMARK  status: ('A' for Active; 'I' for Inactive)
REMARK    1  A    between atoms: C_2  and  C_3
REMARK    2  A    between atoms: C_12  and  C_13
REMARK    3  A    between atoms: C_13  and  C_14
REMARK    4  A    between atoms: N_16  and  C_17
REMARK                            x       y       z     vdW  Elec       q    Type
REMARK                         _______ _______ _______ _____ _____    ______ ____
ROOT
ATOM      1  O   UNL     1       3.782   2.329  19.008  0.00  0.00    +0.000 OA
ATOM      2  C   UNL     1       2.764   2.886  19.411  0.00  0.00    +0.000 C 
ATOM      3  N   UNL     1       2.353   4.162  18.996  0.00  0.00    +0.000 N 
ATOM      4  C   UNL     1       1.238   4.881  19.617  0.00  0.00    +0.000 C 
ATOM      5  C   UNL     1       1.700   6.190  20.257  0.00  0.00    +0.000 C 
ATOM      6  C   UNL     1       2.470   7.049  19.261  0.00  0.00    +0.000 C 
ATOM      7  C   UNL     1       3.640   6.257  18.637  0.00  0.00    +0.000 C 
ATOM      8  C   UNL     1       4.383   7.169  17.647  0.00  0.00    +0.000 C 
ATOM      9  C   UNL     1       5.426   6.460  16.765  0.00  0.00    +0.000 C 
ATOM     10  C   UNL     1       4.767   5.237  16.106  0.00  0.00    +0.000 C 
ATOM     11  C   UNL     1       4.103   4.267  17.083  0.00  0.00    +0.000 C 
ATOM     12  C   UNL     1       3.076   4.974  17.979  0.00  0.00    +0.000 C 
ENDROOT
BRANCH   9  13
ATOM     13  C   UNL     1       6.811   6.248  17.467  0.00  0.00    +0.000 C 
ATOM     14  C   UNL     1       6.935   5.785  18.983  0.00  0.00    +0.000 C 
ATOM     15  C   UNL     1       8.040   4.806  18.556  0.00  0.00    +0.000 C 
ATOM     16  C   UNL     1       7.507   4.879  17.121  0.00  0.00    +0.000 C 
BRANCH  13  17
ATOM     17  C   UNL     1       7.705   7.565  17.281  0.00  0.00    +0.000 C 
ATOM     18  O   UNL     1       8.576   7.599  16.399  0.00  0.00    +0.000 OA
ATOM     19  N   UNL     1       7.495   8.599  18.190  0.00  0.00    +0.000 N 
ATOM     20  H   UNL     1       6.881   8.416  18.972  0.00  0.00    +0.000 HD
BRANCH  19  21
ATOM     21  C   UNL     1       8.311   9.758  18.260  0.00  0.00    +0.000 A 
ATOM     22  C   UNL     1       9.418   9.850  19.116  0.00  0.00    +0.000 A 
ATOM     23  C   UNL     1      10.074  11.064  19.320  0.00  0.00    +0.000 A 
ATOM     24  C   UNL     1       9.654  12.184  18.626  0.00  0.00    +0.000 A 
ATOM     25  F   UNL     1      10.243  13.363  18.860  0.00  0.00    +0.000 F 
ATOM     26  C   UNL     1       8.625  12.097  17.694  0.00  0.00    +0.000 A 
ATOM     27  C   UNL     1       7.960  10.879  17.498  0.00  0.00    +0.000 A 
ENDBRANCH  19  21
ENDBRANCH  13  17
ENDBRANCH   9  13
BRANCH   2  28
ATOM     28  C   UNL     1       1.917   2.162  20.409  0.00  0.00    +0.000 C 
ATOM     29  C   UNL     1       2.331   2.031  21.855  0.00  0.00    +0.000 C 
ATOM     30  C   UNL     1       1.204   2.947  21.482  0.00  0.00    +0.000 C 
ENDBRANCH   2  28
TORSDOF 4
ENDMDL
MODEL 2
REMARK VINA RESULT:      -7.3      8.857     11.525
REMARK  Name = 
REMARK  4 active torsions:
REMARK  status: ('A' for Active; 'I' for Inactive)
REMARK    1  A    between atoms: C_2  and  C_3
REMARK    2  A    between atoms: C_12  and  C_13
REMARK    3  A    between atoms: C_13  and  C_14
REMARK    4  A    between atoms: N_16  and  C_17
REMARK                            x       y       z     vdW  Elec       q    Type
REMARK                         _______ _______ _______ _____ _____    ______ ____
ROOT
ATOM      1  O   UNL     1      -5.022  12.412  19.769  0.00  0.00    +0.000 OA
ATOM      2  C   UNL     1      -5.523  12.757  20.837  0.00  0.00    +0.000 C 
ATOM      3  N   UNL     1      -4.783  13.221  21.935  0.00  0.00    +0.000 N 
ATOM      4  C   UNL     1      -5.377  13.457  23.253  0.00  0.00    +0.000 C 
ATOM      5  C   UNL     1      -4.753  12.559  24.320  0.00  0.00    +0.000 C 
ATOM      6  C   UNL     1      -3.234  12.687  24.329  0.00  0.00    +0.000 C 
ATOM      7  C   UNL     1      -2.648  12.423  22.925  0.00  0.00    +0.000 C 
ATOM      8  C   UNL     1      -1.119  12.562  22.992  0.00  0.00    +0.000 C 
ATOM      9  C   UNL     1      -0.404  12.564  21.629  0.00  0.00    +0.000 C 
ATOM     10  C   UNL     1      -1.081  13.602  20.718  0.00  0.00    +0.000 C 
ATOM     11  C   UNL     1      -2.591  13.425  20.563  0.00  0.00    +0.000 C 
ATOM     12  C   UNL     1      -3.305  13.402  21.921  0.00  0.00    +0.000 C 
ENDROOT
BRANCH   9  13
ATOM     13  C   UNL     1      -0.157  11.133  21.039  0.00  0.00    +0.000 C 
ATOM     14  C   UNL     1       1.225  10.366  21.216  0.00  0.00    +0.000 C 
ATOM     15  C   UNL     1       0.433   9.090  21.542  0.00  0.00    +0.000 C 
ATOM     16  C   UNL     1      -0.772   9.966  21.898  0.00  0.00    +0.000 C 
BRANCH  13  17
ATOM     17  C   UNL     1      -0.522  11.134  19.479  0.00  0.00    +0.000 C 
ATOM     18  O   UNL     1       0.215  11.723  18.674  0.00  0.00    +0.000 OA
ATOM     19  N   UNL     1      -1.717  10.519  19.114  0.00  0.00    +0.000 N 
ATOM     20  H   UNL     1      -2.330  10.211  19.857  0.00  0.00    +0.000 HD
BRANCH  19  21
ATOM     21  C   UNL     1      -2.259  10.576  17.803  0.00  0.00    +0.000 A 
ATOM     22  C   UNL     1      -3.291  11.458  17.452  0.00  0.00    +0.000 A 
ATOM     23  C   UNL     1      -3.946  11.351  16.226  0.00  0.00    +0.000 A 
ATOM     24  C   UNL     1      -3.534  10.389  15.321  0.00  0.00    +0.000 A 
ATOM     25  F   UNL     1      -4.194  10.246  14.166  0.00  0.00    +0.000 F 
ATOM     26  C   UNL     1      -2.445   9.570  15.603  0.00  0.00    +0.000 A 
ATOM     27  C   UNL     1      -1.795   9.672  16.840  0.00  0.00    +0.000 A 
ENDBRANCH  19  21
ENDBRANCH  13  17
ENDBRANCH   9  13
BRANCH   2  28
ATOM     28  C   UNL     1      -7.009  12.666  20.975  0.00  0.00    +0.000 C 
ATOM     29  C   UNL     1      -7.915  13.809  20.583  0.00  0.00    +0.000 C 
ATOM     30  C   UNL     1      -7.863  12.575  19.734  0.00  0.00    +0.000 C 
ENDBRANCH   2  28
TORSDOF 4
ENDMDL
MODEL 3
REMARK VINA RESULT:      -7.3      6.746      9.248
REMARK  Name = 
REMARK  4 active torsions:
REMARK  status: ('A' for Active; 'I' for Inactive)
REMARK    1  A    between atoms: C_2  and  C_3
REMARK    2  A    between atoms: C_12  and  C_13
REMARK    3  A    between atoms: C_13  and  C_14
REMARK    4  A    between atoms: N_16  and  C_17
REMARK                            x       y       z     vdW  Elec       q    Type
REMARK                         _______ _______ _______ _____ _____    ______ ____
ROOT
ATOM      1  O   UNL     1      -3.962  10.911  18.341  0.00  0.00    +0.000 OA
ATOM      2  C   UNL     1      -4.339  11.859  19.025  0.00  0.00    +0.000 C 
ATOM      3  N   UNL     1      -3.475  12.706  19.736  0.00  0.00    +0.000 N 
ATOM      4  C   UNL     1      -3.950  13.716  20.683  0.00  0.00    +0.000 C 
ATOM      5  C   UNL     1      -3.442  13.443  22.098  0.00  0.00    +0.000 C 
ATOM      6  C   UNL     1      -1.925  13.288  22.118  0.00  0.00    +0.000 C 
ATOM      7  C   UNL     1      -1.467  12.209  21.113  0.00  0.00    +0.000 C 
ATOM      8  C   UNL     1       0.064  12.091  21.177  0.00  0.00    +0.000 C 
ATOM      9  C   UNL     1       0.698  11.231  20.069  0.00  0.00    +0.000 C 
ATOM     10  C   UNL     1       0.170  11.711  18.708  0.00  0.00    +0.000 C 
ATOM     11  C   UNL     1      -1.353  11.747  18.591  0.00  0.00    +0.000 C 
ATOM     12  C   UNL     1      -1.991  12.587  19.706  0.00  0.00    +0.000 C 
ENDROOT
BRANCH   9  13
ATOM     13  C   UNL     1       0.659   9.691  20.360  0.00  0.00    +0.000 C 
ATOM     14  C   UNL     1       1.172   9.071  21.731  0.00  0.00    +0.000 C 
ATOM     15  C   UNL     1      -0.075   8.172  21.748  0.00  0.00    +0.000 C 
ATOM     16  C   UNL     1      -0.757   9.151  20.788  0.00  0.00    +0.000 C 
BRANCH  13  17
ATOM     17  C   UNL     1       1.385   8.909  19.164  0.00  0.00    +0.000 C 
ATOM     18  O   UNL     1       1.175   9.247  17.990  0.00  0.00    +0.000 OA
ATOM     19  N   UNL     1       2.176   7.819  19.517  0.00  0.00    +0.000 N 
ATOM     20  H   UNL     1       2.155   7.520  20.483  0.00  0.00    +0.000 HD
BRANCH  19  21
ATOM     21  C   UNL     1       2.752   6.930  18.572  0.00  0.00    +0.000 A 
ATOM     22  C   UNL     1       2.356   5.590  18.459  0.00  0.00    +0.000 A 
ATOM     23  C   UNL     1       3.074   4.688  17.675  0.00  0.00    +0.000 A 
ATOM     24  C   UNL     1       4.168   5.139  16.957  0.00  0.00    +0.000 A 
ATOM     25  F   UNL     1       4.895   4.267  16.248  0.00  0.00    +0.000 F 
ATOM     26  C   UNL     1       4.520   6.484  16.971  0.00  0.00    +0.000 A 
ATOM     27  C   UNL     1       3.803   7.387  17.768  0.00  0.00    +0.000 A 
ENDBRANCH  19  21
ENDBRANCH  13  17
ENDBRANCH   9  13
BRANCH   2  28
ATOM     28  C   UNL     1      -5.810  12.120  19.110  0.00  0.00    +0.000 C 
ATOM     29  C   UNL     1      -6.545  12.880  18.032  0.00  0.00    +0.000 C 
ATOM     30  C   UNL     1      -6.744  11.401  18.168  0.00  0.00    +0.000 C 
ENDBRANCH   2  28
TORSDOF 4
ENDMDL
MODEL 4
REMARK VINA RESULT:      -7.1      7.015      9.617
REMARK  Name = 
REMARK  4 active torsions:
REMARK  status: ('A' for Active; 'I' for Inactive)
REMARK    1  A    between atoms: C_2  and  C_3
REMARK    2  A    between atoms: C_12  and  C_13
REMARK    3  A    between atoms: C_13  and  C_14
REMARK    4  A    between atoms: N_16  and  C_17
REMARK                            x       y       z     vdW  Elec       q    Type
REMARK                         _______ _______ _______ _____ _____    ______ ____
ROOT
ATOM      1  O   UNL     1      -3.886  12.110  19.828  0.00  0.00    +0.000 OA
ATOM      2  C   UNL     1      -3.747  13.155  20.460  0.00  0.00    +0.000 C 
ATOM      3  N   UNL     1      -2.510  13.782  20.675  0.00  0.00    +0.000 N 
ATOM      4  C   UNL     1      -2.341  14.924  21.576  0.00  0.00    +0.000 C 
ATOM      5  C   UNL     1      -1.392  14.596  22.728  0.00  0.00    +0.000 C 
ATOM      6  C   UNL     1      -0.064  14.055  22.210  0.00  0.00    +0.000 C 
ATOM      7  C   UNL     1      -0.285  12.849  21.271  0.00  0.00    +0.000 C 
ATOM      8  C   UNL     1       1.081  12.343  20.784  0.00  0.00    +0.000 C 
ATOM      9  C   UNL     1       1.025  11.298  19.655  0.00  0.00    +0.000 C 
ATOM     10  C   UNL     1       0.125  11.834  18.530  0.00  0.00    +0.000 C 
ATOM     11  C   UNL     1      -1.274  12.256  18.978  0.00  0.00    +0.000 C 
ATOM     12  C   UNL     1      -1.222  13.283  20.118  0.00  0.00    +0.000 C 
ENDROOT
BRANCH   9  13
ATOM     13  C   UNL     1       0.765   9.835  20.157  0.00  0.00    +0.000 C 
ATOM     14  C   UNL     1       1.092   9.375  21.643  0.00  0.00    +0.000 C 
ATOM     15  C   UNL     1      -0.258   8.642  21.674  0.00  0.00    +0.000 C 
ATOM     16  C   UNL     1      -0.736   9.537  20.527  0.00  0.00    +0.000 C 
BRANCH  13  17
ATOM     17  C   UNL     1       1.469   8.801  19.155  0.00  0.00    +0.000 C 
ATOM     18  O   UNL     1       1.299   8.915  17.933  0.00  0.00    +0.000 OA
ATOM     19  N   UNL     1       2.192   7.762  19.734  0.00  0.00    +0.000 N 
ATOM     20  H   UNL     1       2.138   7.657  20.738  0.00  0.00    +0.000 HD
BRANCH  19  21
ATOM     21  C   UNL     1       2.736   6.678  18.994  0.00  0.00    +0.000 A 
ATOM     22  C   UNL     1       3.815   6.833  18.113  0.00  0.00    +0.000 A 
ATOM     23  C   UNL     1       4.194   5.807  17.248  0.00  0.00    +0.000 A 
ATOM     24  C   UNL     1       3.521   4.599  17.297  0.00  0.00    +0.000 A 
ATOM     25  F   UNL     1       3.842   3.631  16.431  0.00  0.00    +0.000 F 
ATOM     26  C   UNL     1       2.514   4.385  18.233  0.00  0.00    +0.000 A 
ATOM     27  C   UNL     1       2.129   5.421  19.095  0.00  0.00    +0.000 A 
ENDBRANCH  19  21
ENDBRANCH  13  17
ENDBRANCH   9  13
BRANCH   2  28
ATOM     28  C   UNL     1      -4.970  13.790  21.042  0.00  0.00    +0.000 C 
ATOM     29  C   UNL     1      -5.850  14.710  20.230  0.00  0.00    +0.000 C 
ATOM     30  C   UNL     1      -6.332  13.334  20.578  0.00  0.00    +0.000 C 
ENDBRANCH   2  28
TORSDOF 4
ENDMDL
MODEL 5
REMARK VINA RESULT:      -7.1      6.943      9.603
REMARK  Name = 
REMARK  4 active torsions:
REMARK  status: ('A' for Active; 'I' for Inactive)
REMARK    1  A    between atoms: C_2  and  C_3
REMARK    2  A    between atoms: C_12  and  C_13
REMARK    3  A    between atoms: C_13  and  C_14
REMARK    4  A    between atoms: N_16  and  C_17
REMARK                            x       y       z     vdW  Elec       q    Type
REMARK                         _______ _______ _______ _____ _____    ______ ____
ROOT
ATOM      1  O   UNL     1      -1.630  13.476  22.708  0.00  0.00    +0.000 OA
ATOM      2  C   UNL     1      -0.836  14.403  22.848  0.00  0.00    +0.000 C 
ATOM      3  N   UNL     1       0.144  14.745  21.903  0.00  0.00    +0.000 N 
ATOM      4  C   UNL     1       1.191  15.735  22.164  0.00  0.00    +0.000 C 
ATOM      5  C   UNL     1       2.585  15.110  22.097  0.00  0.00    +0.000 C 
ATOM      6  C   UNL     1       2.793  14.367  20.782  0.00  0.00    +0.000 C 
ATOM      7  C   UNL     1       1.674  13.329  20.550  0.00  0.00    +0.000 C 
ATOM      8  C   UNL     1       1.935  12.610  19.218  0.00  0.00    +0.000 C 
ATOM      9  C   UNL     1       0.784  11.714  18.724  0.00  0.00    +0.000 C 
ATOM     10  C   UNL     1      -0.519  12.528  18.744  0.00  0.00    +0.000 C 
ATOM     11  C   UNL     1      -0.846  13.176  20.089  0.00  0.00    +0.000 C 
ATOM     12  C   UNL     1       0.307  14.054  20.594  0.00  0.00    +0.000 C 
ENDROOT
BRANCH   9  13
ATOM     13  C   UNL     1       0.761  10.291  19.383  0.00  0.00    +0.000 C 
ATOM     14  C   UNL     1       1.173  10.048  20.899  0.00  0.00    +0.000 C 
ATOM     15  C   UNL     1      -0.046   9.125  21.044  0.00  0.00    +0.000 C 
ATOM     16  C   UNL     1      -0.671   9.808  19.824  0.00  0.00    +0.000 C 
BRANCH  13  17
ATOM     17  C   UNL     1       1.604   9.275  18.474  0.00  0.00    +0.000 C 
ATOM     18  O   UNL     1       1.797   9.533  17.277  0.00  0.00    +0.000 OA
ATOM     19  N   UNL     1       2.024   8.093  19.080  0.00  0.00    +0.000 N 
ATOM     20  H   UNL     1       1.679   7.897  20.010  0.00  0.00    +0.000 HD
BRANCH  19  21
ATOM     21  C   UNL     1       2.635   7.025  18.372  0.00  0.00    +0.000 A 
ATOM     22  C   UNL     1       2.100   5.729  18.353  0.00  0.00    +0.000 A 
ATOM     23  C   UNL     1       2.822   4.657  17.831  0.00  0.00    +0.000 A 
ATOM     24  C   UNL     1       4.069   4.888  17.277  0.00  0.00    +0.000 A 
ATOM     25  F   UNL     1       4.790   3.855  16.825  0.00  0.00    +0.000 F 
ATOM     26  C   UNL     1       4.579   6.180  17.191  0.00  0.00    +0.000 A 
ATOM     27  C   UNL     1       3.855   7.255  17.726  0.00  0.00    +0.000 A 
ENDBRANCH  19  21
ENDBRANCH  13  17
ENDBRANCH   9  13
BRANCH   2  28
ATOM     28  C   UNL     1      -0.916  15.210  24.105  0.00  0.00    +0.000 C 
ATOM     29  C   UNL     1      -1.886  16.357  24.252  0.00  0.00    +0.000 C 
ATOM     30  C   UNL     1      -2.128  15.078  24.993  0.00  0.00    +0.000 C 
ENDBRANCH   2  28
TORSDOF 4
ENDMDL
MODEL 6
REMARK VINA RESULT:      -7.1      8.055      9.877
REMARK  Name = 
REMARK  4 active torsions:
REMARK  status: ('A' for Active; 'I' for Inactive)
REMARK    1  A    between atoms: C_2  and  C_3
REMARK    2  A    between atoms: C_12  and  C_13
REMARK    3  A    between atoms: C_13  and  C_14
REMARK    4  A    between atoms: N_16  and  C_17
REMARK                            x       y       z     vdW  Elec       q    Type
REMARK                         _______ _______ _______ _____ _____    ______ ____
ROOT
ATOM      1  O   UNL     1       1.901   9.845  18.032  0.00  0.00    +0.000 OA
ATOM      2  C   UNL     1       1.733   8.975  18.884  0.00  0.00    +0.000 C 
ATOM      3  N   UNL     1       0.762   9.046  19.895  0.00  0.00    +0.000 N 
ATOM      4  C   UNL     1       0.694   8.090  21.002  0.00  0.00    +0.000 C 
ATOM      5  C   UNL     1       0.897   8.777  22.352  0.00  0.00    +0.000 C 
ATOM      6  C   UNL     1      -0.066   9.947  22.526  0.00  0.00    +0.000 C 
ATOM      7  C   UNL     1       0.043  10.933  21.343  0.00  0.00    +0.000 C 
ATOM      8  C   UNL     1      -0.942  12.090  21.570  0.00  0.00    +0.000 C 
ATOM      9  C   UNL     1      -1.129  13.034  20.369  0.00  0.00    +0.000 C 
ATOM     10  C   UNL     1      -1.440  12.190  19.122  0.00  0.00    +0.000 C 
ATOM     11  C   UNL     1      -0.420  11.092  18.823  0.00  0.00    +0.000 C 
ATOM     12  C   UNL     1      -0.216  10.161  20.026  0.00  0.00    +0.000 C 
ENDROOT
BRANCH   9  13
ATOM     13  C   UNL     1      -0.014  14.129  20.244  0.00  0.00    +0.000 C 
ATOM     14  C   UNL     1       1.384  13.845  19.542  0.00  0.00    +0.000 C 
ATOM     15  C   UNL     1       1.261  15.201  18.831  0.00  0.00    +0.000 C 
ATOM     16  C   UNL     1      -0.250  15.160  19.077  0.00  0.00    +0.000 C 
BRANCH  13  17
ATOM     17  C   UNL     1       0.279  14.751  21.691  0.00  0.00    +0.000 C 
ATOM     18  O   UNL     1       1.352  14.504  22.262  0.00  0.00    +0.000 OA
ATOM     19  N   UNL     1      -0.744  15.496  22.273  0.00  0.00    +0.000 N 
ATOM     20  H   UNL     1      -1.640  15.505  21.804  0.00  0.00    +0.000 HD
BRANCH  19  21
ATOM     21  C   UNL     1      -0.703  15.974  23.609  0.00  0.00    +0.000 A 
ATOM     22  C   UNL     1       0.057  17.090  23.988  0.00  0.00    +0.000 A 
ATOM     23  C   UNL     1       0.246  17.413  25.331  0.00  0.00    +0.000 A 
ATOM     24  C   UNL     1      -0.368  16.645  26.303  0.00  0.00    +0.000 A 
ATOM     25  F   UNL     1      -0.145  16.915  27.595  0.00  0.00    +0.000 F 
ATOM     26  C   UNL     1      -1.210  15.594  25.951  0.00  0.00    +0.000 A 
ATOM     27  C   UNL     1      -1.392  15.266  24.601  0.00  0.00    +0.000 A 
ENDBRANCH  19  21
ENDBRANCH  13  17
ENDBRANCH   9  13
BRANCH   2  28
ATOM     28  C   UNL     1       2.623   7.774  18.844  0.00  0.00    +0.000 C 
ATOM     29  C   UNL     1       2.300   6.574  17.986  0.00  0.00    +0.000 C 
ATOM     30  C   UNL     1       3.424   7.488  17.597  0.00  0.00    +0.000 C 
ENDBRANCH   2  28
TORSDOF 4
ENDMDL
MODEL 7
REMARK VINA RESULT:      -7.0      6.791     10.534
REMARK  Name = 
REMARK  4 active torsions:
REMARK  status: ('A' for Active; 'I' for Inactive)
REMARK    1  A    between atoms: C_2  and  C_3
REMARK    2  A    between atoms: C_12  and  C_13
REMARK    3  A    between atoms: C_13  and  C_14
REMARK    4  A    between atoms: N_16  and  C_17
REMARK                            x       y       z     vdW  Elec       q    Type
REMARK                         _______ _______ _______ _____ _____    ______ ____
ROOT
ATOM      1  O   UNL     1       2.996  14.971  22.645  0.00  0.00    +0.000 OA
ATOM      2  C   UNL     1       3.688  15.185  21.653  0.00  0.00    +0.000 C 
ATOM      3  N   UNL     1       3.183  15.246  20.344  0.00  0.00    +0.000 N 
ATOM      4  C   UNL     1       4.042  15.325  19.162  0.00  0.00    +0.000 C 
ATOM      5  C   UNL     1       3.855  14.114  18.248  0.00  0.00    +0.000 C 
ATOM      6  C   UNL     1       2.385  13.914  17.894  0.00  0.00    +0.000 C 
ATOM      7  C   UNL     1       1.516  13.828  19.167  0.00  0.00    +0.000 C 
ATOM      8  C   UNL     1       0.051  13.622  18.754  0.00  0.00    +0.000 C 
ATOM      9  C   UNL     1      -0.974  13.755  19.894  0.00  0.00    +0.000 C 
ATOM     10  C   UNL     1      -0.719  15.077  20.636  0.00  0.00    +0.000 C 
ATOM     11  C   UNL     1       0.713  15.260  21.139  0.00  0.00    +0.000 C 
ATOM     12  C   UNL     1       1.738  15.108  20.008  0.00  0.00    +0.000 C 
ENDROOT
BRANCH   9  13
ATOM     13  C   UNL     1      -1.132  12.457  20.760  0.00  0.00    +0.000 C 
ATOM     14  C   UNL     1      -0.521  12.329  22.222  0.00  0.00    +0.000 C 
ATOM     15  C   UNL     1      -1.839  11.684  22.677  0.00  0.00    +0.000 C 
ATOM     16  C   UNL     1      -2.532  12.319  21.467  0.00  0.00    +0.000 C 
BRANCH  13  17
ATOM     17  C   UNL     1      -0.639  11.192  19.908  0.00  0.00    +0.000 C 
ATOM     18  O   UNL     1      -1.413  10.648  19.108  0.00  0.00    +0.000 OA
ATOM     19  N   UNL     1       0.643  10.718  20.174  0.00  0.00    +0.000 N 
ATOM     20  H   UNL     1       1.138  11.124  20.958  0.00  0.00    +0.000 HD
BRANCH  19  21
ATOM     21  C   UNL     1       1.165   9.517  19.626  0.00  0.00    +0.000 A 
ATOM     22  C   UNL     1       1.354   8.358  20.393  0.00  0.00    +0.000 A 
ATOM     23  C   UNL     1       2.056   7.265  19.888  0.00  0.00    +0.000 A 
ATOM     24  C   UNL     1       2.531   7.308  18.589  0.00  0.00    +0.000 A 
ATOM     25  F   UNL     1       3.254   6.285  18.118  0.00  0.00    +0.000 F 
ATOM     26  C   UNL     1       2.267   8.404  17.773  0.00  0.00    +0.000 A 
ATOM     27  C   UNL     1       1.569   9.506  18.286  0.00  0.00    +0.000 A 
ENDBRANCH  19  21
ENDBRANCH  13  17
ENDBRANCH   9  13
BRANCH   2  28
ATOM     28  C   UNL     1       5.157  15.384  21.852  0.00  0.00    +0.000 C 
ATOM     29  C   UNL     1       5.734  16.733  22.208  0.00  0.00    +0.000 C 
ATOM     30  C   UNL     1       5.686  15.647  23.240  0.00  0.00    +0.000 C 
ENDBRANCH   2  28
TORSDOF 4
ENDMDL
MODEL 8
REMARK VINA RESULT:      -7.0      6.313      9.865
REMARK  Name = 
REMARK  4 active torsions:
REMARK  status: ('A' for Active; 'I' for Inactive)
REMARK    1  A    between atoms: C_2  and  C_3
REMARK    2  A    between atoms: C_12  and  C_13
REMARK    3  A    between atoms: C_13  and  C_14
REMARK    4  A    between atoms: N_16  and  C_17
REMARK                            x       y       z     vdW  Elec       q    Type
REMARK                         _______ _______ _______ _____ _____    ______ ____
ROOT
ATOM      1  O   UNL     1       0.161  14.002  22.001  0.00  0.00    +0.000 OA
ATOM      2  C   UNL     1       0.740  14.627  21.116  0.00  0.00    +0.000 C 
ATOM      3  N   UNL     1       0.973  14.126  19.826  0.00  0.00    +0.000 N 
ATOM      4  C   UNL     1       1.817  14.811  18.845  0.00  0.00    +0.000 C 
ATOM      5  C   UNL     1       3.024  13.961  18.450  0.00  0.00    +0.000 C 
ATOM      6  C   UNL     1       2.593  12.574  17.987  0.00  0.00    +0.000 C 
ATOM      7  C   UNL     1       1.713  11.883  19.052  0.00  0.00    +0.000 C 
ATOM      8  C   UNL     1       1.312  10.492  18.537  0.00  0.00    +0.000 C 
ATOM      9  C   UNL     1       0.241   9.771  19.374  0.00  0.00    +0.000 C 
ATOM     10  C   UNL     1      -0.949  10.723  19.580  0.00  0.00    +0.000 C 
ATOM     11  C   UNL     1      -0.584  12.080  20.180  0.00  0.00    +0.000 C 
ATOM     12  C   UNL     1       0.499  12.793  19.358  0.00  0.00    +0.000 C 
ENDROOT
BRANCH   9  13
ATOM     13  C   UNL     1       0.810   9.038  20.638  0.00  0.00    +0.000 C 
ATOM     14  C   UNL     1       1.663   9.794  21.747  0.00  0.00    +0.000 C 
ATOM     15  C   UNL     1       0.852   9.054  22.822  0.00  0.00    +0.000 C 
ATOM     16  C   UNL     1      -0.247   8.811  21.783  0.00  0.00    +0.000 C 
BRANCH  13  17
ATOM     17  C   UNL     1       1.640   7.749  20.172  0.00  0.00    +0.000 C 
ATOM     18  O   UNL     1       2.581   7.878  19.375  0.00  0.00    +0.000 OA
ATOM     19  N   UNL     1       1.201   6.516  20.645  0.00  0.00    +0.000 N 
ATOM     20  H   UNL     1       0.329   6.495  21.156  0.00  0.00    +0.000 HD
BRANCH  19  21
ATOM     21  C   UNL     1       1.725   5.274  20.199  0.00  0.00    +0.000 A 
ATOM     22  C   UNL     1       1.644   4.858  18.862  0.00  0.00    +0.000 A 
ATOM     23  C   UNL     1       1.974   3.555  18.490  0.00  0.00    +0.000 A 
ATOM     24  C   UNL     1       2.437   2.675  19.451  0.00  0.00    +0.000 A 
ATOM     25  F   UNL     1       2.702   1.408  19.111  0.00  0.00    +0.000 F 
ATOM     26  C   UNL     1       2.624   3.092  20.765  0.00  0.00    +0.000 A 
ATOM     27  C   UNL     1       2.283   4.399  21.139  0.00  0.00    +0.000 A 
ENDBRANCH  19  21
ENDBRANCH  13  17
ENDBRANCH   9  13
BRANCH   2  28
ATOM     28  C   UNL     1       1.235  16.002  21.438  0.00  0.00    +0.000 C 
ATOM     29  C   UNL     1       0.344  17.215  21.316  0.00  0.00    +0.000 C 
ATOM     30  C   UNL     1       0.722  16.702  22.673  0.00  0.00    +0.000 C 
ENDBRANCH   2  28
TORSDOF 4
ENDMDL
MODEL 9
REMARK VINA RESULT:      -7.0      6.892      9.772
REMARK  Name = 
REMARK  4 active torsions:
REMARK  status: ('A' for Active; 'I' for Inactive)
REMARK    1  A    between atoms: C_2  and  C_3
REMARK    2  A    between atoms: C_12  and  C_13
REMARK    3  A    between atoms: C_13  and  C_14
REMARK    4  A    between atoms: N_16  and  C_17
REMARK                            x       y       z     vdW  Elec       q    Type
REMARK                         _______ _______ _______ _____ _____    ______ ____
ROOT
ATOM      1  O   UNL     1      -3.639  12.086  20.024  0.00  0.00    +0.000 OA
ATOM      2  C   UNL     1      -3.376  13.226  20.398  0.00  0.00    +0.000 C 
ATOM      3  N   UNL     1      -2.082  13.770  20.403  0.00  0.00    +0.000 N 
ATOM      4  C   UNL     1      -1.763  15.061  21.016  0.00  0.00    +0.000 C 
ATOM      5  C   UNL     1      -0.764  14.908  22.162  0.00  0.00    +0.000 C 
ATOM      6  C   UNL     1       0.479  14.149  21.711  0.00  0.00    +0.000 C 
ATOM      7  C   UNL     1       0.100  12.792  21.079  0.00  0.00    +0.000 C 
ATOM      8  C   UNL     1       1.385  12.069  20.648  0.00  0.00    +0.000 C 
ATOM      9  C   UNL     1       1.169  10.812  19.787  0.00  0.00    +0.000 C 
ATOM     10  C   UNL     1       0.237  11.169  18.618  0.00  0.00    +0.000 C 
ATOM     11  C   UNL     1      -1.090  11.804  19.031  0.00  0.00    +0.000 C 
ATOM     12  C   UNL     1      -0.879  13.046  19.907  0.00  0.00    +0.000 C 
ENDROOT
BRANCH   9  13
ATOM     13  C   UNL     1       0.833   9.525  20.616  0.00  0.00    +0.000 C 
ATOM     14  C   UNL     1       1.075   9.436  22.185  0.00  0.00    +0.000 C 
ATOM     15  C   UNL     1      -0.301   8.766  22.322  0.00  0.00    +0.000 C 
ATOM     16  C   UNL     1      -0.693   9.364  20.967  0.00  0.00    +0.000 C 
BRANCH  13  17
ATOM     17  C   UNL     1       1.543   8.259  19.936  0.00  0.00    +0.000 C 
ATOM     18  O   UNL     1       1.802   8.275  18.724  0.00  0.00    +0.000 OA
ATOM     19  N   UNL     1       1.769   7.154  20.753  0.00  0.00    +0.000 N 
ATOM     20  H   UNL     1       1.376   7.173  21.684  0.00  0.00    +0.000 HD
BRANCH  19  21
ATOM     21  C   UNL     1       2.237   5.904  20.268  0.00  0.00    +0.000 A 
ATOM     22  C   UNL     1       3.467   5.762  19.611  0.00  0.00    +0.000 A 
ATOM     23  C   UNL     1       3.808   4.576  18.964  0.00  0.00    +0.000 A 
ATOM     24  C   UNL     1       2.936   3.503  19.016  0.00  0.00    +0.000 A 
ATOM     25  F   UNL     1       3.232   2.381  18.350  0.00  0.00    +0.000 F 
ATOM     26  C   UNL     1       1.755   3.584  19.748  0.00  0.00    +0.000 A 
ATOM     27  C   UNL     1       1.410   4.781  20.389  0.00  0.00    +0.000 A 
ENDBRANCH  19  21
ENDBRANCH  13  17
ENDBRANCH   9  13
BRANCH   2  28
ATOM     28  C   UNL     1      -4.503  14.082  20.885  0.00  0.00    +0.000 C 
ATOM     29  C   UNL     1      -5.640  14.488  19.979  0.00  0.00    +0.000 C 
ATOM     30  C   UNL     1      -5.873  13.473  21.058  0.00  0.00    +0.000 C 
ENDBRANCH   2  28
TORSDOF 4
ENDMDL
