MODEL 1
REMARK VINA RESULT:      -7.7      0.000      0.000
REMARK  Name = 
REMARK  7 active torsions:
REMARK  status: ('A' for Active; 'I' for Inactive)
REMARK    1  A    between atoms: C_2  and  C_24
REMARK    2  A    between atoms: N_3  and  C_4
REMARK    3  A    between atoms: C_4  and  C_5
REMARK    4  A    between atoms: C_5  and  N_6
REMARK    5  A    between atoms: C_11  and  C_12
REMARK    6  A    between atoms: C_15  and  O_16
REMARK    7  A    between atoms: O_16  and  C_17
REMARK                            x       y       z     vdW  Elec       q    Type
REMARK                         _______ _______ _______ _____ _____    ______ ____
ROOT
ATOM      1  N   UNL     1       3.444   4.926  19.308  0.00  0.00    +0.000 N 
ATOM      2  C   UNL     1       2.578   4.739  20.357  0.00  0.00    +0.000 C 
ATOM      3  O   UNL     1       2.465   3.746  21.058  0.00  0.00    +0.000 OA
ATOM      4  S   UNL     1       1.556   6.153  20.565  0.00  0.00    +0.000 S 
ATOM      5  C   UNL     1       2.266   6.952  19.225  0.00  0.00    +0.000 C 
ATOM      6  C   UNL     1       2.052   8.199  18.789  0.00  0.00    +0.000 C 
ATOM      7  C   UNL     1       3.257   6.068  18.567  0.00  0.00    +0.000 C 
ATOM      8  O   UNL     1       3.798   6.354  17.508  0.00  0.00    +0.000 OA
ENDROOT
BRANCH   6   9
ATOM      9  C   UNL     1       1.137   9.156  19.403  0.00  0.00    +0.000 A 
ATOM     10  C   UNL     1       1.094   9.286  20.794  0.00  0.00    +0.000 A 
ATOM     11  C   UNL     1       0.236  10.217  21.380  0.00  0.00    +0.000 A 
ATOM     12  C   UNL     1      -0.565  11.040  20.585  0.00  0.00    +0.000 A 
ATOM     13  C   UNL     1      -0.554  10.880  19.198  0.00  0.00    +0.000 A 
ATOM     14  C   UNL     1       0.299   9.942  18.608  0.00  0.00    +0.000 A 
BRANCH  12  15
ATOM     15  O   UNL     1      -1.333  11.940  21.266  0.00  0.00    +0.000 OA
BRANCH  15  16
ATOM     16  C   UNL     1      -0.791  12.375  22.502  0.00  0.00    +0.000 C 
ATOM     17  F   UNL     1      -0.140  13.547  22.304  0.00  0.00    +0.000 F 
ATOM     18  F   UNL     1      -1.834  12.641  23.330  0.00  0.00    +0.000 F 
ENDBRANCH  15  16
ENDBRANCH  12  15
ENDBRANCH   6   9
BRANCH   1  19
ATOM     19  C   UNL     1       4.343   3.853  18.897  0.00  0.00    +0.000 C 
BRANCH  19  20
ATOM     20  C   UNL     1       5.731   4.319  18.427  0.00  0.00    +0.000 C 
BRANCH  20  23
ATOM     21  O   UNL     1       7.775   5.517  16.919  0.00  0.00    +0.000 OA
ATOM     22  C   UNL     1       6.934   4.829  16.341  0.00  0.00    +0.000 C 
ATOM     23  N   UNL     1       5.904   4.197  16.995  0.00  0.00    +0.000 N 
ATOM     24  H   UNL     1       5.253   3.653  16.434  0.00  0.00    +0.000 HD
BRANCH  22  25
ATOM     25  C   UNL     1       6.993   4.628  14.870  0.00  0.00    +0.000 A 
ATOM     26  C   UNL     1       6.119   3.728  14.278  0.00  0.00    +0.000 A 
ATOM     27  N   UNL     1       6.087   3.524  12.939  0.00  0.00    +0.000 NA
ATOM     28  C   UNL     1       6.969   4.260  12.225  0.00  0.00    +0.000 A 
ATOM     29  C   UNL     1       7.853   5.151  12.819  0.00  0.00    +0.000 A 
ATOM     30  N   UNL     1       7.891   5.367  14.157  0.00  0.00    +0.000 NA
ENDBRANCH  22  25
ENDBRANCH  20  23
ENDBRANCH  19  20
ENDBRANCH   1  19
TORSDOF 7
ENDMDL
MODEL 2
REMARK VINA RESULT:      -7.6      0.856      1.274
REMARK  Name = 
REMARK  7 active torsions:
REMARK  status: ('A' for Active; 'I' for Inactive)
REMARK    1  A    between atoms: C_2  and  C_24
REMARK    2  A    between atoms: N_3  and  C_4
REMARK    3  A    between atoms: C_4  and  C_5
REMARK    4  A    between atoms: C_5  and  N_6
REMARK    5  A    between atoms: C_11  and  C_12
REMARK    6  A    between atoms: C_15  and  O_16
REMARK    7  A    between atoms: O_16  and  C_17
REMARK                            x       y       z     vdW  Elec       q    Type
REMARK                         _______ _______ _______ _____ _____    ______ ____
ROOT
ATOM      1  N   UNL     1       3.376   5.788  19.200  0.00  0.00    +0.000 N 
ATOM      2  C   UNL     1       2.592   5.462  20.279  0.00  0.00    +0.000 C 
ATOM      3  O   UNL     1       2.598   4.419  20.913  0.00  0.00    +0.000 OA
ATOM      4  S   UNL     1       1.480   6.772  20.642  0.00  0.00    +0.000 S 
ATOM      5  C   UNL     1       2.044   7.713  19.326  0.00  0.00    +0.000 C 
ATOM      6  C   UNL     1       1.710   8.965  18.992  0.00  0.00    +0.000 C 
ATOM      7  C   UNL     1       3.058   6.958  18.553  0.00  0.00    +0.000 C 
ATOM      8  O   UNL     1       3.512   7.356  17.490  0.00  0.00    +0.000 OA
ENDROOT
BRANCH   6   9
ATOM      9  C   UNL     1       0.763   9.803  19.721  0.00  0.00    +0.000 A 
ATOM     10  C   UNL     1      -0.328  10.366  19.054  0.00  0.00    +0.000 A 
ATOM     11  C   UNL     1      -1.246  11.147  19.756  0.00  0.00    +0.000 A 
ATOM     12  C   UNL     1      -1.096  11.353  21.129  0.00  0.00    +0.000 A 
ATOM     13  C   UNL     1       0.017  10.827  21.787  0.00  0.00    +0.000 A 
ATOM     14  C   UNL     1       0.943  10.049  21.084  0.00  0.00    +0.000 A 
BRANCH  12  15
ATOM     15  O   UNL     1      -2.076  12.100  21.718  0.00  0.00    +0.000 OA
BRANCH  15  16
ATOM     16  C   UNL     1      -2.074  12.080  23.136  0.00  0.00    +0.000 C 
ATOM     17  F   UNL     1      -1.603  13.268  23.587  0.00  0.00    +0.000 F 
ATOM     18  F   UNL     1      -3.368  11.992  23.540  0.00  0.00    +0.000 F 
ENDBRANCH  15  16
ENDBRANCH  12  15
ENDBRANCH   6   9
BRANCH   1  19
ATOM     19  C   UNL     1       4.329   4.820  18.666  0.00  0.00    +0.000 C 
BRANCH  19  20
ATOM     20  C   UNL     1       5.656   5.423  18.178  0.00  0.00    +0.000 C 
BRANCH  20  23
ATOM     21  O   UNL     1       7.957   4.386  16.945  0.00  0.00    +0.000 OA
ATOM     22  C   UNL     1       7.018   4.755  16.240  0.00  0.00    +0.000 C 
ATOM     23  N   UNL     1       5.850   5.266  16.752  0.00  0.00    +0.000 N 
ATOM     24  H   UNL     1       5.129   5.549  16.093  0.00  0.00    +0.000 HD
BRANCH  22  25
ATOM     25  C   UNL     1       7.091   4.654  14.759  0.00  0.00    +0.000 A 
ATOM     26  C   UNL     1       6.285   3.731  14.108  0.00  0.00    +0.000 A 
ATOM     27  N   UNL     1       6.267   3.612  12.758  0.00  0.00    +0.000 NA
ATOM     28  C   UNL     1       7.092   4.453  12.096  0.00  0.00    +0.000 A 
ATOM     29  C   UNL     1       7.909   5.368  12.749  0.00  0.00    +0.000 A 
ATOM     30  N   UNL     1       7.932   5.500  14.098  0.00  0.00    +0.000 NA
ENDBRANCH  22  25
ENDBRANCH  20  23
ENDBRANCH  19  20
ENDBRANCH   1  19
TORSDOF 7
ENDMDL
MODEL 3
REMARK VINA RESULT:      -7.5      5.369      9.827
REMARK  Name = 
REMARK  7 active torsions:
REMARK  status: ('A' for Active; 'I' for Inactive)
REMARK    1  A    between atoms: C_2  and  C_24
REMARK    2  A    between atoms: N_3  and  C_4
REMARK    3  A    between atoms: C_4  and  C_5
REMARK    4  A    between atoms: C_5  and  N_6
REMARK    5  A    between atoms: C_11  and  C_12
REMARK    6  A    between atoms: C_15  and  O_16
REMARK    7  A    between atoms: O_16  and  C_17
REMARK                            x       y       z     vdW  Elec       q    Type
REMARK                         _______ _______ _______ _____ _____    ______ ____
ROOT
ATOM      1  N   UNL     1       1.261   9.966  20.097  0.00  0.00    +0.000 N 
ATOM      2  C   UNL     1       1.467  10.245  18.768  0.00  0.00    +0.000 C 
ATOM      3  O   UNL     1       1.221  11.288  18.183  0.00  0.00    +0.000 OA
ATOM      4  S   UNL     1       2.121   8.839  17.943  0.00  0.00    +0.000 S 
ATOM      5  C   UNL     1       2.068   7.888  19.368  0.00  0.00    +0.000 C 
ATOM      6  C   UNL     1       2.520   6.643  19.557  0.00  0.00    +0.000 C 
ATOM      7  C   UNL     1       1.460   8.660  20.478  0.00  0.00    +0.000 C 
ATOM      8  O   UNL     1       1.184   8.160  21.559  0.00  0.00    +0.000 OA
ENDROOT
BRANCH   6   9
ATOM      9  C   UNL     1       3.178   5.827  18.541  0.00  0.00    +0.000 A 
ATOM     10  C   UNL     1       4.382   6.255  17.975  0.00  0.00    +0.000 A 
ATOM     11  C   UNL     1       5.023   5.464  17.021  0.00  0.00    +0.000 A 
ATOM     12  C   UNL     1       4.481   4.234  16.643  0.00  0.00    +0.000 A 
ATOM     13  C   UNL     1       3.257   3.826  17.176  0.00  0.00    +0.000 A 
ATOM     14  C   UNL     1       2.609   4.621  18.127  0.00  0.00    +0.000 A 
BRANCH  12  15
ATOM     15  O   UNL     1       5.216   3.529  15.732  0.00  0.00    +0.000 OA
BRANCH  15  16
ATOM     16  C   UNL     1       5.893   4.319  14.769  0.00  0.00    +0.000 C 
ATOM     17  F   UNL     1       7.220   4.299  15.043  0.00  0.00    +0.000 F 
ATOM     18  F   UNL     1       5.732   3.713  13.564  0.00  0.00    +0.000 F 
ENDBRANCH  15  16
ENDBRANCH  12  15
ENDBRANCH   6   9
BRANCH   1  19
ATOM     19  C   UNL     1       0.652  10.963  20.972  0.00  0.00    +0.000 C 
BRANCH  19  20
ATOM     20  C   UNL     1      -0.861  10.795  21.185  0.00  0.00    +0.000 C 
BRANCH  20  23
ATOM     21  O   UNL     1      -1.832  12.946  19.663  0.00  0.00    +0.000 OA
ATOM     22  C   UNL     1      -2.035  11.797  19.269  0.00  0.00    +0.000 C 
ATOM     23  N   UNL     1      -1.591  10.684  19.941  0.00  0.00    +0.000 N 
ATOM     24  H   UNL     1      -1.810   9.774  19.542  0.00  0.00    +0.000 HD
BRANCH  22  25
ATOM     25  C   UNL     1      -2.780  11.545  18.008  0.00  0.00    +0.000 A 
ATOM     26  C   UNL     1      -2.072  11.186  16.870  0.00  0.00    +0.000 A 
ATOM     27  N   UNL     1      -2.685  10.899  15.697  0.00  0.00    +0.000 NA
ATOM     28  C   UNL     1      -4.034  10.992  15.716  0.00  0.00    +0.000 A 
ATOM     29  C   UNL     1      -4.742  11.364  16.852  0.00  0.00    +0.000 A 
ATOM     30  N   UNL     1      -4.139  11.648  18.032  0.00  0.00    +0.000 NA
ENDBRANCH  22  25
ENDBRANCH  20  23
ENDBRANCH  19  20
ENDBRANCH   1  19
TORSDOF 7
ENDMDL
MODEL 4
REMARK VINA RESULT:      -7.5      0.328      1.102
REMARK  Name = 
REMARK  7 active torsions:
REMARK  status: ('A' for Active; 'I' for Inactive)
REMARK    1  A    between atoms: C_2  and  C_24
REMARK    2  A    between atoms: N_3  and  C_4
REMARK    3  A    between atoms: C_4  and  C_5
REMARK    4  A    between atoms: C_5  and  N_6
REMARK    5  A    between atoms: C_11  and  C_12
REMARK    6  A    between atoms: C_15  and  O_16
REMARK    7  A    between atoms: O_16  and  C_17
REMARK                            x       y       z     vdW  Elec       q    Type
REMARK                         _______ _______ _______ _____ _____    ______ ____
ROOT
ATOM      1  N   UNL     1       3.576   4.971  19.272  0.00  0.00    +0.000 N 
ATOM      2  C   UNL     1       2.745   4.771  20.347  0.00  0.00    +0.000 C 
ATOM      3  O   UNL     1       2.668   3.777  21.051  0.00  0.00    +0.000 OA
ATOM      4  S   UNL     1       1.710   6.171  20.586  0.00  0.00    +0.000 S 
ATOM      5  C   UNL     1       2.367   6.980  19.226  0.00  0.00    +0.000 C 
ATOM      6  C   UNL     1       2.122   8.223  18.796  0.00  0.00    +0.000 C 
ATOM      7  C   UNL     1       3.350   6.110  18.537  0.00  0.00    +0.000 C 
ATOM      8  O   UNL     1       3.855   6.403  17.463  0.00  0.00    +0.000 OA
ENDROOT
BRANCH   6   9
ATOM      9  C   UNL     1       1.212   9.168  19.438  0.00  0.00    +0.000 A 
ATOM     10  C   UNL     1       0.333   9.926  18.660  0.00  0.00    +0.000 A 
ATOM     11  C   UNL     1      -0.553  10.811  19.276  0.00  0.00    +0.000 A 
ATOM     12  C   UNL     1      -0.583  10.929  20.667  0.00  0.00    +0.000 A 
ATOM     13  C   UNL     1       0.325  10.204  21.440  0.00  0.00    +0.000 A 
ATOM     14  C   UNL     1       1.219   9.322  20.826  0.00  0.00    +0.000 A 
BRANCH  12  15
ATOM     15  O   UNL     1      -1.517  11.796  21.158  0.00  0.00    +0.000 OA
BRANCH  15  16
ATOM     16  C   UNL     1      -1.122  12.507  22.320  0.00  0.00    +0.000 C 
ATOM     17  F   UNL     1      -0.974  11.628  23.340  0.00  0.00    +0.000 F 
ATOM     18  F   UNL     1       0.106  13.032  22.074  0.00  0.00    +0.000 F 
ENDBRANCH  15  16
ENDBRANCH  12  15
ENDBRANCH   6   9
BRANCH   1  19
ATOM     19  C   UNL     1       4.478   3.910  18.834  0.00  0.00    +0.000 C 
BRANCH  19  20
ATOM     20  C   UNL     1       5.858   4.393  18.361  0.00  0.00    +0.000 C 
BRANCH  20  23
ATOM     21  O   UNL     1       7.535   5.953  16.736  0.00  0.00    +0.000 OA
ATOM     22  C   UNL     1       6.889   5.040  16.222  0.00  0.00    +0.000 C 
ATOM     23  N   UNL     1       6.052   4.219  16.937  0.00  0.00    +0.000 N 
ATOM     24  H   UNL     1       5.554   3.493  16.427  0.00  0.00    +0.000 HD
BRANCH  22  25
ATOM     25  C   UNL     1       6.992   4.760  14.767  0.00  0.00    +0.000 A 
ATOM     26  C   UNL     1       6.147   3.814  14.203  0.00  0.00    +0.000 A 
ATOM     27  N   UNL     1       6.154   3.537  12.877  0.00  0.00    +0.000 NA
ATOM     28  C   UNL     1       7.045   4.245  12.147  0.00  0.00    +0.000 A 
ATOM     29  C   UNL     1       7.900   5.181  12.713  0.00  0.00    +0.000 A 
ATOM     30  N   UNL     1       7.899   5.471  14.037  0.00  0.00    +0.000 NA
ENDBRANCH  22  25
ENDBRANCH  20  23
ENDBRANCH  19  20
ENDBRANCH   1  19
TORSDOF 7
ENDMDL
MODEL 5
REMARK VINA RESULT:      -7.4      1.870      2.436
REMARK  Name = 
REMARK  7 active torsions:
REMARK  status: ('A' for Active; 'I' for Inactive)
REMARK    1  A    between atoms: C_2  and  C_24
REMARK    2  A    between atoms: N_3  and  C_4
REMARK    3  A    between atoms: C_4  and  C_5
REMARK    4  A    between atoms: C_5  and  N_6
REMARK    5  A    between atoms: C_11  and  C_12
REMARK    6  A    between atoms: C_15  and  O_16
REMARK    7  A    between atoms: O_16  and  C_17
REMARK                            x       y       z     vdW  Elec       q    Type
REMARK                         _______ _______ _______ _____ _____    ______ ____
ROOT
ATOM      1  N   UNL     1       2.883   3.849  20.311  0.00  0.00    +0.000 N 
ATOM      2  C   UNL     1       1.528   3.720  20.489  0.00  0.00    +0.000 C 
ATOM      3  O   UNL     1       0.897   2.690  20.665  0.00  0.00    +0.000 OA
ATOM      4  S   UNL     1       0.747   5.290  20.384  0.00  0.00    +0.000 S 
ATOM      5  C   UNL     1       2.229   6.087  20.061  0.00  0.00    +0.000 C 
ATOM      6  C   UNL     1       2.463   7.399  19.943  0.00  0.00    +0.000 C 
ATOM      7  C   UNL     1       3.330   5.100  19.958  0.00  0.00    +0.000 C 
ATOM      8  O   UNL     1       4.459   5.402  19.598  0.00  0.00    +0.000 OA
ENDROOT
BRANCH   6   9
ATOM      9  C   UNL     1       1.454   8.445  20.079  0.00  0.00    +0.000 A 
ATOM     10  C   UNL     1       0.815   8.641  21.307  0.00  0.00    +0.000 A 
ATOM     11  C   UNL     1      -0.132   9.656  21.444  0.00  0.00    +0.000 A 
ATOM     12  C   UNL     1      -0.432  10.495  20.368  0.00  0.00    +0.000 A 
ATOM     13  C   UNL     1       0.174  10.271  19.131  0.00  0.00    +0.000 A 
ATOM     14  C   UNL     1       1.118   9.250  18.988  0.00  0.00    +0.000 A 
BRANCH  12  15
ATOM     15  O   UNL     1      -1.344  11.477  20.631  0.00  0.00    +0.000 OA
BRANCH  15  16
ATOM     16  C   UNL     1      -1.858  12.138  19.487  0.00  0.00    +0.000 C 
ATOM     17  F   UNL     1      -2.896  11.418  18.997  0.00  0.00    +0.000 F 
ATOM     18  F   UNL     1      -2.366  13.327  19.901  0.00  0.00    +0.000 F 
ENDBRANCH  15  16
ENDBRANCH  12  15
ENDBRANCH   6   9
BRANCH   1  19
ATOM     19  C   UNL     1       3.736   2.665  20.283  0.00  0.00    +0.000 C 
BRANCH  19  20
ATOM     20  C   UNL     1       3.803   1.950  18.924  0.00  0.00    +0.000 C 
BRANCH  20  23
ATOM     21  O   UNL     1       3.109   3.652  16.800  0.00  0.00    +0.000 OA
ATOM     22  C   UNL     1       4.297   3.391  16.990  0.00  0.00    +0.000 C 
ATOM     23  N   UNL     1       4.732   2.578  18.008  0.00  0.00    +0.000 N 
ATOM     24  H   UNL     1       5.733   2.415  18.086  0.00  0.00    +0.000 HD
BRANCH  22  25
ATOM     25  C   UNL     1       5.353   3.966  16.117  0.00  0.00    +0.000 A 
ATOM     26  C   UNL     1       6.487   4.510  16.702  0.00  0.00    +0.000 A 
ATOM     27  N   UNL     1       7.509   5.013  15.969  0.00  0.00    +0.000 NA
ATOM     28  C   UNL     1       7.341   4.948  14.629  0.00  0.00    +0.000 A 
ATOM     29  C   UNL     1       6.200   4.416  14.044  0.00  0.00    +0.000 A 
ATOM     30  N   UNL     1       5.173   3.905  14.766  0.00  0.00    +0.000 NA
ENDBRANCH  22  25
ENDBRANCH  20  23
ENDBRANCH  19  20
ENDBRANCH   1  19
TORSDOF 7
ENDMDL
MODEL 6
REMARK VINA RESULT:      -7.4      2.008      2.714
REMARK  Name = 
REMARK  7 active torsions:
REMARK  status: ('A' for Active; 'I' for Inactive)
REMARK    1  A    between atoms: C_2  and  C_24
REMARK    2  A    between atoms: N_3  and  C_4
REMARK    3  A    between atoms: C_4  and  C_5
REMARK    4  A    between atoms: C_5  and  N_6
REMARK    5  A    between atoms: C_11  and  C_12
REMARK    6  A    between atoms: C_15  and  O_16
REMARK    7  A    between atoms: O_16  and  C_17
REMARK                            x       y       z     vdW  Elec       q    Type
REMARK                         _______ _______ _______ _____ _____    ______ ____
ROOT
ATOM      1  N   UNL     1       2.441   4.064  19.744  0.00  0.00    +0.000 N 
ATOM      2  C   UNL     1       2.187   4.584  20.989  0.00  0.00    +0.000 C 
ATOM      3  O   UNL     1       2.179   3.988  22.054  0.00  0.00    +0.000 OA
ATOM      4  S   UNL     1       1.810   6.296  20.870  0.00  0.00    +0.000 S 
ATOM      5  C   UNL     1       1.951   6.282  19.162  0.00  0.00    +0.000 C 
ATOM      6  C   UNL     1       1.884   7.313  18.311  0.00  0.00    +0.000 C 
ATOM      7  C   UNL     1       2.219   4.907  18.681  0.00  0.00    +0.000 C 
ATOM      8  O   UNL     1       2.224   4.610  17.495  0.00  0.00    +0.000 OA
ENDROOT
BRANCH   6   9
ATOM      9  C   UNL     1       1.676   8.706  18.697  0.00  0.00    +0.000 A 
ATOM     10  C   UNL     1       2.151   9.734  17.878  0.00  0.00    +0.000 A 
ATOM     11  C   UNL     1       1.932  11.065  18.235  0.00  0.00    +0.000 A 
ATOM     12  C   UNL     1       1.219  11.379  19.394  0.00  0.00    +0.000 A 
ATOM     13  C   UNL     1       0.783  10.352  20.234  0.00  0.00    +0.000 A 
ATOM     14  C   UNL     1       1.008   9.017  19.883  0.00  0.00    +0.000 A 
BRANCH  12  15
ATOM     15  O   UNL     1       1.032  12.712  19.620  0.00  0.00    +0.000 OA
BRANCH  15  16
ATOM     16  C   UNL     1       0.711  13.475  18.469  0.00  0.00    +0.000 C 
ATOM     17  F   UNL     1      -0.446  14.143  18.697  0.00  0.00    +0.000 F 
ATOM     18  F   UNL     1       1.683  14.412  18.321  0.00  0.00    +0.000 F 
ENDBRANCH  15  16
ENDBRANCH  12  15
ENDBRANCH   6   9
BRANCH   1  19
ATOM     19  C   UNL     1       2.706   2.638  19.584  0.00  0.00    +0.000 C 
BRANCH  19  20
ATOM     20  C   UNL     1       4.186   2.276  19.379  0.00  0.00    +0.000 C 
BRANCH  20  23
ATOM     21  O   UNL     1       5.974   4.428  19.134  0.00  0.00    +0.000 OA
ATOM     22  C   UNL     1       5.585   3.858  18.116  0.00  0.00    +0.000 C 
ATOM     23  N   UNL     1       4.719   2.792  18.137  0.00  0.00    +0.000 N 
ATOM     24  H   UNL     1       4.449   2.386  17.244  0.00  0.00    +0.000 HD
BRANCH  22  25
ATOM     25  C   UNL     1       6.052   4.293  16.774  0.00  0.00    +0.000 A 
ATOM     26  C   UNL     1       7.085   5.215  16.688  0.00  0.00    +0.000 A 
ATOM     27  N   UNL     1       7.591   5.626  15.500  0.00  0.00    +0.000 NA
ATOM     28  C   UNL     1       7.014   5.075  14.408  0.00  0.00    +0.000 A 
ATOM     29  C   UNL     1       5.970   4.163  14.494  0.00  0.00    +0.000 A 
ATOM     30  N   UNL     1       5.459   3.740  15.677  0.00  0.00    +0.000 NA
ENDBRANCH  22  25
ENDBRANCH  20  23
ENDBRANCH  19  20
ENDBRANCH   1  19
TORSDOF 7
ENDMDL
MODEL 7
REMARK VINA RESULT:      -7.4      5.563      9.387
REMARK  Name = 
REMARK  7 active torsions:
REMARK  status: ('A' for Active; 'I' for Inactive)
REMARK    1  A    between atoms: C_2  and  C_24
REMARK    2  A    between atoms: N_3  and  C_4
REMARK    3  A    between atoms: C_4  and  C_5
REMARK    4  A    between atoms: C_5  and  N_6
REMARK    5  A    between atoms: C_11  and  C_12
REMARK    6  A    between atoms: C_15  and  O_16
REMARK    7  A    between atoms: O_16  and  C_17
REMARK                            x       y       z     vdW  Elec       q    Type
REMARK                         _______ _______ _______ _____ _____    ______ ____
ROOT
ATOM      1  N   UNL     1       0.000  10.151  20.662  0.00  0.00    +0.000 N 
ATOM      2  C   UNL     1       0.493   9.253  21.576  0.00  0.00    +0.000 C 
ATOM      3  O   UNL     1       0.263   9.212  22.774  0.00  0.00    +0.000 OA
ATOM      4  S   UNL     1       1.592   8.127  20.793  0.00  0.00    +0.000 S 
ATOM      5  C   UNL     1       1.413   8.897  19.273  0.00  0.00    +0.000 C 
ATOM      6  C   UNL     1       1.910   8.526  18.086  0.00  0.00    +0.000 C 
ATOM      7  C   UNL     1       0.545  10.091  19.401  0.00  0.00    +0.000 C 
ATOM      8  O   UNL     1       0.376  10.888  18.489  0.00  0.00    +0.000 OA
ENDROOT
BRANCH   6   9
ATOM      9  C   UNL     1       2.729   7.340  17.855  0.00  0.00    +0.000 A 
ATOM     10  C   UNL     1       4.053   7.479  17.428  0.00  0.00    +0.000 A 
ATOM     11  C   UNL     1       4.842   6.347  17.230  0.00  0.00    +0.000 A 
ATOM     12  C   UNL     1       4.327   5.072  17.476  0.00  0.00    +0.000 A 
ATOM     13  C   UNL     1       2.992   4.931  17.860  0.00  0.00    +0.000 A 
ATOM     14  C   UNL     1       2.196   6.065  18.052  0.00  0.00    +0.000 A 
BRANCH  12  15
ATOM     15  O   UNL     1       5.203   4.042  17.286  0.00  0.00    +0.000 OA
BRANCH  15  16
ATOM     16  C   UNL     1       6.175   4.262  16.277  0.00  0.00    +0.000 C 
ATOM     17  F   UNL     1       7.408   4.165  16.832  0.00  0.00    +0.000 F 
ATOM     18  F   UNL     1       6.066   3.246  15.383  0.00  0.00    +0.000 F 
ENDBRANCH  15  16
ENDBRANCH  12  15
ENDBRANCH   6   9
BRANCH   1  19
ATOM     19  C   UNL     1      -0.879  11.232  21.095  0.00  0.00    +0.000 C 
BRANCH  19  20
ATOM     20  C   UNL     1      -0.154  12.470  21.647  0.00  0.00    +0.000 C 
BRANCH  20  23
ATOM     21  O   UNL     1       1.672  14.523  22.232  0.00  0.00    +0.000 OA
ATOM     22  C   UNL     1       1.737  13.961  21.139  0.00  0.00    +0.000 C 
ATOM     23  N   UNL     1       0.894  12.942  20.768  0.00  0.00    +0.000 N 
ATOM     24  H   UNL     1       1.019  12.540  19.841  0.00  0.00    +0.000 HD
BRANCH  22  25
ATOM     25  C   UNL     1       2.764  14.355  20.140  0.00  0.00    +0.000 A 
ATOM     26  C   UNL     1       2.427  14.355  18.794  0.00  0.00    +0.000 A 
ATOM     27  N   UNL     1       3.297  14.743  17.830  0.00  0.00    +0.000 NA
ATOM     28  C   UNL     1       4.515  15.126  18.276  0.00  0.00    +0.000 A 
ATOM     29  C   UNL     1       4.856  15.113  19.622  0.00  0.00    +0.000 A 
ATOM     30  N   UNL     1       3.993  14.732  20.596  0.00  0.00    +0.000 NA
ENDBRANCH  22  25
ENDBRANCH  20  23
ENDBRANCH  19  20
ENDBRANCH   1  19
TORSDOF 7
ENDMDL
MODEL 8
REMARK VINA RESULT:      -7.4      6.115     11.633
REMARK  Name = 
REMARK  7 active torsions:
REMARK  status: ('A' for Active; 'I' for Inactive)
REMARK    1  A    between atoms: C_2  and  C_24
REMARK    2  A    between atoms: N_3  and  C_4
REMARK    3  A    between atoms: C_4  and  C_5
REMARK    4  A    between atoms: C_5  and  N_6
REMARK    5  A    between atoms: C_11  and  C_12
REMARK    6  A    between atoms: C_15  and  O_16
REMARK    7  A    between atoms: O_16  and  C_17
REMARK                            x       y       z     vdW  Elec       q    Type
REMARK                         _______ _______ _______ _____ _____    ______ ____
ROOT
ATOM      1  N   UNL     1      -0.406  11.505  21.636  0.00  0.00    +0.000 N 
ATOM      2  C   UNL     1      -0.635  11.512  20.282  0.00  0.00    +0.000 C 
ATOM      3  O   UNL     1      -1.232  12.357  19.635  0.00  0.00    +0.000 OA
ATOM      4  S   UNL     1       0.029  10.062  19.544  0.00  0.00    +0.000 S 
ATOM      5  C   UNL     1       0.559   9.449  21.054  0.00  0.00    +0.000 C 
ATOM      6  C   UNL     1       1.280   8.349  21.301  0.00  0.00    +0.000 C 
ATOM      7  C   UNL     1       0.142  10.354  22.151  0.00  0.00    +0.000 C 
ATOM      8  O   UNL     1       0.278  10.070  23.332  0.00  0.00    +0.000 OA
ENDROOT
BRANCH   6   9
ATOM      9  C   UNL     1       1.779   7.428  20.283  0.00  0.00    +0.000 A 
ATOM     10  C   UNL     1       2.215   7.921  19.050  0.00  0.00    +0.000 A 
ATOM     11  C   UNL     1       2.713   7.044  18.087  0.00  0.00    +0.000 A 
ATOM     12  C   UNL     1       2.801   5.676  18.354  0.00  0.00    +0.000 A 
ATOM     13  C   UNL     1       2.325   5.178  19.568  0.00  0.00    +0.000 A 
ATOM     14  C   UNL     1       1.818   6.055  20.533  0.00  0.00    +0.000 A 
BRANCH  12  15
ATOM     15  O   UNL     1       3.341   4.920  17.352  0.00  0.00    +0.000 OA
BRANCH  15  16
ATOM     16  C   UNL     1       3.362   3.524  17.601  0.00  0.00    +0.000 C 
ATOM     17  F   UNL     1       2.349   2.944  16.913  0.00  0.00    +0.000 F 
ATOM     18  F   UNL     1       4.518   3.038  17.080  0.00  0.00    +0.000 F 
ENDBRANCH  15  16
ENDBRANCH  12  15
ENDBRANCH   6   9
BRANCH   1  19
ATOM     19  C   UNL     1      -0.933  12.576  22.476  0.00  0.00    +0.000 C 
BRANCH  19  20
ATOM     20  C   UNL     1      -2.256  12.247  23.187  0.00  0.00    +0.000 C 
BRANCH  20  23
ATOM     21  O   UNL     1      -4.910  12.356  24.100  0.00  0.00    +0.000 OA
ATOM     22  C   UNL     1      -4.680  12.568  22.910  0.00  0.00    +0.000 C 
ATOM     23  N   UNL     1      -3.416  12.546  22.374  0.00  0.00    +0.000 N 
ATOM     24  H   UNL     1      -3.322  12.729  21.378  0.00  0.00    +0.000 HD
BRANCH  22  25
ATOM     25  C   UNL     1      -5.784  12.880  21.965  0.00  0.00    +0.000 A 
ATOM     26  C   UNL     1      -5.960  14.191  21.546  0.00  0.00    +0.000 A 
ATOM     27  N   UNL     1      -6.917  14.544  20.655  0.00  0.00    +0.000 NA
ATOM     28  C   UNL     1      -7.688  13.527  20.207  0.00  0.00    +0.000 A 
ATOM     29  C   UNL     1      -7.520  12.217  20.637  0.00  0.00    +0.000 A 
ATOM     30  N   UNL     1      -6.563  11.851  21.524  0.00  0.00    +0.000 NA
ENDBRANCH  22  25
ENDBRANCH  20  23
ENDBRANCH  19  20
ENDBRANCH   1  19
TORSDOF 7
ENDMDL
MODEL 9
REMARK VINA RESULT:      -7.3      5.691      9.639
REMARK  Name = 
REMARK  7 active torsions:
REMARK  status: ('A' for Active; 'I' for Inactive)
REMARK    1  A    between atoms: C_2  and  C_24
REMARK    2  A    between atoms: N_3  and  C_4
REMARK    3  A    between atoms: C_4  and  C_5
REMARK    4  A    between atoms: C_5  and  N_6
REMARK    5  A    between atoms: C_11  and  C_12
REMARK    6  A    between atoms: C_15  and  O_16
REMARK    7  A    between atoms: O_16  and  C_17
REMARK                            x       y       z     vdW  Elec       q    Type
REMARK                         _______ _______ _______ _____ _____    ______ ____
ROOT
ATOM      1  N   UNL     1      -0.120  10.222  20.753  0.00  0.00    +0.000 N 
ATOM      2  C   UNL     1       0.346   9.285  21.644  0.00  0.00    +0.000 C 
ATOM      3  O   UNL     1       0.081   9.195  22.832  0.00  0.00    +0.000 OA
ATOM      4  S   UNL     1       1.468   8.193  20.848  0.00  0.00    +0.000 S 
ATOM      5  C   UNL     1       1.334   9.025  19.356  0.00  0.00    +0.000 C 
ATOM      6  C   UNL     1       1.867   8.704  18.171  0.00  0.00    +0.000 C 
ATOM      7  C   UNL     1       0.462  10.214  19.508  0.00  0.00    +0.000 C 
ATOM      8  O   UNL     1       0.320  11.048  18.625  0.00  0.00    +0.000 OA
ENDROOT
BRANCH   6   9
ATOM      9  C   UNL     1       2.693   7.528  17.914  0.00  0.00    +0.000 A 
ATOM     10  C   UNL     1       2.180   6.250  18.153  0.00  0.00    +0.000 A 
ATOM     11  C   UNL     1       2.961   5.126  17.886  0.00  0.00    +0.000 A 
ATOM     12  C   UNL     1       4.246   5.266  17.358  0.00  0.00    +0.000 A 
ATOM     13  C   UNL     1       4.775   6.543  17.161  0.00  0.00    +0.000 A 
ATOM     14  C   UNL     1       3.997   7.673  17.435  0.00  0.00    +0.000 A 
BRANCH  12  15
ATOM     15  O   UNL     1       4.902   4.096  17.100  0.00  0.00    +0.000 OA
BRANCH  15  16
ATOM     16  C   UNL     1       6.017   4.214  16.233  0.00  0.00    +0.000 C 
ATOM     17  F   UNL     1       7.152   4.146  16.971  0.00  0.00    +0.000 F 
ATOM     18  F   UNL     1       6.013   3.127  15.419  0.00  0.00    +0.000 F 
ENDBRANCH  15  16
ENDBRANCH  12  15
ENDBRANCH   6   9
BRANCH   1  19
ATOM     19  C   UNL     1      -1.012  11.284  21.205  0.00  0.00    +0.000 C 
BRANCH  19  20
ATOM     20  C   UNL     1      -0.312  12.459  21.906  0.00  0.00    +0.000 C 
BRANCH  20  23
ATOM     21  O   UNL     1       2.370  12.911  21.205  0.00  0.00    +0.000 OA
ATOM     22  C   UNL     1       1.496  13.616  20.702  0.00  0.00    +0.000 C 
ATOM     23  N   UNL     1       0.159  13.464  20.977  0.00  0.00    +0.000 N 
ATOM     24  H   UNL     1      -0.492  14.096  20.517  0.00  0.00    +0.000 HD
BRANCH  22  25
ATOM     25  C   UNL     1       1.846  14.690  19.736  0.00  0.00    +0.000 A 
ATOM     26  C   UNL     1       0.849  15.546  19.293  0.00  0.00    +0.000 A 
ATOM     27  N   UNL     1       1.101  16.573  18.446  0.00  0.00    +0.000 NA
ATOM     28  C   UNL     1       2.392  16.699  18.064  0.00  0.00    +0.000 A 
ATOM     29  C   UNL     1       3.388  15.833  18.497  0.00  0.00    +0.000 A 
ATOM     30  N   UNL     1       3.149  14.806  19.348  0.00  0.00    +0.000 NA
ENDBRANCH  22  25
ENDBRANCH  20  23
ENDBRANCH  19  20
ENDBRANCH   1  19
TORSDOF 7
ENDMDL
