MODEL 1
REMARK VINA RESULT:      -7.2      0.000      0.000
REMARK  Name = 
REMARK  8 active torsions:
REMARK  status: ('A' for Active; 'I' for Inactive)
REMARK    1  A    between atoms: C_1  and  C_2
REMARK    2  A    between atoms: C_8  and  C_10
REMARK    3  A    between atoms: C_10  and  C_11
REMARK    4  A    between atoms: C_14  and  S_15
REMARK    5  A    between atoms: S_15  and  C_16
REMARK    6  A    between atoms: C_20  and  C_21
REMARK    7  A    between atoms: C_21  and  N_22
REMARK    8  A    between atoms: C_25  and  O_26
REMARK                            x       y       z     vdW  Elec       q    Type
REMARK                         _______ _______ _______ _____ _____    ______ ____
ROOT
ATOM      1  C   UNL     1       3.128   2.000  17.889  0.00  0.00    +0.000 C 
ATOM      2  C   UNL     1       2.200   2.429  18.997  0.00  0.00    +0.000 C 
ATOM      3  O   UNL     1       1.699   1.585  19.741  0.00  0.00    +0.000 OA
ATOM      4  N   UNL     1       2.004   3.789  19.176  0.00  0.00    +0.000 N 
ATOM      5  C   UNL     1       1.327   4.241  20.390  0.00  0.00    +0.000 C 
ATOM      6  C   UNL     1       1.945   5.536  20.945  0.00  0.00    +0.000 C 
ATOM      7  N   UNL     1       2.181   6.578  19.896  0.00  0.00    +0.000 N 
ATOM      8  C   UNL     1       1.667   7.839  20.186  0.00  0.00    +0.000 C 
ATOM      9  O   UNL     1       1.049   8.040  21.254  0.00  0.00    +0.000 OA
ATOM     10  C   UNL     1       2.941   6.036  18.710  0.00  0.00    +0.000 C 
ATOM     11  C   UNL     1       2.150   4.834  18.137  0.00  0.00    +0.000 C 
ENDROOT
BRANCH   8  12
ATOM     12  C   UNL     1       1.789   8.996  19.228  0.00  0.00    +0.000 C 
BRANCH  12  13
ATOM     13  C   UNL     1       0.490   9.658  18.816  0.00  0.00    +0.000 A 
ATOM     14  C   UNL     1      -0.138  10.649  19.578  0.00  0.00    +0.000 A 
ATOM     15  C   UNL     1      -1.356  11.196  19.173  0.00  0.00    +0.000 A 
ATOM     16  C   UNL     1      -1.964  10.768  17.989  0.00  0.00    +0.000 A 
ATOM     17  C   UNL     1      -1.330   9.802  17.205  0.00  0.00    +0.000 A 
ATOM     18  C   UNL     1      -0.112   9.254  17.612  0.00  0.00    +0.000 A 
BRANCH  16  19
ATOM     19  S   UNL     1      -3.571  11.440  17.516  0.00  0.00    +0.000 S 
ATOM     20  C   UNL     1      -3.470  11.046  15.753  0.00  0.00    +0.000 C 
ATOM     21  O   UNL     1      -4.663  10.498  18.141  0.00  0.00    +0.000 OA
ENDBRANCH  16  19
ENDBRANCH  12  13
ENDBRANCH   8  12
BRANCH  10  22
ATOM     22  C   UNL     1       3.480   7.019  17.617  0.00  0.00    +0.000 C 
BRANCH  22  23
ATOM     23  N   UNL     1       4.937   7.062  17.332  0.00  0.00    +0.000 NA
ATOM     24  C   UNL     1       5.663   6.010  18.122  0.00  0.00    +0.000 C 
ATOM     25  C   UNL     1       6.529   5.222  17.134  0.00  0.00    +0.000 C 
ATOM     26  C   UNL     1       5.693   5.287  15.883  0.00  0.00    +0.000 C 
ATOM     27  C   UNL     1       5.253   6.754  15.922  0.00  0.00    +0.000 C 
BRANCH  26  28
ATOM     28  O   UNL     1       4.611   4.365  16.040  0.00  0.00    +0.000 OA
ATOM     29  H   UNL     1       4.910   3.620  16.571  0.00  0.00    +0.000 HD
ENDBRANCH  26  28
ENDBRANCH  22  23
ENDBRANCH  10  22
TORSDOF 6
ENDMDL
MODEL 2
REMARK VINA RESULT:      -7.2      2.563      4.640
REMARK  Name = 
REMARK  8 active torsions:
REMARK  status: ('A' for Active; 'I' for Inactive)
REMARK    1  A    between atoms: C_1  and  C_2
REMARK    2  A    between atoms: C_8  and  C_10
REMARK    3  A    between atoms: C_10  and  C_11
REMARK    4  A    between atoms: C_14  and  S_15
REMARK    5  A    between atoms: S_15  and  C_16
REMARK    6  A    between atoms: C_20  and  C_21
REMARK    7  A    between atoms: C_21  and  N_22
REMARK    8  A    between atoms: C_25  and  O_26
REMARK                            x       y       z     vdW  Elec       q    Type
REMARK                         _______ _______ _______ _____ _____    ______ ____
ROOT
ATOM      1  C   UNL     1       5.410   3.858  17.036  0.00  0.00    +0.000 C 
ATOM      2  C   UNL     1       5.363   5.338  16.756  0.00  0.00    +0.000 C 
ATOM      3  O   UNL     1       5.998   5.805  15.810  0.00  0.00    +0.000 OA
ATOM      4  N   UNL     1       4.533   6.113  17.550  0.00  0.00    +0.000 N 
ATOM      5  C   UNL     1       4.267   7.491  17.141  0.00  0.00    +0.000 C 
ATOM      6  C   UNL     1       2.808   7.899  17.409  0.00  0.00    +0.000 C 
ATOM      7  N   UNL     1       2.323   7.511  18.772  0.00  0.00    +0.000 N 
ATOM      8  C   UNL     1       1.732   8.536  19.505  0.00  0.00    +0.000 C 
ATOM      9  O   UNL     1       1.643   9.687  19.026  0.00  0.00    +0.000 OA
ATOM     10  C   UNL     1       2.584   6.057  19.080  0.00  0.00    +0.000 C 
ATOM     11  C   UNL     1       4.103   5.795  18.930  0.00  0.00    +0.000 C 
ENDROOT
BRANCH   8  12
ATOM     12  C   UNL     1       1.216   8.326  20.906  0.00  0.00    +0.000 C 
BRANCH  12  13
ATOM     13  C   UNL     1       0.267   9.385  21.430  0.00  0.00    +0.000 A 
ATOM     14  C   UNL     1      -0.330  10.348  20.610  0.00  0.00    +0.000 A 
ATOM     15  C   UNL     1      -1.165  11.326  21.152  0.00  0.00    +0.000 A 
ATOM     16  C   UNL     1      -1.427  11.352  22.524  0.00  0.00    +0.000 A 
ATOM     17  C   UNL     1      -0.860  10.376  23.346  0.00  0.00    +0.000 A 
ATOM     18  C   UNL     1      -0.024   9.398  22.805  0.00  0.00    +0.000 A 
BRANCH  16  19
ATOM     19  S   UNL     1      -2.456  12.665  23.214  0.00  0.00    +0.000 S 
ATOM     20  C   UNL     1      -2.893  13.456  21.645  0.00  0.00    +0.000 C 
ATOM     21  O   UNL     1      -3.758  11.983  23.768  0.00  0.00    +0.000 OA
ENDBRANCH  16  19
ENDBRANCH  12  13
ENDBRANCH   8  12
BRANCH  10  22
ATOM     22  C   UNL     1       1.952   5.407  20.357  0.00  0.00    +0.000 C 
BRANCH  22  23
ATOM     23  N   UNL     1       1.018   4.262  20.205  0.00  0.00    +0.000 NA
ATOM     24  C   UNL     1       1.068   3.719  18.805  0.00  0.00    +0.000 C 
ATOM     25  C   UNL     1       1.288   2.207  18.915  0.00  0.00    +0.000 C 
ATOM     26  C   UNL     1       2.117   2.115  20.169  0.00  0.00    +0.000 C 
ATOM     27  C   UNL     1       1.376   3.115  21.063  0.00  0.00    +0.000 C 
BRANCH  26  28
ATOM     28  O   UNL     1       3.446   2.526  19.838  0.00  0.00    +0.000 OA
ATOM     29  H   UNL     1       4.002   1.745  19.755  0.00  0.00    +0.000 HD
ENDBRANCH  26  28
ENDBRANCH  22  23
ENDBRANCH  10  22
TORSDOF 6
ENDMDL
MODEL 3
REMARK VINA RESULT:      -7.1      2.549      4.576
REMARK  Name = 
REMARK  8 active torsions:
REMARK  status: ('A' for Active; 'I' for Inactive)
REMARK    1  A    between atoms: C_1  and  C_2
REMARK    2  A    between atoms: C_8  and  C_10
REMARK    3  A    between atoms: C_10  and  C_11
REMARK    4  A    between atoms: C_14  and  S_15
REMARK    5  A    between atoms: S_15  and  C_16
REMARK    6  A    between atoms: C_20  and  C_21
REMARK    7  A    between atoms: C_21  and  N_22
REMARK    8  A    between atoms: C_25  and  O_26
REMARK                            x       y       z     vdW  Elec       q    Type
REMARK                         _______ _______ _______ _____ _____    ______ ____
ROOT
ATOM      1  C   UNL     1       7.157   4.177  17.336  0.00  0.00    +0.000 C 
ATOM      2  C   UNL     1       6.821   5.596  16.954  0.00  0.00    +0.000 C 
ATOM      3  O   UNL     1       7.453   6.159  16.059  0.00  0.00    +0.000 OA
ATOM      4  N   UNL     1       5.745   6.192  17.593  0.00  0.00    +0.000 N 
ATOM      5  C   UNL     1       5.236   7.457  17.066  0.00  0.00    +0.000 C 
ATOM      6  C   UNL     1       3.701   7.533  17.135  0.00  0.00    +0.000 C 
ATOM      7  N   UNL     1       3.144   7.097  18.455  0.00  0.00    +0.000 N 
ATOM      8  C   UNL     1       2.253   7.988  19.045  0.00  0.00    +0.000 C 
ATOM      9  O   UNL     1       1.974   9.070  18.485  0.00  0.00    +0.000 OA
ATOM     10  C   UNL     1       3.678   5.753  18.887  0.00  0.00    +0.000 C 
ATOM     11  C   UNL     1       5.224   5.838  18.932  0.00  0.00    +0.000 C 
ENDROOT
BRANCH   8  12
ATOM     12  C   UNL     1       1.621   7.721  20.388  0.00  0.00    +0.000 C 
BRANCH  12  13
ATOM     13  C   UNL     1       0.751   8.830  20.945  0.00  0.00    +0.000 A 
ATOM     14  C   UNL     1       0.130   9.791  20.141  0.00  0.00    +0.000 A 
ATOM     15  C   UNL     1      -0.628  10.815  20.711  0.00  0.00    +0.000 A 
ATOM     16  C   UNL     1      -0.785  10.891  22.098  0.00  0.00    +0.000 A 
ATOM     17  C   UNL     1      -0.195   9.918  22.907  0.00  0.00    +0.000 A 
ATOM     18  C   UNL     1       0.564   8.894  22.337  0.00  0.00    +0.000 A 
BRANCH  16  19
ATOM     19  S   UNL     1      -1.713  12.262  22.818  0.00  0.00    +0.000 S 
ATOM     20  C   UNL     1      -2.301  12.977  21.263  0.00  0.00    +0.000 C 
ATOM     21  O   UNL     1      -2.959  11.640  23.544  0.00  0.00    +0.000 OA
ENDBRANCH  16  19
ENDBRANCH  12  13
ENDBRANCH   8  12
BRANCH  10  22
ATOM     22  C   UNL     1       3.046   5.027  20.122  0.00  0.00    +0.000 C 
BRANCH  22  23
ATOM     23  N   UNL     1       2.069   3.931  19.901  0.00  0.00    +0.000 NA
ATOM     24  C   UNL     1       1.742   3.799  18.440  0.00  0.00    +0.000 C 
ATOM     25  C   UNL     1       1.933   2.326  18.067  0.00  0.00    +0.000 C 
ATOM     26  C   UNL     1       3.052   1.925  18.992  0.00  0.00    +0.000 C 
ATOM     27  C   UNL     1       2.597   2.607  20.286  0.00  0.00    +0.000 C 
BRANCH  26  28
ATOM     28  O   UNL     1       4.264   2.465  18.461  0.00  0.00    +0.000 OA
ATOM     29  H   UNL     1       4.949   1.789  18.495  0.00  0.00    +0.000 HD
ENDBRANCH  26  28
ENDBRANCH  22  23
ENDBRANCH  10  22
TORSDOF 6
ENDMDL
MODEL 4
REMARK VINA RESULT:      -7.1      2.114      2.450
REMARK  Name = 
REMARK  8 active torsions:
REMARK  status: ('A' for Active; 'I' for Inactive)
REMARK    1  A    between atoms: C_1  and  C_2
REMARK    2  A    between atoms: C_8  and  C_10
REMARK    3  A    between atoms: C_10  and  C_11
REMARK    4  A    between atoms: C_14  and  S_15
REMARK    5  A    between atoms: S_15  and  C_16
REMARK    6  A    between atoms: C_20  and  C_21
REMARK    7  A    between atoms: C_21  and  N_22
REMARK    8  A    between atoms: C_25  and  O_26
REMARK                            x       y       z     vdW  Elec       q    Type
REMARK                         _______ _______ _______ _____ _____    ______ ____
ROOT
ATOM      1  C   UNL     1       3.244   1.678  18.581  0.00  0.00    +0.000 C 
ATOM      2  C   UNL     1       2.277   2.389  19.493  0.00  0.00    +0.000 C 
ATOM      3  O   UNL     1       1.684   1.761  20.370  0.00  0.00    +0.000 OA
ATOM      4  N   UNL     1       2.149   3.761  19.344  0.00  0.00    +0.000 N 
ATOM      5  C   UNL     1       1.426   4.508  20.373  0.00  0.00    +0.000 C 
ATOM      6  C   UNL     1       2.083   5.869  20.663  0.00  0.00    +0.000 C 
ATOM      7  N   UNL     1       2.442   6.631  19.425  0.00  0.00    +0.000 N 
ATOM      8  C   UNL     1       1.985   7.945  19.384  0.00  0.00    +0.000 C 
ATOM      9  O   UNL     1       1.315   8.413  20.331  0.00  0.00    +0.000 OA
ATOM     10  C   UNL     1       3.240   5.800  18.451  0.00  0.00    +0.000 C 
ATOM     11  C   UNL     1       2.417   4.532  18.109  0.00  0.00    +0.000 C 
ENDROOT
BRANCH   8  12
ATOM     12  C   UNL     1       2.231   8.845  18.200  0.00  0.00    +0.000 C 
BRANCH  12  13
ATOM     13  C   UNL     1       1.655  10.243  18.297  0.00  0.00    +0.000 A 
ATOM     14  C   UNL     1       2.437  11.400  18.212  0.00  0.00    +0.000 A 
ATOM     15  C   UNL     1       1.860  12.663  18.349  0.00  0.00    +0.000 A 
ATOM     16  C   UNL     1       0.485  12.792  18.563  0.00  0.00    +0.000 A 
ATOM     17  C   UNL     1      -0.309  11.645  18.617  0.00  0.00    +0.000 A 
ATOM     18  C   UNL     1       0.269  10.382  18.481  0.00  0.00    +0.000 A 
BRANCH  16  19
ATOM     19  S   UNL     1      -0.232  14.431  18.804  0.00  0.00    +0.000 S 
ATOM     20  C   UNL     1      -1.165  14.051  20.307  0.00  0.00    +0.000 C 
ATOM     21  O   UNL     1       0.943  15.389  19.216  0.00  0.00    +0.000 OA
ENDBRANCH  16  19
ENDBRANCH  12  13
ENDBRANCH   8  12
BRANCH  10  22
ATOM     22  C   UNL     1       3.900   6.481  17.205  0.00  0.00    +0.000 C 
BRANCH  22  23
ATOM     23  N   UNL     1       5.380   6.580  17.129  0.00  0.00    +0.000 NA
ATOM     24  C   UNL     1       6.020   5.862  18.284  0.00  0.00    +0.000 C 
ATOM     25  C   UNL     1       7.073   4.916  17.699  0.00  0.00    +0.000 C 
ATOM     26  C   UNL     1       6.448   4.552  16.378  0.00  0.00    +0.000 C 
ATOM     27  C   UNL     1       5.935   5.924  15.928  0.00  0.00    +0.000 C 
BRANCH  26  28
ATOM     28  O   UNL     1       5.403   3.613  16.640  0.00  0.00    +0.000 OA
ATOM     29  H   UNL     1       4.897   3.913  17.402  0.00  0.00    +0.000 HD
ENDBRANCH  26  28
ENDBRANCH  22  23
ENDBRANCH  10  22
TORSDOF 6
ENDMDL
MODEL 5
REMARK VINA RESULT:      -7.0      2.659      4.659
REMARK  Name = 
REMARK  8 active torsions:
REMARK  status: ('A' for Active; 'I' for Inactive)
REMARK    1  A    between atoms: C_1  and  C_2
REMARK    2  A    between atoms: C_8  and  C_10
REMARK    3  A    between atoms: C_10  and  C_11
REMARK    4  A    between atoms: C_14  and  S_15
REMARK    5  A    between atoms: S_15  and  C_16
REMARK    6  A    between atoms: C_20  and  C_21
REMARK    7  A    between atoms: C_21  and  N_22
REMARK    8  A    between atoms: C_25  and  O_26
REMARK                            x       y       z     vdW  Elec       q    Type
REMARK                         _______ _______ _______ _____ _____    ______ ____
ROOT
ATOM      1  C   UNL     1       7.563   4.236  17.513  0.00  0.00    +0.000 C 
ATOM      2  C   UNL     1       7.128   5.599  17.040  0.00  0.00    +0.000 C 
ATOM      3  O   UNL     1       7.743   6.160  16.132  0.00  0.00    +0.000 OA
ATOM      4  N   UNL     1       5.989   6.142  17.612  0.00  0.00    +0.000 N 
ATOM      5  C   UNL     1       5.399   7.330  16.998  0.00  0.00    +0.000 C 
ATOM      6  C   UNL     1       3.862   7.286  17.020  0.00  0.00    +0.000 C 
ATOM      7  N   UNL     1       3.298   6.881  18.347  0.00  0.00    +0.000 N 
ATOM      8  C   UNL     1       2.320   7.730  18.859  0.00  0.00    +0.000 C 
ATOM      9  O   UNL     1       1.975   8.752  18.228  0.00  0.00    +0.000 OA
ATOM     10  C   UNL     1       3.921   5.612  18.872  0.00  0.00    +0.000 C 
ATOM     11  C   UNL     1       5.454   5.823  18.955  0.00  0.00    +0.000 C 
ENDROOT
BRANCH   8  12
ATOM     12  C   UNL     1       1.668   7.489  20.196  0.00  0.00    +0.000 C 
BRANCH  12  13
ATOM     13  C   UNL     1       0.874   8.646  20.766  0.00  0.00    +0.000 A 
ATOM     14  C   UNL     1       0.517   9.771  20.016  0.00  0.00    +0.000 A 
ATOM     15  C   UNL     1      -0.180  10.828  20.602  0.00  0.00    +0.000 A 
ATOM     16  C   UNL     1      -0.544  10.774  21.951  0.00  0.00    +0.000 A 
ATOM     17  C   UNL     1      -0.220   9.641  22.701  0.00  0.00    +0.000 A 
ATOM     18  C   UNL     1       0.479   8.584  22.114  0.00  0.00    +0.000 A 
BRANCH  16  19
ATOM     19  S   UNL     1      -1.386  12.179  22.707  0.00  0.00    +0.000 S 
ATOM     20  C   UNL     1      -2.052  12.890  21.182  0.00  0.00    +0.000 C 
ATOM     21  O   UNL     1      -2.601  11.602  23.519  0.00  0.00    +0.000 OA
ENDBRANCH  16  19
ENDBRANCH  12  13
ENDBRANCH   8  12
BRANCH  10  22
ATOM     22  C   UNL     1       3.309   4.907  20.129  0.00  0.00    +0.000 C 
BRANCH  22  23
ATOM     23  N   UNL     1       2.954   3.467  20.056  0.00  0.00    +0.000 NA
ATOM     24  C   UNL     1       1.495   3.265  20.355  0.00  0.00    +0.000 C 
ATOM     25  C   UNL     1       0.915   2.418  19.219  0.00  0.00    +0.000 C 
ATOM     26  C   UNL     1       1.754   2.867  18.051  0.00  0.00    +0.000 C 
ATOM     27  C   UNL     1       3.139   2.900  18.705  0.00  0.00    +0.000 C 
BRANCH  26  28
ATOM     28  O   UNL     1       1.282   4.156  17.653  0.00  0.00    +0.000 OA
ATOM     29  H   UNL     1       0.465   4.349  18.124  0.00  0.00    +0.000 HD
ENDBRANCH  26  28
ENDBRANCH  22  23
ENDBRANCH  10  22
TORSDOF 6
ENDMDL
MODEL 6
REMARK VINA RESULT:      -6.9      2.575      4.664
REMARK  Name = 
REMARK  8 active torsions:
REMARK  status: ('A' for Active; 'I' for Inactive)
REMARK    1  A    between atoms: C_1  and  C_2
REMARK    2  A    between atoms: C_8  and  C_10
REMARK    3  A    between atoms: C_10  and  C_11
REMARK    4  A    between atoms: C_14  and  S_15
REMARK    5  A    between atoms: S_15  and  C_16
REMARK    6  A    between atoms: C_20  and  C_21
REMARK    7  A    between atoms: C_21  and  N_22
REMARK    8  A    between atoms: C_25  and  O_26
REMARK                            x       y       z     vdW  Elec       q    Type
REMARK                         _______ _______ _______ _____ _____    ______ ____
ROOT
ATOM      1  C   UNL     1       7.480   4.324  17.486  0.00  0.00    +0.000 C 
ATOM      2  C   UNL     1       7.050   5.708  17.069  0.00  0.00    +0.000 C 
ATOM      3  O   UNL     1       7.669   6.304  16.186  0.00  0.00    +0.000 OA
ATOM      4  N   UNL     1       5.911   6.229  17.661  0.00  0.00    +0.000 N 
ATOM      5  C   UNL     1       5.326   7.444  17.095  0.00  0.00    +0.000 C 
ATOM      6  C   UNL     1       3.789   7.403  17.112  0.00  0.00    +0.000 C 
ATOM      7  N   UNL     1       3.220   6.945  18.419  0.00  0.00    +0.000 N 
ATOM      8  C   UNL     1       2.244   7.774  18.964  0.00  0.00    +0.000 C 
ATOM      9  O   UNL     1       1.903   8.823  18.375  0.00  0.00    +0.000 OA
ATOM     10  C   UNL     1       3.839   5.653  18.892  0.00  0.00    +0.000 C 
ATOM     11  C   UNL     1       5.372   5.856  18.988  0.00  0.00    +0.000 C 
ENDROOT
BRANCH   8  12
ATOM     12  C   UNL     1       1.588   7.479  20.289  0.00  0.00    +0.000 C 
BRANCH  12  13
ATOM     13  C   UNL     1       0.890   8.646  20.958  0.00  0.00    +0.000 A 
ATOM     14  C   UNL     1       0.774   8.772  22.346  0.00  0.00    +0.000 A 
ATOM     15  C   UNL     1       0.084   9.847  22.910  0.00  0.00    +0.000 A 
ATOM     16  C   UNL     1      -0.494  10.822  22.092  0.00  0.00    +0.000 A 
ATOM     17  C   UNL     1      -0.357  10.722  20.706  0.00  0.00    +0.000 A 
ATOM     18  C   UNL     1       0.332   9.646  20.143  0.00  0.00    +0.000 A 
BRANCH  16  19
ATOM     19  S   UNL     1      -1.438  12.168  22.837  0.00  0.00    +0.000 S 
ATOM     20  C   UNL     1      -0.422  13.529  22.213  0.00  0.00    +0.000 C 
ATOM     21  O   UNL     1      -2.816  12.232  22.085  0.00  0.00    +0.000 OA
ENDBRANCH  16  19
ENDBRANCH  12  13
ENDBRANCH   8  12
BRANCH  10  22
ATOM     22  C   UNL     1       3.222   4.898  20.118  0.00  0.00    +0.000 C 
BRANCH  22  23
ATOM     23  N   UNL     1       2.992   3.433  20.030  0.00  0.00    +0.000 NA
ATOM     24  C   UNL     1       1.555   3.104  20.320  0.00  0.00    +0.000 C 
ATOM     25  C   UNL     1       1.055   2.220  19.173  0.00  0.00    +0.000 C 
ATOM     26  C   UNL     1       1.858   2.750  18.014  0.00  0.00    +0.000 C 
ATOM     27  C   UNL     1       3.232   2.897  18.675  0.00  0.00    +0.000 C 
BRANCH  26  28
ATOM     28  O   UNL     1       1.278   3.997  17.624  0.00  0.00    +0.000 OA
ATOM     29  H   UNL     1       1.628   4.248  16.763  0.00  0.00    +0.000 HD
ENDBRANCH  26  28
ENDBRANCH  22  23
ENDBRANCH  10  22
TORSDOF 6
ENDMDL
MODEL 7
REMARK VINA RESULT:      -6.8      3.508      8.594
REMARK  Name = 
REMARK  8 active torsions:
REMARK  status: ('A' for Active; 'I' for Inactive)
REMARK    1  A    between atoms: C_1  and  C_2
REMARK    2  A    between atoms: C_8  and  C_10
REMARK    3  A    between atoms: C_10  and  C_11
REMARK    4  A    between atoms: C_14  and  S_15
REMARK    5  A    between atoms: S_15  and  C_16
REMARK    6  A    between atoms: C_20  and  C_21
REMARK    7  A    between atoms: C_21  and  N_22
REMARK    8  A    between atoms: C_25  and  O_26
REMARK                            x       y       z     vdW  Elec       q    Type
REMARK                         _______ _______ _______ _____ _____    ______ ____
ROOT
ATOM      1  C   UNL     1      -2.941  13.663  21.347  0.00  0.00    +0.000 C 
ATOM      2  C   UNL     1      -1.959  12.888  22.189  0.00  0.00    +0.000 C 
ATOM      3  O   UNL     1      -1.955  13.027  23.413  0.00  0.00    +0.000 OA
ATOM      4  N   UNL     1      -1.134  11.983  21.540  0.00  0.00    +0.000 N 
ATOM      5  C   UNL     1      -0.364  11.040  22.348  0.00  0.00    +0.000 C 
ATOM      6  C   UNL     1      -0.294   9.648  21.696  0.00  0.00    +0.000 C 
ATOM      7  N   UNL     1       0.040   9.691  20.237  0.00  0.00    +0.000 N 
ATOM      8  C   UNL     1       1.091   8.867  19.845  0.00  0.00    +0.000 C 
ATOM      9  O   UNL     1       1.693   8.165  20.685  0.00  0.00    +0.000 OA
ATOM     10  C   UNL     1      -0.847  10.644  19.474  0.00  0.00    +0.000 C 
ATOM     11  C   UNL     1      -0.720  12.046  20.120  0.00  0.00    +0.000 C 
ENDROOT
BRANCH   8  12
ATOM     12  C   UNL     1       1.577   8.810  18.419  0.00  0.00    +0.000 C 
BRANCH  12  13
ATOM     13  C   UNL     1       2.509   7.664  18.080  0.00  0.00    +0.000 A 
ATOM     14  C   UNL     1       2.203   6.326  18.349  0.00  0.00    +0.000 A 
ATOM     15  C   UNL     1       3.117   5.313  18.054  0.00  0.00    +0.000 A 
ATOM     16  C   UNL     1       4.350   5.620  17.472  0.00  0.00    +0.000 A 
ATOM     17  C   UNL     1       4.651   6.950  17.171  0.00  0.00    +0.000 A 
ATOM     18  C   UNL     1       3.738   7.963  17.468  0.00  0.00    +0.000 A 
BRANCH  16  19
ATOM     19  S   UNL     1       5.543   4.302  17.159  0.00  0.00    +0.000 S 
ATOM     20  C   UNL     1       6.715   5.285  16.192  0.00  0.00    +0.000 C 
ATOM     21  O   UNL     1       6.233   3.974  18.532  0.00  0.00    +0.000 OA
ENDBRANCH  16  19
ENDBRANCH  12  13
ENDBRANCH   8  12
BRANCH  10  22
ATOM     22  C   UNL     1      -0.805  10.661  17.909  0.00  0.00    +0.000 C 
BRANCH  22  23
ATOM     23  N   UNL     1      -1.920  10.044  17.144  0.00  0.00    +0.000 NA
ATOM     24  C   UNL     1      -2.974   9.517  18.076  0.00  0.00    +0.000 C 
ATOM     25  C   UNL     1      -4.317  10.082  17.602  0.00  0.00    +0.000 C 
ATOM     26  C   UNL     1      -3.900  11.417  17.043  0.00  0.00    +0.000 C 
ATOM     27  C   UNL     1      -2.630  11.014  16.287  0.00  0.00    +0.000 C 
BRANCH  26  28
ATOM     28  O   UNL     1      -3.652  12.288  18.149  0.00  0.00    +0.000 OA
ATOM     29  H   UNL     1      -2.761  12.129  18.478  0.00  0.00    +0.000 HD
ENDBRANCH  26  28
ENDBRANCH  22  23
ENDBRANCH  10  22
TORSDOF 6
ENDMDL
MODEL 8
REMARK VINA RESULT:      -6.8      0.627      1.098
REMARK  Name = 
REMARK  8 active torsions:
REMARK  status: ('A' for Active; 'I' for Inactive)
REMARK    1  A    between atoms: C_1  and  C_2
REMARK    2  A    between atoms: C_8  and  C_10
REMARK    3  A    between atoms: C_10  and  C_11
REMARK    4  A    between atoms: C_14  and  S_15
REMARK    5  A    between atoms: S_15  and  C_16
REMARK    6  A    between atoms: C_20  and  C_21
REMARK    7  A    between atoms: C_21  and  N_22
REMARK    8  A    between atoms: C_25  and  O_26
REMARK                            x       y       z     vdW  Elec       q    Type
REMARK                         _______ _______ _______ _____ _____    ______ ____
ROOT
ATOM      1  C   UNL     1       3.257   1.787  17.896  0.00  0.00    +0.000 C 
ATOM      2  C   UNL     1       2.382   2.230  19.041  0.00  0.00    +0.000 C 
ATOM      3  O   UNL     1       1.926   1.397  19.825  0.00  0.00    +0.000 OA
ATOM      4  N   UNL     1       2.182   3.592  19.203  0.00  0.00    +0.000 N 
ATOM      5  C   UNL     1       1.562   4.062  20.441  0.00  0.00    +0.000 C 
ATOM      6  C   UNL     1       2.194   5.373  20.939  0.00  0.00    +0.000 C 
ATOM      7  N   UNL     1       2.368   6.396  19.859  0.00  0.00    +0.000 N 
ATOM      8  C   UNL     1       1.858   7.658  20.150  0.00  0.00    +0.000 C 
ATOM      9  O   UNL     1       1.291   7.875  21.243  0.00  0.00    +0.000 OA
ATOM     10  C   UNL     1       3.073   5.837  18.648  0.00  0.00    +0.000 C 
ATOM     11  C   UNL     1       2.267   4.617  18.138  0.00  0.00    +0.000 C 
ENDROOT
BRANCH   8  12
ATOM     12  C   UNL     1       1.921   8.797  19.165  0.00  0.00    +0.000 C 
BRANCH  12  13
ATOM     13  C   UNL     1       0.619   9.529  18.911  0.00  0.00    +0.000 A 
ATOM     14  C   UNL     1      -0.150   9.344  17.758  0.00  0.00    +0.000 A 
ATOM     15  C   UNL     1      -1.321  10.075  17.556  0.00  0.00    +0.000 A 
ATOM     16  C   UNL     1      -1.751  11.000  18.512  0.00  0.00    +0.000 A 
ATOM     17  C   UNL     1      -1.006  11.170  19.681  0.00  0.00    +0.000 A 
ATOM     18  C   UNL     1       0.166  10.439  19.882  0.00  0.00    +0.000 A 
BRANCH  16  19
ATOM     19  S   UNL     1      -3.232  11.983  18.202  0.00  0.00    +0.000 S 
ATOM     20  C   UNL     1      -4.110  10.759  17.199  0.00  0.00    +0.000 C 
ATOM     21  O   UNL     1      -3.998  12.101  19.568  0.00  0.00    +0.000 OA
ENDBRANCH  16  19
ENDBRANCH  12  13
ENDBRANCH   8  12
BRANCH  10  22
ATOM     22  C   UNL     1       3.549   6.803  17.511  0.00  0.00    +0.000 C 
BRANCH  22  23
ATOM     23  N   UNL     1       4.999   6.915  17.210  0.00  0.00    +0.000 NA
ATOM     24  C   UNL     1       5.785   5.917  18.011  0.00  0.00    +0.000 C 
ATOM     25  C   UNL     1       6.682   5.157  17.028  0.00  0.00    +0.000 C 
ATOM     26  C   UNL     1       5.832   5.157  15.785  0.00  0.00    +0.000 C 
ATOM     27  C   UNL     1       5.317   6.600  15.803  0.00  0.00    +0.000 C 
BRANCH  26  28
ATOM     28  O   UNL     1       4.801   4.183  15.969  0.00  0.00    +0.000 OA
ATOM     29  H   UNL     1       4.038   4.609  16.372  0.00  0.00    +0.000 HD
ENDBRANCH  26  28
ENDBRANCH  22  23
ENDBRANCH  10  22
TORSDOF 6
ENDMDL
MODEL 9
REMARK VINA RESULT:      -6.7      4.495      6.657
REMARK  Name = 
REMARK  8 active torsions:
REMARK  status: ('A' for Active; 'I' for Inactive)
REMARK    1  A    between atoms: C_1  and  C_2
REMARK    2  A    between atoms: C_8  and  C_10
REMARK    3  A    between atoms: C_10  and  C_11
REMARK    4  A    between atoms: C_14  and  S_15
REMARK    5  A    between atoms: S_15  and  C_16
REMARK    6  A    between atoms: C_20  and  C_21
REMARK    7  A    between atoms: C_21  and  N_22
REMARK    8  A    between atoms: C_25  and  O_26
REMARK                            x       y       z     vdW  Elec       q    Type
REMARK                         _______ _______ _______ _____ _____    ______ ____
ROOT
ATOM      1  C   UNL     1       2.840   8.167  17.844  0.00  0.00    +0.000 C 
ATOM      2  C   UNL     1       2.217   7.697  19.133  0.00  0.00    +0.000 C 
ATOM      3  O   UNL     1       2.467   6.571  19.563  0.00  0.00    +0.000 OA
ATOM      4  N   UNL     1       1.427   8.600  19.828  0.00  0.00    +0.000 N 
ATOM      5  C   UNL     1       1.026   8.267  21.194  0.00  0.00    +0.000 C 
ATOM      6  C   UNL     1       1.040   9.500  22.114  0.00  0.00    +0.000 C 
ATOM      7  N   UNL     1       0.382  10.701  21.508  0.00  0.00    +0.000 N 
ATOM      8  C   UNL     1      -0.580  11.315  22.305  0.00  0.00    +0.000 C 
ATOM      9  O   UNL     1      -0.852  10.857  23.436  0.00  0.00    +0.000 OA
ATOM     10  C   UNL     1       0.904  11.004  20.125  0.00  0.00    +0.000 C 
ATOM     11  C   UNL     1       0.697   9.748  19.243  0.00  0.00    +0.000 C 
ENDROOT
BRANCH   8  12
ATOM     12  C   UNL     1      -1.360  12.518  21.839  0.00  0.00    +0.000 C 
BRANCH  12  13
ATOM     13  C   UNL     1      -2.812  12.575  22.269  0.00  0.00    +0.000 A 
ATOM     14  C   UNL     1      -3.877  12.613  21.363  0.00  0.00    +0.000 A 
ATOM     15  C   UNL     1      -5.194  12.706  21.813  0.00  0.00    +0.000 A 
ATOM     16  C   UNL     1      -5.471  12.752  23.183  0.00  0.00    +0.000 A 
ATOM     17  C   UNL     1      -4.417  12.683  24.096  0.00  0.00    +0.000 A 
ATOM     18  C   UNL     1      -3.099  12.591  23.645  0.00  0.00    +0.000 A 
BRANCH  16  19
ATOM     19  S   UNL     1      -7.177  12.940  23.743  0.00  0.00    +0.000 S 
ATOM     20  C   UNL     1      -7.824  13.712  22.240  0.00  0.00    +0.000 C 
ATOM     21  O   UNL     1      -7.793  11.497  23.827  0.00  0.00    +0.000 OA
ENDBRANCH  16  19
ENDBRANCH  12  13
ENDBRANCH   8  12
BRANCH  10  22
ATOM     22  C   UNL     1       0.506  12.345  19.421  0.00  0.00    +0.000 C 
BRANCH  22  23
ATOM     23  N   UNL     1       1.154  13.612  19.848  0.00  0.00    +0.000 NA
ATOM     24  C   UNL     1       2.539  13.350  20.369  0.00  0.00    +0.000 C 
ATOM     25  C   UNL     1       3.484  14.307  19.636  0.00  0.00    +0.000 C 
ATOM     26  C   UNL     1       2.809  14.427  18.295  0.00  0.00    +0.000 C 
ATOM     27  C   UNL     1       1.347  14.560  18.733  0.00  0.00    +0.000 C 
BRANCH  26  28
ATOM     28  O   UNL     1       3.077  13.224  17.569  0.00  0.00    +0.000 OA
ATOM     29  H   UNL     1       3.271  13.449  16.653  0.00  0.00    +0.000 HD
ENDBRANCH  26  28
ENDBRANCH  22  23
ENDBRANCH  10  22
TORSDOF 6
ENDMDL
