MODEL 1
REMARK VINA RESULT:      -6.4      0.000      0.000
REMARK  Name = 
REMARK  1 active torsions:
REMARK  status: ('A' for Active; 'I' for Inactive)
REMARK    1  A    between atoms: C_5  and  C_6
REMARK                            x       y       z     vdW  Elec       q    Type
REMARK                         _______ _______ _______ _____ _____    ______ ____
ROOT
ATOM      1 CL   UNL     1       0.760   3.604  20.190  0.00  0.00    +0.000 Cl
ATOM      2  C   UNL     1       2.132   4.058  19.257  0.00  0.00    +0.000 A 
ATOM      3  C   UNL     1       2.353   3.460  18.024  0.00  0.00    +0.000 A 
ATOM      4  C   UNL     1       3.454   3.848  17.262  0.00  0.00    +0.000 A 
ATOM      5  C   UNL     1       4.365   4.829  17.706  0.00  0.00    +0.000 A 
ATOM      6  C   UNL     1       4.121   5.409  18.959  0.00  0.00    +0.000 A 
ATOM      7  C   UNL     1       3.013   5.029  19.731  0.00  0.00    +0.000 A 
ENDROOT
BRANCH   5   8
ATOM      8  C   UNL     1       5.500   5.235  16.797  0.00  0.00    +0.000 C 
ATOM      9  C   UNL     1       6.902   5.025  17.323  0.00  0.00    +0.000 C 
ATOM     10  N   UNL     1       7.653   4.435  16.192  0.00  0.00    +0.000 NA
ATOM     11  C   UNL     1       7.050   4.951  14.954  0.00  0.00    +0.000 C 
ATOM     12  C   UNL     1       5.606   5.104  15.318  0.00  0.00    +0.000 C 
ATOM     13  C   UNL     1       5.161   6.413  15.878  0.00  0.00    +0.000 C 
ATOM     14  H   UNL     1       7.484   3.430  16.210  0.00  0.00    +0.000 HD
ENDBRANCH   5   8
TORSDOF 1
ENDMDL
MODEL 2
REMARK VINA RESULT:      -6.4      0.227      1.352
REMARK  Name = 
REMARK  1 active torsions:
REMARK  status: ('A' for Active; 'I' for Inactive)
REMARK    1  A    between atoms: C_5  and  C_6
REMARK                            x       y       z     vdW  Elec       q    Type
REMARK                         _______ _______ _______ _____ _____    ______ ____
ROOT
ATOM      1 CL   UNL     1       0.720   3.855  20.451  0.00  0.00    +0.000 Cl
ATOM      2  C   UNL     1       2.026   4.232  19.398  0.00  0.00    +0.000 A 
ATOM      3  C   UNL     1       2.965   5.179  19.781  0.00  0.00    +0.000 A 
ATOM      4  C   UNL     1       4.035   5.466  18.933  0.00  0.00    +0.000 A 
ATOM      5  C   UNL     1       4.194   4.828  17.685  0.00  0.00    +0.000 A 
ATOM      6  C   UNL     1       3.224   3.883  17.321  0.00  0.00    +0.000 A 
ATOM      7  C   UNL     1       2.148   3.584  18.169  0.00  0.00    +0.000 A 
ENDROOT
BRANCH   5   8
ATOM      8  C   UNL     1       5.409   5.152  16.850  0.00  0.00    +0.000 C 
ATOM      9  C   UNL     1       6.757   4.853  17.465  0.00  0.00    +0.000 C 
ATOM     10  N   UNL     1       7.537   4.208  16.384  0.00  0.00    +0.000 NA
ATOM     11  C   UNL     1       7.050   4.756  15.110  0.00  0.00    +0.000 C 
ATOM     12  C   UNL     1       5.599   5.006  15.381  0.00  0.00    +0.000 C 
ATOM     13  C   UNL     1       5.208   6.346  15.909  0.00  0.00    +0.000 C 
ATOM     14  H   UNL     1       7.302   3.217  16.393  0.00  0.00    +0.000 HD
ENDBRANCH   5   8
TORSDOF 1
ENDMDL
MODEL 3
REMARK VINA RESULT:      -6.3      3.206      5.000
REMARK  Name = 
REMARK  1 active torsions:
REMARK  status: ('A' for Active; 'I' for Inactive)
REMARK    1  A    between atoms: C_5  and  C_6
REMARK                            x       y       z     vdW  Elec       q    Type
REMARK                         _______ _______ _______ _____ _____    ______ ____
ROOT
ATOM      1 CL   UNL     1       7.819   7.139  18.068  0.00  0.00    +0.000 Cl
ATOM      2  C   UNL     1       6.413   6.152  18.017  0.00  0.00    +0.000 A 
ATOM      3  C   UNL     1       6.088   5.361  19.110  0.00  0.00    +0.000 A 
ATOM      4  C   UNL     1       4.933   4.579  19.072  0.00  0.00    +0.000 A 
ATOM      5  C   UNL     1       4.080   4.557  17.949  0.00  0.00    +0.000 A 
ATOM      6  C   UNL     1       4.439   5.359  16.856  0.00  0.00    +0.000 A 
ATOM      7  C   UNL     1       5.595   6.153  16.887  0.00  0.00    +0.000 A 
ENDROOT
BRANCH   5   8
ATOM      8  C   UNL     1       2.820   3.728  18.007  0.00  0.00    +0.000 C 
ATOM      9  C   UNL     1       2.955   2.258  17.680  0.00  0.00    +0.000 C 
ATOM     10  N   UNL     1       2.161   1.559  18.715  0.00  0.00    +0.000 NA
ATOM     11  C   UNL     1       1.070   2.463  19.110  0.00  0.00    +0.000 C 
ATOM     12  C   UNL     1       1.684   3.820  18.966  0.00  0.00    +0.000 C 
ATOM     13  C   UNL     1       1.552   4.512  17.651  0.00  0.00    +0.000 C 
ATOM     14  H   UNL     1       2.763   1.444  19.530  0.00  0.00    +0.000 HD
ENDBRANCH   5   8
TORSDOF 1
ENDMDL
MODEL 4
REMARK VINA RESULT:      -6.3      1.120      1.122
REMARK  Name = 
REMARK  1 active torsions:
REMARK  status: ('A' for Active; 'I' for Inactive)
REMARK    1  A    between atoms: C_5  and  C_6
REMARK                            x       y       z     vdW  Elec       q    Type
REMARK                         _______ _______ _______ _____ _____    ______ ____
ROOT
ATOM      1 CL   UNL     1       1.311   2.801  21.379  0.00  0.00    +0.000 Cl
ATOM      2  C   UNL     1       2.528   3.365  20.305  0.00  0.00    +0.000 A 
ATOM      3  C   UNL     1       3.115   2.484  19.407  0.00  0.00    +0.000 A 
ATOM      4  C   UNL     1       4.086   2.952  18.522  0.00  0.00    +0.000 A 
ATOM      5  C   UNL     1       4.504   4.299  18.512  0.00  0.00    +0.000 A 
ATOM      6  C   UNL     1       3.901   5.163  19.437  0.00  0.00    +0.000 A 
ATOM      7  C   UNL     1       2.919   4.704  20.327  0.00  0.00    +0.000 A 
ENDROOT
BRANCH   5   8
ATOM      8  C   UNL     1       5.520   4.739  17.486  0.00  0.00    +0.000 C 
ATOM      9  C   UNL     1       6.954   4.853  17.951  0.00  0.00    +0.000 C 
ATOM     10  N   UNL     1       7.757   4.225  16.878  0.00  0.00    +0.000 NA
ATOM     11  C   UNL     1       7.032   4.430  15.616  0.00  0.00    +0.000 C 
ATOM     12  C   UNL     1       5.597   4.395  16.039  0.00  0.00    +0.000 C 
ATOM     13  C   UNL     1       4.949   5.684  16.422  0.00  0.00    +0.000 C 
ATOM     14  H   UNL     1       7.768   3.222  17.057  0.00  0.00    +0.000 HD
ENDBRANCH   5   8
TORSDOF 1
ENDMDL
MODEL 5
REMARK VINA RESULT:      -6.2      3.294      5.473
REMARK  Name = 
REMARK  1 active torsions:
REMARK  status: ('A' for Active; 'I' for Inactive)
REMARK    1  A    between atoms: C_5  and  C_6
REMARK                            x       y       z     vdW  Elec       q    Type
REMARK                         _______ _______ _______ _____ _____    ______ ____
ROOT
ATOM      1 CL   UNL     1       5.379   6.495  15.528  0.00  0.00    +0.000 Cl
ATOM      2  C   UNL     1       4.600   5.507  16.700  0.00  0.00    +0.000 A 
ATOM      3  C   UNL     1       4.064   6.089  17.841  0.00  0.00    +0.000 A 
ATOM      4  C   UNL     1       3.413   5.286  18.778  0.00  0.00    +0.000 A 
ATOM      5  C   UNL     1       3.286   3.892  18.612  0.00  0.00    +0.000 A 
ATOM      6  C   UNL     1       3.846   3.332  17.454  0.00  0.00    +0.000 A 
ATOM      7  C   UNL     1       4.497   4.131  16.503  0.00  0.00    +0.000 A 
ENDROOT
BRANCH   5   8
ATOM      8  C   UNL     1       2.519   3.101  19.643  0.00  0.00    +0.000 C 
ATOM      9  C   UNL     1       3.333   2.361  20.680  0.00  0.00    +0.000 C 
ATOM     10  N   UNL     1       2.651   2.627  21.966  0.00  0.00    +0.000 NA
ATOM     11  C   UNL     1       1.223   2.809  21.671  0.00  0.00    +0.000 C 
ATOM     12  C   UNL     1       1.233   3.440  20.315  0.00  0.00    +0.000 C 
ATOM     13  C   UNL     1       1.189   2.541  19.125  0.00  0.00    +0.000 C 
ATOM     14  H   UNL     1       3.001   3.519  22.314  0.00  0.00    +0.000 HD
ENDBRANCH   5   8
TORSDOF 1
ENDMDL
MODEL 6
REMARK VINA RESULT:      -6.2      3.295      5.338
REMARK  Name = 
REMARK  1 active torsions:
REMARK  status: ('A' for Active; 'I' for Inactive)
REMARK    1  A    between atoms: C_5  and  C_6
REMARK                            x       y       z     vdW  Elec       q    Type
REMARK                         _______ _______ _______ _____ _____    ______ ____
ROOT
ATOM      1 CL   UNL     1       5.507   6.533  15.548  0.00  0.00    +0.000 Cl
ATOM      2  C   UNL     1       4.588   5.652  16.703  0.00  0.00    +0.000 A 
ATOM      3  C   UNL     1       4.591   4.264  16.669  0.00  0.00    +0.000 A 
ATOM      4  C   UNL     1       3.863   3.553  17.623  0.00  0.00    +0.000 A 
ATOM      5  C   UNL     1       3.109   4.199  18.624  0.00  0.00    +0.000 A 
ATOM      6  C   UNL     1       3.118   5.601  18.628  0.00  0.00    +0.000 A 
ATOM      7  C   UNL     1       3.852   6.325  17.677  0.00  0.00    +0.000 A 
ENDROOT
BRANCH   5   8
ATOM      8  C   UNL     1       2.393   3.359  19.654  0.00  0.00    +0.000 C 
ATOM      9  C   UNL     1       3.254   2.497  20.549  0.00  0.00    +0.000 C 
ATOM     10  N   UNL     1       2.700   2.683  21.909  0.00  0.00    +0.000 NA
ATOM     11  C   UNL     1       1.263   2.953  21.760  0.00  0.00    +0.000 C 
ATOM     12  C   UNL     1       1.190   3.696  20.463  0.00  0.00    +0.000 C 
ATOM     13  C   UNL     1       0.997   2.905  19.213  0.00  0.00    +0.000 C 
ATOM     14  H   UNL     1       3.124   3.527  22.295  0.00  0.00    +0.000 HD
ENDBRANCH   5   8
TORSDOF 1
ENDMDL
MODEL 7
REMARK VINA RESULT:      -6.2      3.188      4.920
REMARK  Name = 
REMARK  1 active torsions:
REMARK  status: ('A' for Active; 'I' for Inactive)
REMARK    1  A    between atoms: C_5  and  C_6
REMARK                            x       y       z     vdW  Elec       q    Type
REMARK                         _______ _______ _______ _____ _____    ______ ____
ROOT
ATOM      1 CL   UNL     1       7.811   7.055  17.720  0.00  0.00    +0.000 Cl
ATOM      2  C   UNL     1       6.360   6.139  17.831  0.00  0.00    +0.000 A 
ATOM      3  C   UNL     1       5.534   6.023  16.722  0.00  0.00    +0.000 A 
ATOM      4  C   UNL     1       4.370   5.260  16.811  0.00  0.00    +0.000 A 
ATOM      5  C   UNL     1       3.994   4.602  18.000  0.00  0.00    +0.000 A 
ATOM      6  C   UNL     1       4.843   4.745  19.107  0.00  0.00    +0.000 A 
ATOM      7  C   UNL     1       6.019   5.506  19.026  0.00  0.00    +0.000 A 
ENDROOT
BRANCH   5   8
ATOM      8  C   UNL     1       2.748   3.749  17.999  0.00  0.00    +0.000 C 
ATOM      9  C   UNL     1       2.914   2.301  17.601  0.00  0.00    +0.000 C 
ATOM     10  N   UNL     1       2.119   1.537  18.589  0.00  0.00    +0.000 NA
ATOM     11  C   UNL     1       1.007   2.400  19.012  0.00  0.00    +0.000 C 
ATOM     12  C   UNL     1       1.598   3.774  18.945  0.00  0.00    +0.000 C 
ATOM     13  C   UNL     1       1.471   4.528  17.664  0.00  0.00    +0.000 C 
ATOM     14  H   UNL     1       2.712   1.392  19.406  0.00  0.00    +0.000 HD
ENDBRANCH   5   8
TORSDOF 1
ENDMDL
MODEL 8
REMARK VINA RESULT:      -6.2      0.983      1.516
REMARK  Name = 
REMARK  1 active torsions:
REMARK  status: ('A' for Active; 'I' for Inactive)
REMARK    1  A    between atoms: C_5  and  C_6
REMARK                            x       y       z     vdW  Elec       q    Type
REMARK                         _______ _______ _______ _____ _____    ______ ____
ROOT
ATOM      1 CL   UNL     1       0.317   2.512  19.114  0.00  0.00    +0.000 Cl
ATOM      2  C   UNL     1       1.746   3.146  18.398  0.00  0.00    +0.000 A 
ATOM      3  C   UNL     1       1.936   4.520  18.343  0.00  0.00    +0.000 A 
ATOM      4  C   UNL     1       3.107   5.029  17.782  0.00  0.00    +0.000 A 
ATOM      5  C   UNL     1       4.111   4.190  17.256  0.00  0.00    +0.000 A 
ATOM      6  C   UNL     1       3.888   2.807  17.317  0.00  0.00    +0.000 A 
ATOM      7  C   UNL     1       2.716   2.286  17.884  0.00  0.00    +0.000 A 
ENDROOT
BRANCH   5   8
ATOM      8  C   UNL     1       5.375   4.816  16.716  0.00  0.00    +0.000 C 
ATOM      9  C   UNL     1       6.611   4.710  17.581  0.00  0.00    +0.000 C 
ATOM     10  N   UNL     1       7.699   4.333  16.650  0.00  0.00    +0.000 NA
ATOM     11  C   UNL     1       7.368   4.908  15.339  0.00  0.00    +0.000 C 
ATOM     12  C   UNL     1       5.872   4.857  15.313  0.00  0.00    +0.000 C 
ATOM     13  C   UNL     1       5.124   6.041  15.830  0.00  0.00    +0.000 C 
ATOM     14  H   UNL     1       7.670   3.319  16.548  0.00  0.00    +0.000 HD
ENDBRANCH   5   8
TORSDOF 1
ENDMDL
MODEL 9
REMARK VINA RESULT:      -6.1      3.377      5.167
REMARK  Name = 
REMARK  1 active torsions:
REMARK  status: ('A' for Active; 'I' for Inactive)
REMARK    1  A    between atoms: C_5  and  C_6
REMARK                            x       y       z     vdW  Elec       q    Type
REMARK                         _______ _______ _______ _____ _____    ______ ____
ROOT
ATOM      1 CL   UNL     1       7.546   7.342  17.412  0.00  0.00    +0.000 Cl
ATOM      2  C   UNL     1       6.315   6.187  17.738  0.00  0.00    +0.000 A 
ATOM      3  C   UNL     1       6.371   5.433  18.902  0.00  0.00    +0.000 A 
ATOM      4  C   UNL     1       5.358   4.513  19.173  0.00  0.00    +0.000 A 
ATOM      5  C   UNL     1       4.273   4.314  18.295  0.00  0.00    +0.000 A 
ATOM      6  C   UNL     1       4.248   5.083  17.123  0.00  0.00    +0.000 A 
ATOM      7  C   UNL     1       5.259   6.014  16.844  0.00  0.00    +0.000 A 
ENDROOT
BRANCH   5   8
ATOM      8  C   UNL     1       3.188   3.340  18.686  0.00  0.00    +0.000 C 
ATOM      9  C   UNL     1       2.615   3.481  20.078  0.00  0.00    +0.000 C 
ATOM     10  N   UNL     1       1.150   3.360  19.904  0.00  0.00    +0.000 NA
ATOM     11  C   UNL     1       0.921   2.483  18.747  0.00  0.00    +0.000 C 
ATOM     12  C   UNL     1       2.082   2.788  17.854  0.00  0.00    +0.000 C 
ATOM     13  C   UNL     1       3.320   1.969  18.013  0.00  0.00    +0.000 C 
ATOM     14  H   UNL     1       0.798   4.283  19.654  0.00  0.00    +0.000 HD
ENDBRANCH   5   8
TORSDOF 1
ENDMDL
