MODEL 1
REMARK VINA RESULT:      -8.5      0.000      0.000
REMARK  Name = 
REMARK  5 active torsions:
REMARK  status: ('A' for Active; 'I' for Inactive)
REMARK    1  A    between atoms: N_3  and  C_4
REMARK    2  A    between atoms: C_4  and  C_5
REMARK    3  A    between atoms: C_12  and  C_13
REMARK    4  A    between atoms: C_13  and  C_14
REMARK    5  A    between atoms: N_20  and  C_21
REMARK                            x       y       z     vdW  Elec       q    Type
REMARK                         _______ _______ _______ _____ _____    ______ ____
ROOT
ATOM      1  O   UNL     1       1.678   6.494  20.907  0.00  0.00    +0.000 OA
ATOM      2  C   UNL     1       2.066   6.916  19.825  0.00  0.00    +0.000 A 
ATOM      3  N   UNL     1       1.770   8.183  19.331  0.00  0.00    +0.000 N 
ATOM      4  N   UNL     1       2.589   8.476  18.277  0.00  0.00    +0.000 NA
ATOM      5  C   UNL     1       3.235   7.361  18.058  0.00  0.00    +0.000 A 
ATOM      6  N   UNL     1       2.846   6.317  18.847  0.00  0.00    +0.000 N 
ENDROOT
BRANCH   6   7
ATOM      7  C   UNL     1       2.975   4.896  18.705  0.00  0.00    +0.000 A 
ATOM      8  C   UNL     1       2.271   4.210  17.690  0.00  0.00    +0.000 A 
ATOM      9  C   UNL     1       2.436   2.843  17.438  0.00  0.00    +0.000 A 
ATOM     10  C   UNL     1       3.329   2.110  18.192  0.00  0.00    +0.000 A 
ATOM     11  C   UNL     1       4.063   2.752  19.185  0.00  0.00    +0.000 A 
ATOM     12  C   UNL     1       3.892   4.127  19.434  0.00  0.00    +0.000 A 
ENDBRANCH   6   7
BRANCH   3  13
ATOM     13  C   UNL     1       0.842   9.104  19.940  0.00  0.00    +0.000 C 
BRANCH  13  14
ATOM     14  C   UNL     1       1.289   9.793  21.263  0.00  0.00    +0.000 C 
ATOM     15  C   UNL     1       0.771   9.255  22.600  0.00  0.00    +0.000 C 
ATOM     16  C   UNL     1      -0.598   9.783  23.016  0.00  0.00    +0.000 C 
ATOM     17  C   UNL     1      -0.794  11.257  22.704  0.00  0.00    +0.000 C 
ATOM     18  C   UNL     1      -0.146  11.715  21.403  0.00  0.00    +0.000 C 
ATOM     19  O   UNL     1       1.177  11.220  21.236  0.00  0.00    +0.000 OA
ENDBRANCH  13  14
ENDBRANCH   3  13
BRANCH   5  20
ATOM     20  C   UNL     1       4.351   7.265  17.044  0.00  0.00    +0.000 C 
BRANCH  20  21
ATOM     21  C   UNL     1       5.379   6.120  17.103  0.00  0.00    +0.000 C 
ATOM     22  C   UNL     1       5.584   5.336  15.801  0.00  0.00    +0.000 C 
ATOM     23  C   UNL     1       6.341   4.036  16.115  0.00  0.00    +0.000 C 
ATOM     24  N   UNL     1       7.620   4.258  16.797  0.00  0.00    +0.000 NA
ATOM     25  C   UNL     1       7.514   5.149  17.955  0.00  0.00    +0.000 C 
ATOM     26  C   UNL     1       6.770   6.462  17.651  0.00  0.00    +0.000 C 
ATOM     27  H   UNL     1       8.291   4.644  16.135  0.00  0.00    +0.000 HD
ENDBRANCH  20  21
ENDBRANCH   5  20
TORSDOF 5
ENDMDL
MODEL 2
REMARK VINA RESULT:      -8.3      1.919      2.497
REMARK  Name = 
REMARK  5 active torsions:
REMARK  status: ('A' for Active; 'I' for Inactive)
REMARK    1  A    between atoms: N_3  and  C_4
REMARK    2  A    between atoms: C_4  and  C_5
REMARK    3  A    between atoms: C_12  and  C_13
REMARK    4  A    between atoms: C_13  and  C_14
REMARK    5  A    between atoms: N_20  and  C_21
REMARK                            x       y       z     vdW  Elec       q    Type
REMARK                         _______ _______ _______ _____ _____    ______ ____
ROOT
ATOM      1  O   UNL     1       1.553   7.896  21.143  0.00  0.00    +0.000 OA
ATOM      2  C   UNL     1       1.855   7.595  19.995  0.00  0.00    +0.000 A 
ATOM      3  N   UNL     1       1.864   8.494  18.931  0.00  0.00    +0.000 N 
ATOM      4  N   UNL     1       2.538   7.955  17.872  0.00  0.00    +0.000 NA
ATOM      5  C   UNL     1       2.780   6.725  18.242  0.00  0.00    +0.000 A 
ATOM      6  N   UNL     1       2.244   6.381  19.449  0.00  0.00    +0.000 N 
ENDROOT
BRANCH   6   7
ATOM      7  C   UNL     1       1.923   5.115  20.041  0.00  0.00    +0.000 A 
ATOM      8  C   UNL     1       1.174   4.157  19.322  0.00  0.00    +0.000 A 
ATOM      9  C   UNL     1       0.919   2.868  19.807  0.00  0.00    +0.000 A 
ATOM     10  C   UNL     1       1.420   2.486  21.033  0.00  0.00    +0.000 A 
ATOM     11  C   UNL     1       2.186   3.390  21.763  0.00  0.00    +0.000 A 
ATOM     12  C   UNL     1       2.439   4.684  21.270  0.00  0.00    +0.000 A 
ENDBRANCH   6   7
BRANCH   3  13
ATOM     13  C   UNL     1       1.367   9.846  18.997  0.00  0.00    +0.000 C 
BRANCH  13  14
ATOM     14  C   UNL     1      -0.112  10.040  19.443  0.00  0.00    +0.000 C 
ATOM     15  C   UNL     1      -1.169  10.400  18.394  0.00  0.00    +0.000 C 
ATOM     16  C   UNL     1      -1.274  11.888  18.077  0.00  0.00    +0.000 C 
ATOM     17  C   UNL     1      -1.137  12.776  19.301  0.00  0.00    +0.000 C 
ATOM     18  C   UNL     1      -0.138  12.271  20.335  0.00  0.00    +0.000 C 
ATOM     19  O   UNL     1      -0.262  10.878  20.594  0.00  0.00    +0.000 OA
ENDBRANCH  13  14
ENDBRANCH   3  13
BRANCH   5  20
ATOM     20  C   UNL     1       3.626   5.788  17.412  0.00  0.00    +0.000 C 
BRANCH  20  21
ATOM     21  C   UNL     1       5.123   5.592  17.716  0.00  0.00    +0.000 C 
ATOM     22  C   UNL     1       5.480   5.334  19.185  0.00  0.00    +0.000 C 
ATOM     23  C   UNL     1       6.993   5.522  19.372  0.00  0.00    +0.000 C 
ATOM     24  N   UNL     1       7.798   4.678  18.484  0.00  0.00    +0.000 NA
ATOM     25  C   UNL     1       7.384   4.750  17.080  0.00  0.00    +0.000 C 
ATOM     26  C   UNL     1       5.872   4.550  16.877  0.00  0.00    +0.000 C 
ATOM     27  H   UNL     1       7.747   3.712  18.801  0.00  0.00    +0.000 HD
ENDBRANCH  20  21
ENDBRANCH   5  20
TORSDOF 5
ENDMDL
MODEL 3
REMARK VINA RESULT:      -8.3      1.257      1.580
REMARK  Name = 
REMARK  5 active torsions:
REMARK  status: ('A' for Active; 'I' for Inactive)
REMARK    1  A    between atoms: N_3  and  C_4
REMARK    2  A    between atoms: C_4  and  C_5
REMARK    3  A    between atoms: C_12  and  C_13
REMARK    4  A    between atoms: C_13  and  C_14
REMARK    5  A    between atoms: N_20  and  C_21
REMARK                            x       y       z     vdW  Elec       q    Type
REMARK                         _______ _______ _______ _____ _____    ______ ____
ROOT
ATOM      1  O   UNL     1       1.925   6.440  20.886  0.00  0.00    +0.000 OA
ATOM      2  C   UNL     1       2.249   6.814  19.765  0.00  0.00    +0.000 A 
ATOM      3  N   UNL     1       1.947   8.070  19.245  0.00  0.00    +0.000 N 
ATOM      4  N   UNL     1       2.699   8.305  18.129  0.00  0.00    +0.000 NA
ATOM      5  C   UNL     1       3.304   7.168  17.908  0.00  0.00    +0.000 A 
ATOM      6  N   UNL     1       2.948   6.162  18.759  0.00  0.00    +0.000 N 
ENDROOT
BRANCH   6   7
ATOM      7  C   UNL     1       3.036   4.734  18.662  0.00  0.00    +0.000 A 
ATOM      8  C   UNL     1       2.299   4.036  17.680  0.00  0.00    +0.000 A 
ATOM      9  C   UNL     1       2.424   2.657  17.471  0.00  0.00    +0.000 A 
ATOM     10  C   UNL     1       3.308   1.925  18.236  0.00  0.00    +0.000 A 
ATOM     11  C   UNL     1       4.073   2.578  19.197  0.00  0.00    +0.000 A 
ATOM     12  C   UNL     1       3.943   3.965  19.403  0.00  0.00    +0.000 A 
ENDBRANCH   6   7
BRANCH   3  13
ATOM     13  C   UNL     1       1.082   9.033  19.880  0.00  0.00    +0.000 C 
BRANCH  13  14
ATOM     14  C   UNL     1       0.876  10.394  19.152  0.00  0.00    +0.000 C 
ATOM     15  C   UNL     1       0.728  11.673  19.982  0.00  0.00    +0.000 C 
ATOM     16  C   UNL     1      -0.685  11.950  20.484  0.00  0.00    +0.000 C 
ATOM     17  C   UNL     1      -1.762  11.620  19.465  0.00  0.00    +0.000 C 
ATOM     18  C   UNL     1      -1.466  10.390  18.614  0.00  0.00    +0.000 C 
ATOM     19  O   UNL     1      -0.129  10.356  18.132  0.00  0.00    +0.000 OA
ENDBRANCH  13  14
ENDBRANCH   3  13
BRANCH   5  20
ATOM     20  C   UNL     1       4.347   7.010  16.826  0.00  0.00    +0.000 C 
BRANCH  20  21
ATOM     21  C   UNL     1       5.436   5.925  16.928  0.00  0.00    +0.000 C 
ATOM     22  C   UNL     1       5.897   5.312  15.600  0.00  0.00    +0.000 C 
ATOM     23  C   UNL     1       6.692   4.030  15.891  0.00  0.00    +0.000 C 
ATOM     24  N   UNL     1       7.829   4.242  16.791  0.00  0.00    +0.000 NA
ATOM     25  C   UNL     1       7.480   4.983  18.006  0.00  0.00    +0.000 C 
ATOM     26  C   UNL     1       6.696   6.278  17.728  0.00  0.00    +0.000 C 
ATOM     27  H   UNL     1       8.564   4.740  16.292  0.00  0.00    +0.000 HD
ENDBRANCH  20  21
ENDBRANCH   5  20
TORSDOF 5
ENDMDL
MODEL 4
REMARK VINA RESULT:      -8.2      2.785      6.452
REMARK  Name = 
REMARK  5 active torsions:
REMARK  status: ('A' for Active; 'I' for Inactive)
REMARK    1  A    between atoms: N_3  and  C_4
REMARK    2  A    between atoms: C_4  and  C_5
REMARK    3  A    between atoms: C_12  and  C_13
REMARK    4  A    between atoms: C_13  and  C_14
REMARK    5  A    between atoms: N_20  and  C_21
REMARK                            x       y       z     vdW  Elec       q    Type
REMARK                         _______ _______ _______ _____ _____    ______ ____
ROOT
ATOM      1  O   UNL     1       3.602   3.795  16.744  0.00  0.00    +0.000 OA
ATOM      2  C   UNL     1       3.599   4.824  17.410  0.00  0.00    +0.000 A 
ATOM      3  N   UNL     1       4.314   5.970  17.075  0.00  0.00    +0.000 N 
ATOM      4  N   UNL     1       3.867   7.030  17.813  0.00  0.00    +0.000 NA
ATOM      5  C   UNL     1       3.031   6.495  18.662  0.00  0.00    +0.000 A 
ATOM      6  N   UNL     1       2.945   5.134  18.593  0.00  0.00    +0.000 N 
ENDROOT
BRANCH   6   7
ATOM      7  C   UNL     1       2.497   4.143  19.527  0.00  0.00    +0.000 A 
ATOM      8  C   UNL     1       3.422   3.472  20.357  0.00  0.00    +0.000 A 
ATOM      9  C   UNL     1       3.035   2.571  21.357  0.00  0.00    +0.000 A 
ATOM     10  C   UNL     1       1.695   2.319  21.572  0.00  0.00    +0.000 A 
ATOM     11  C   UNL     1       0.750   2.980  20.794  0.00  0.00    +0.000 A 
ATOM     12  C   UNL     1       1.146   3.884  19.790  0.00  0.00    +0.000 A 
ENDBRANCH   6   7
BRANCH   3  13
ATOM     13  C   UNL     1       5.275   6.053  16.003  0.00  0.00    +0.000 C 
BRANCH  13  14
ATOM     14  C   UNL     1       6.736   5.620  16.322  0.00  0.00    +0.000 C 
ATOM     15  C   UNL     1       7.001   4.701  17.518  0.00  0.00    +0.000 C 
ATOM     16  C   UNL     1       7.127   5.415  18.859  0.00  0.00    +0.000 C 
ATOM     17  C   UNL     1       7.887   6.728  18.773  0.00  0.00    +0.000 C 
ATOM     18  C   UNL     1       7.636   7.516  17.493  0.00  0.00    +0.000 C 
ATOM     19  O   UNL     1       7.671   6.705  16.325  0.00  0.00    +0.000 OA
ENDBRANCH  13  14
ENDBRANCH   3  13
BRANCH   5  20
ATOM     20  C   UNL     1       2.197   7.332  19.605  0.00  0.00    +0.000 C 
BRANCH  20  21
ATOM     21  C   UNL     1       1.950   8.827  19.330  0.00  0.00    +0.000 C 
ATOM     22  C   UNL     1       1.844   9.229  17.853  0.00  0.00    +0.000 C 
ATOM     23  C   UNL     1       1.963  10.756  17.741  0.00  0.00    +0.000 C 
ATOM     24  N   UNL     1       0.976  11.478  18.550  0.00  0.00    +0.000 NA
ATOM     25  C   UNL     1       0.910  11.012  19.938  0.00  0.00    +0.000 C 
ATOM     26  C   UNL     1       0.776   9.485  20.065  0.00  0.00    +0.000 C 
ATOM     27  H   UNL     1       0.058  11.387  18.120  0.00  0.00    +0.000 HD
ENDBRANCH  20  21
ENDBRANCH   5  20
TORSDOF 5
ENDMDL
MODEL 5
REMARK VINA RESULT:      -8.1      2.759      6.605
REMARK  Name = 
REMARK  5 active torsions:
REMARK  status: ('A' for Active; 'I' for Inactive)
REMARK    1  A    between atoms: N_3  and  C_4
REMARK    2  A    between atoms: C_4  and  C_5
REMARK    3  A    between atoms: C_12  and  C_13
REMARK    4  A    between atoms: C_13  and  C_14
REMARK    5  A    between atoms: N_20  and  C_21
REMARK                            x       y       z     vdW  Elec       q    Type
REMARK                         _______ _______ _______ _____ _____    ______ ____
ROOT
ATOM      1  O   UNL     1       3.445   3.840  16.683  0.00  0.00    +0.000 OA
ATOM      2  C   UNL     1       3.592   4.828  17.392  0.00  0.00    +0.000 A 
ATOM      3  N   UNL     1       4.411   5.905  17.066  0.00  0.00    +0.000 N 
ATOM      4  N   UNL     1       4.125   6.969  17.875  0.00  0.00    +0.000 NA
ATOM      5  C   UNL     1       3.282   6.486  18.748  0.00  0.00    +0.000 A 
ATOM      6  N   UNL     1       3.042   5.147  18.624  0.00  0.00    +0.000 N 
ENDROOT
BRANCH   6   7
ATOM      7  C   UNL     1       2.539   4.165  19.539  0.00  0.00    +0.000 A 
ATOM      8  C   UNL     1       3.423   3.431  20.360  0.00  0.00    +0.000 A 
ATOM      9  C   UNL     1       2.985   2.535  21.343  0.00  0.00    +0.000 A 
ATOM     10  C   UNL     1       1.634   2.350  21.548  0.00  0.00    +0.000 A 
ATOM     11  C   UNL     1       0.727   3.073  20.779  0.00  0.00    +0.000 A 
ATOM     12  C   UNL     1       1.175   3.972  19.792  0.00  0.00    +0.000 A 
ENDBRANCH   6   7
BRANCH   3  13
ATOM     13  C   UNL     1       5.315   5.937  15.943  0.00  0.00    +0.000 C 
BRANCH  13  14
ATOM     14  C   UNL     1       6.802   5.566  16.216  0.00  0.00    +0.000 C 
ATOM     15  C   UNL     1       7.133   4.566  17.328  0.00  0.00    +0.000 C 
ATOM     16  C   UNL     1       7.231   5.172  18.725  0.00  0.00    +0.000 C 
ATOM     17  C   UNL     1       7.913   6.529  18.745  0.00  0.00    +0.000 C 
ATOM     18  C   UNL     1       7.603   7.406  17.538  0.00  0.00    +0.000 C 
ATOM     19  O   UNL     1       7.673   6.700  16.305  0.00  0.00    +0.000 OA
ENDBRANCH  13  14
ENDBRANCH   3  13
BRANCH   5  20
ATOM     20  C   UNL     1       2.598   7.360  19.774  0.00  0.00    +0.000 C 
BRANCH  20  21
ATOM     21  C   UNL     1       1.465   8.320  19.369  0.00  0.00    +0.000 C 
ATOM     22  C   UNL     1       0.925   9.227  20.481  0.00  0.00    +0.000 C 
ATOM     23  C   UNL     1      -0.407   9.841  20.023  0.00  0.00    +0.000 C 
ATOM     24  N   UNL     1      -0.304  10.573  18.757  0.00  0.00    +0.000 NA
ATOM     25  C   UNL     1       0.367   9.814  17.698  0.00  0.00    +0.000 C 
ATOM     26  C   UNL     1       1.709   9.205  18.140  0.00  0.00    +0.000 C 
ATOM     27  H   UNL     1       0.195  11.447  18.914  0.00  0.00    +0.000 HD
ENDBRANCH  20  21
ENDBRANCH   5  20
TORSDOF 5
ENDMDL
MODEL 6
REMARK VINA RESULT:      -8.1      1.159      1.813
REMARK  Name = 
REMARK  5 active torsions:
REMARK  status: ('A' for Active; 'I' for Inactive)
REMARK    1  A    between atoms: N_3  and  C_4
REMARK    2  A    between atoms: C_4  and  C_5
REMARK    3  A    between atoms: C_12  and  C_13
REMARK    4  A    between atoms: C_13  and  C_14
REMARK    5  A    between atoms: N_20  and  C_21
REMARK                            x       y       z     vdW  Elec       q    Type
REMARK                         _______ _______ _______ _____ _____    ______ ____
ROOT
ATOM      1  O   UNL     1       1.940   6.257  20.784  0.00  0.00    +0.000 OA
ATOM      2  C   UNL     1       2.276   6.682  19.685  0.00  0.00    +0.000 A 
ATOM      3  N   UNL     1       1.987   7.963  19.224  0.00  0.00    +0.000 N 
ATOM      4  N   UNL     1       2.751   8.247  18.127  0.00  0.00    +0.000 NA
ATOM      5  C   UNL     1       3.352   7.119  17.858  0.00  0.00    +0.000 A 
ATOM      6  N   UNL     1       2.981   6.075  18.656  0.00  0.00    +0.000 N 
ENDROOT
BRANCH   6   7
ATOM      7  C   UNL     1       3.062   4.653  18.491  0.00  0.00    +0.000 A 
ATOM      8  C   UNL     1       3.917   3.884  19.311  0.00  0.00    +0.000 A 
ATOM      9  C   UNL     1       3.961   2.485  19.266  0.00  0.00    +0.000 A 
ATOM     10  C   UNL     1       3.135   1.800  18.400  0.00  0.00    +0.000 A 
ATOM     11  C   UNL     1       2.258   2.518  17.593  0.00  0.00    +0.000 A 
ATOM     12  C   UNL     1       2.218   3.924  17.642  0.00  0.00    +0.000 A 
ENDBRANCH   6   7
BRANCH   3  13
ATOM     13  C   UNL     1       1.122   8.900  19.897  0.00  0.00    +0.000 C 
BRANCH  13  14
ATOM     14  C   UNL     1       0.520  10.054  19.042  0.00  0.00    +0.000 C 
ATOM     15  C   UNL     1       1.335  11.334  18.832  0.00  0.00    +0.000 C 
ATOM     16  C   UNL     1       1.211  12.362  19.953  0.00  0.00    +0.000 C 
ATOM     17  C   UNL     1      -0.199  12.483  20.505  0.00  0.00    +0.000 C 
ATOM     18  C   UNL     1      -0.963  11.166  20.571  0.00  0.00    +0.000 C 
ATOM     19  O   UNL     1      -0.829  10.386  19.389  0.00  0.00    +0.000 OA
ENDBRANCH  13  14
ENDBRANCH   3  13
BRANCH   5  20
ATOM     20  C   UNL     1       4.404   7.005  16.780  0.00  0.00    +0.000 C 
BRANCH  20  21
ATOM     21  C   UNL     1       5.484   5.908  16.837  0.00  0.00    +0.000 C 
ATOM     22  C   UNL     1       5.941   5.346  15.486  0.00  0.00    +0.000 C 
ATOM     23  C   UNL     1       6.724   4.047  15.725  0.00  0.00    +0.000 C 
ATOM     24  N   UNL     1       7.863   4.212  16.633  0.00  0.00    +0.000 NA
ATOM     25  C   UNL     1       7.518   4.906  17.877  0.00  0.00    +0.000 C 
ATOM     26  C   UNL     1       6.746   6.218  17.652  0.00  0.00    +0.000 C 
ATOM     27  H   UNL     1       8.602   4.724  16.155  0.00  0.00    +0.000 HD
ENDBRANCH  20  21
ENDBRANCH   5  20
TORSDOF 5
ENDMDL
MODEL 7
REMARK VINA RESULT:      -8.0      1.984      2.663
REMARK  Name = 
REMARK  5 active torsions:
REMARK  status: ('A' for Active; 'I' for Inactive)
REMARK    1  A    between atoms: N_3  and  C_4
REMARK    2  A    between atoms: C_4  and  C_5
REMARK    3  A    between atoms: C_12  and  C_13
REMARK    4  A    between atoms: C_13  and  C_14
REMARK    5  A    between atoms: N_20  and  C_21
REMARK                            x       y       z     vdW  Elec       q    Type
REMARK                         _______ _______ _______ _____ _____    ______ ____
ROOT
ATOM      1  O   UNL     1       1.362   7.778  20.973  0.00  0.00    +0.000 OA
ATOM      2  C   UNL     1       1.810   7.575  19.851  0.00  0.00    +0.000 A 
ATOM      3  N   UNL     1       1.854   8.536  18.844  0.00  0.00    +0.000 N 
ATOM      4  N   UNL     1       2.682   8.121  17.840  0.00  0.00    +0.000 NA
ATOM      5  C   UNL     1       2.989   6.895  18.168  0.00  0.00    +0.000 A 
ATOM      6  N   UNL     1       2.359   6.433  19.288  0.00  0.00    +0.000 N 
ENDROOT
BRANCH   6   7
ATOM      7  C   UNL     1       2.089   5.111  19.772  0.00  0.00    +0.000 A 
ATOM      8  C   UNL     1       2.437   4.745  21.091  0.00  0.00    +0.000 A 
ATOM      9  C   UNL     1       2.106   3.505  21.651  0.00  0.00    +0.000 A 
ATOM     10  C   UNL     1       1.399   2.584  20.908  0.00  0.00    +0.000 A 
ATOM     11  C   UNL     1       1.013   2.914  19.612  0.00  0.00    +0.000 A 
ATOM     12  C   UNL     1       1.349   4.162  19.055  0.00  0.00    +0.000 A 
ENDBRANCH   6   7
BRANCH   3  13
ATOM     13  C   UNL     1       1.236   9.837  18.926  0.00  0.00    +0.000 C 
BRANCH  13  14
ATOM     14  C   UNL     1      -0.302   9.881  19.164  0.00  0.00    +0.000 C 
ATOM     15  C   UNL     1      -1.211  10.463  18.077  0.00  0.00    +0.000 C 
ATOM     16  C   UNL     1      -1.359  11.981  18.111  0.00  0.00    +0.000 C 
ATOM     17  C   UNL     1      -1.461  12.544  19.518  0.00  0.00    +0.000 C 
ATOM     18  C   UNL     1      -0.597  11.824  20.547  0.00  0.00    +0.000 C 
ATOM     19  O   UNL     1      -0.673  10.407  20.443  0.00  0.00    +0.000 OA
ENDBRANCH  13  14
ENDBRANCH   3  13
BRANCH   5  20
ATOM     20  C   UNL     1       3.998   6.083  17.389  0.00  0.00    +0.000 C 
BRANCH  20  21
ATOM     21  C   UNL     1       5.492   6.106  17.762  0.00  0.00    +0.000 C 
ATOM     22  C   UNL     1       6.226   7.428  17.508  0.00  0.00    +0.000 C 
ATOM     23  C   UNL     1       7.740   7.181  17.584  0.00  0.00    +0.000 C 
ATOM     24  N   UNL     1       8.170   6.581  18.850  0.00  0.00    +0.000 NA
ATOM     25  C   UNL     1       7.381   5.407  19.235  0.00  0.00    +0.000 C 
ATOM     26  C   UNL     1       5.862   5.645  19.177  0.00  0.00    +0.000 C 
ATOM     27  H   UNL     1       8.114   7.281  19.588  0.00  0.00    +0.000 HD
ENDBRANCH  20  21
ENDBRANCH   5  20
TORSDOF 5
ENDMDL
MODEL 8
REMARK VINA RESULT:      -7.9      1.707      3.463
REMARK  Name = 
REMARK  5 active torsions:
REMARK  status: ('A' for Active; 'I' for Inactive)
REMARK    1  A    between atoms: N_3  and  C_4
REMARK    2  A    between atoms: C_4  and  C_5
REMARK    3  A    between atoms: C_12  and  C_13
REMARK    4  A    between atoms: C_13  and  C_14
REMARK    5  A    between atoms: N_20  and  C_21
REMARK                            x       y       z     vdW  Elec       q    Type
REMARK                         _______ _______ _______ _____ _____    ______ ____
ROOT
ATOM      1  O   UNL     1       2.492   8.411  17.904  0.00  0.00    +0.000 OA
ATOM      2  C   UNL     1       2.348   7.674  18.871  0.00  0.00    +0.000 A 
ATOM      3  N   UNL     1       1.575   7.990  19.985  0.00  0.00    +0.000 N 
ATOM      4  N   UNL     1       1.351   6.868  20.731  0.00  0.00    +0.000 NA
ATOM      5  C   UNL     1       2.096   5.956  20.164  0.00  0.00    +0.000 A 
ATOM      6  N   UNL     1       2.865   6.413  19.133  0.00  0.00    +0.000 N 
ENDROOT
BRANCH   6   7
ATOM      7  C   UNL     1       4.056   5.908  18.515  0.00  0.00    +0.000 A 
ATOM      8  C   UNL     1       5.233   5.721  19.273  0.00  0.00    +0.000 A 
ATOM      9  C   UNL     1       6.392   5.136  18.750  0.00  0.00    +0.000 A 
ATOM     10  C   UNL     1       6.410   4.702  17.440  0.00  0.00    +0.000 A 
ATOM     11  C   UNL     1       5.263   4.843  16.665  0.00  0.00    +0.000 A 
ATOM     12  C   UNL     1       4.101   5.432  17.198  0.00  0.00    +0.000 A 
ENDBRANCH   6   7
BRANCH   3  13
ATOM     13  C   UNL     1       0.977   9.280  20.226  0.00  0.00    +0.000 C 
BRANCH  13  14
ATOM     14  C   UNL     1       1.266   9.953  21.600  0.00  0.00    +0.000 C 
ATOM     15  C   UNL     1       0.580   9.411  22.858  0.00  0.00    +0.000 C 
ATOM     16  C   UNL     1      -0.823   9.957  23.107  0.00  0.00    +0.000 C 
ATOM     17  C   UNL     1      -0.959  11.435  22.787  0.00  0.00    +0.000 C 
ATOM     18  C   UNL     1      -0.150  11.894  21.580  0.00  0.00    +0.000 C 
ATOM     19  O   UNL     1       1.177  11.382  21.573  0.00  0.00    +0.000 OA
ENDBRANCH  13  14
ENDBRANCH   3  13
BRANCH   5  20
ATOM     20  C   UNL     1       2.062   4.508  20.596  0.00  0.00    +0.000 C 
BRANCH  20  21
ATOM     21  C   UNL     1       2.781   3.420  19.777  0.00  0.00    +0.000 C 
ATOM     22  C   UNL     1       3.625   2.424  20.581  0.00  0.00    +0.000 C 
ATOM     23  C   UNL     1       4.542   1.655  19.618  0.00  0.00    +0.000 C 
ATOM     24  N   UNL     1       3.815   0.973  18.543  0.00  0.00    +0.000 NA
ATOM     25  C   UNL     1       2.858   1.839  17.848  0.00  0.00    +0.000 C 
ATOM     26  C   UNL     1       1.924   2.605  18.801  0.00  0.00    +0.000 C 
ATOM     27  H   UNL     1       3.324   0.168  18.927  0.00  0.00    +0.000 HD
ENDBRANCH  20  21
ENDBRANCH   5  20
TORSDOF 5
ENDMDL
MODEL 9
REMARK VINA RESULT:      -7.9      2.584      6.721
REMARK  Name = 
REMARK  5 active torsions:
REMARK  status: ('A' for Active; 'I' for Inactive)
REMARK    1  A    between atoms: N_3  and  C_4
REMARK    2  A    between atoms: C_4  and  C_5
REMARK    3  A    between atoms: C_12  and  C_13
REMARK    4  A    between atoms: C_13  and  C_14
REMARK    5  A    between atoms: N_20  and  C_21
REMARK                            x       y       z     vdW  Elec       q    Type
REMARK                         _______ _______ _______ _____ _____    ______ ____
ROOT
ATOM      1  O   UNL     1       4.971   7.879  17.720  0.00  0.00    +0.000 OA
ATOM      2  C   UNL     1       4.206   6.953  17.480  0.00  0.00    +0.000 A 
ATOM      3  N   UNL     1       4.456   5.960  16.536  0.00  0.00    +0.000 N 
ATOM      4  N   UNL     1       3.596   4.915  16.721  0.00  0.00    +0.000 NA
ATOM      5  C   UNL     1       2.768   5.343  17.635  0.00  0.00    +0.000 A 
ATOM      6  N   UNL     1       2.969   6.637  18.022  0.00  0.00    +0.000 N 
ENDROOT
BRANCH   6   7
ATOM      7  C   UNL     1       2.120   7.601  18.657  0.00  0.00    +0.000 A 
ATOM      8  C   UNL     1       1.913   7.564  20.054  0.00  0.00    +0.000 A 
ATOM      9  C   UNL     1       1.179   8.538  20.742  0.00  0.00    +0.000 A 
ATOM     10  C   UNL     1       0.632   9.600  20.052  0.00  0.00    +0.000 A 
ATOM     11  C   UNL     1       0.835   9.689  18.678  0.00  0.00    +0.000 A 
ATOM     12  C   UNL     1       1.573   8.706  17.992  0.00  0.00    +0.000 A 
ENDBRANCH   6   7
BRANCH   3  13
ATOM     13  C   UNL     1       5.558   5.974  15.606  0.00  0.00    +0.000 C 
BRANCH  13  14
ATOM     14  C   UNL     1       6.923   5.420  16.110  0.00  0.00    +0.000 C 
ATOM     15  C   UNL     1       6.941   4.409  17.261  0.00  0.00    +0.000 C 
ATOM     16  C   UNL     1       6.898   5.026  18.655  0.00  0.00    +0.000 C 
ATOM     17  C   UNL     1       7.739   6.284  18.783  0.00  0.00    +0.000 C 
ATOM     18  C   UNL     1       7.740   7.168  17.542  0.00  0.00    +0.000 C 
ATOM     19  O   UNL     1       7.909   6.434  16.335  0.00  0.00    +0.000 OA
ENDBRANCH  13  14
ENDBRANCH   3  13
BRANCH   5  20
ATOM     20  C   UNL     1       1.709   4.451  18.241  0.00  0.00    +0.000 C 
BRANCH  20  21
ATOM     21  C   UNL     1       2.018   3.576  19.470  0.00  0.00    +0.000 C 
ATOM     22  C   UNL     1       3.485   3.539  19.915  0.00  0.00    +0.000 C 
ATOM     23  C   UNL     1       3.681   2.370  20.893  0.00  0.00    +0.000 C 
ATOM     24  N   UNL     1       2.786   2.425  22.052  0.00  0.00    +0.000 NA
ATOM     25  C   UNL     1       1.381   2.637  21.692  0.00  0.00    +0.000 C 
ATOM     26  C   UNL     1       1.168   3.814  20.724  0.00  0.00    +0.000 C 
ATOM     27  H   UNL     1       3.089   3.170  22.676  0.00  0.00    +0.000 HD
ENDBRANCH  20  21
ENDBRANCH   5  20
TORSDOF 5
ENDMDL
