MODEL 1
REMARK VINA RESULT:      -7.7      0.000      0.000
REMARK  Name = 
REMARK  2 active torsions:
REMARK  status: ('A' for Active; 'I' for Inactive)
REMARK    1  A    between atoms: C_6  and  N_7
REMARK    2  A    between atoms: C_8  and  C_10
REMARK                            x       y       z     vdW  Elec       q    Type
REMARK                         _______ _______ _______ _____ _____    ______ ____
ROOT
ATOM      1  N   UNL     1       1.531   2.535  22.352  0.00  0.00    +0.000 N 
ATOM      2  C   UNL     1       2.057   3.171  21.207  0.00  0.00    +0.000 A 
ATOM      3  N   UNL     1       2.472   2.492  20.112  0.00  0.00    +0.000 NA
ATOM      4  C   UNL     1       2.916   3.465  19.296  0.00  0.00    +0.000 A 
ATOM      5  C   UNL     1       3.470   3.323  18.032  0.00  0.00    +0.000 A 
ATOM      6  C   UNL     1       3.902   4.495  17.347  0.00  0.00    +0.000 A 
ATOM      7  C   UNL     1       3.746   5.756  17.992  0.00  0.00    +0.000 A 
ATOM      8  C   UNL     1       3.166   5.858  19.272  0.00  0.00    +0.000 A 
ATOM      9  C   UNL     1       2.767   4.681  19.892  0.00  0.00    +0.000 A 
ATOM     10  N   UNL     1       2.218   4.511  21.102  0.00  0.00    +0.000 N 
ATOM     11  H   UNL     1       1.456   1.508  22.382  0.00  0.00    +0.000 HD
ATOM     12  H   UNL     1       1.251   3.089  23.173  0.00  0.00    +0.000 HD
ATOM     13  H   UNL     1       1.980   5.245  21.809  0.00  0.00    +0.000 HD
ENDROOT
BRANCH   6  14
ATOM     14  N   UNL     1       4.513   4.471  16.043  0.00  0.00    +0.000 N 
ATOM     15  C   UNL     1       5.858   4.394  15.776  0.00  0.00    +0.000 C 
ATOM     16  O   UNL     1       6.659   4.264  16.687  0.00  0.00    +0.000 OA
ATOM     17  H   UNL     1       3.858   4.490  15.254  0.00  0.00    +0.000 HD
BRANCH  15  18
ATOM     18  C   UNL     1       6.403   4.424  14.377  0.00  0.00    +0.000 A 
ATOM     19  C   UNL     1       7.493   5.237  13.989  0.00  0.00    +0.000 A 
ATOM     20  C   UNL     1       7.962   5.218  12.671  0.00  0.00    +0.000 A 
ATOM     21  C   UNL     1       7.360   4.394  11.720  0.00  0.00    +0.000 A 
ATOM     22  C   UNL     1       6.287   3.581  12.084  0.00  0.00    +0.000 A 
ATOM     23  C   UNL     1       5.815   3.593  13.397  0.00  0.00    +0.000 A 
ENDBRANCH  15  18
ENDBRANCH   6  14
TORSDOF 2
ENDMDL
MODEL 2
REMARK VINA RESULT:      -7.7      0.134      1.116
REMARK  Name = 
REMARK  2 active torsions:
REMARK  status: ('A' for Active; 'I' for Inactive)
REMARK    1  A    between atoms: C_6  and  N_7
REMARK    2  A    between atoms: C_8  and  C_10
REMARK                            x       y       z     vdW  Elec       q    Type
REMARK                         _______ _______ _______ _____ _____    ______ ____
ROOT
ATOM      1  N   UNL     1       1.350   2.514  22.341  0.00  0.00    +0.000 N 
ATOM      2  C   UNL     1       1.924   3.143  21.214  0.00  0.00    +0.000 A 
ATOM      3  N   UNL     1       2.268   2.471  20.091  0.00  0.00    +0.000 NA
ATOM      4  C   UNL     1       2.793   3.430  19.307  0.00  0.00    +0.000 A 
ATOM      5  C   UNL     1       3.324   3.285  18.032  0.00  0.00    +0.000 A 
ATOM      6  C   UNL     1       3.855   4.439  17.386  0.00  0.00    +0.000 A 
ATOM      7  C   UNL     1       3.818   5.684  18.079  0.00  0.00    +0.000 A 
ATOM      8  C   UNL     1       3.257   5.790  19.368  0.00  0.00    +0.000 A 
ATOM      9  C   UNL     1       2.758   4.631  19.948  0.00  0.00    +0.000 A 
ATOM     10  N   UNL     1       2.205   4.466  21.157  0.00  0.00    +0.000 N 
ATOM     11  H   UNL     1       1.183   1.498  22.334  0.00  0.00    +0.000 HD
ATOM     12  H   UNL     1       1.127   3.060  23.184  0.00  0.00    +0.000 HD
ATOM     13  H   UNL     1       2.039   5.191  21.892  0.00  0.00    +0.000 HD
ENDROOT
BRANCH   6  14
ATOM     14  N   UNL     1       4.452   4.409  16.077  0.00  0.00    +0.000 N 
ATOM     15  C   UNL     1       5.789   4.275  15.795  0.00  0.00    +0.000 C 
ATOM     16  O   UNL     1       6.592   4.094  16.696  0.00  0.00    +0.000 OA
ATOM     17  H   UNL     1       3.791   4.470  15.294  0.00  0.00    +0.000 HD
BRANCH  15  18
ATOM     18  C   UNL     1       6.323   4.303  14.391  0.00  0.00    +0.000 A 
ATOM     19  C   UNL     1       5.816   3.485  13.356  0.00  0.00    +0.000 A 
ATOM     20  C   UNL     1       6.349   3.559  12.064  0.00  0.00    +0.000 A 
ATOM     21  C   UNL     1       7.390   4.442  11.780  0.00  0.00    +0.000 A 
ATOM     22  C   UNL     1       7.901   5.260  12.787  0.00  0.00    +0.000 A 
ATOM     23  C   UNL     1       7.373   5.195  14.077  0.00  0.00    +0.000 A 
ENDBRANCH  15  18
ENDBRANCH   6  14
TORSDOF 2
ENDMDL
MODEL 3
REMARK VINA RESULT:      -7.4      5.609      6.883
REMARK  Name = 
REMARK  2 active torsions:
REMARK  status: ('A' for Active; 'I' for Inactive)
REMARK    1  A    between atoms: C_6  and  N_7
REMARK    2  A    between atoms: C_8  and  C_10
REMARK                            x       y       z     vdW  Elec       q    Type
REMARK                         _______ _______ _______ _____ _____    ______ ____
ROOT
ATOM      1  N   UNL     1       4.078   2.205  18.523  0.00  0.00    +0.000 N 
ATOM      2  C   UNL     1       4.955   3.287  18.288  0.00  0.00    +0.000 A 
ATOM      3  N   UNL     1       5.562   3.973  19.285  0.00  0.00    +0.000 NA
ATOM      4  C   UNL     1       6.265   4.912  18.628  0.00  0.00    +0.000 A 
ATOM      5  C   UNL     1       7.067   5.906  19.173  0.00  0.00    +0.000 A 
ATOM      6  C   UNL     1       7.706   6.821  18.288  0.00  0.00    +0.000 A 
ATOM      7  C   UNL     1       7.490   6.675  16.886  0.00  0.00    +0.000 A 
ATOM      8  C   UNL     1       6.679   5.644  16.373  0.00  0.00    +0.000 A 
ATOM      9  C   UNL     1       6.080   4.784  17.284  0.00  0.00    +0.000 A 
ATOM     10  N   UNL     1       5.256   3.753  17.053  0.00  0.00    +0.000 N 
ATOM     11  H   UNL     1       3.869   1.911  19.487  0.00  0.00    +0.000 HD
ATOM     12  H   UNL     1       3.619   1.728  17.735  0.00  0.00    +0.000 HD
ATOM     13  H   UNL     1       4.914   3.398  16.130  0.00  0.00    +0.000 HD
ENDROOT
BRANCH   6  14
ATOM     14  N   UNL     1       8.540   7.906  18.736  0.00  0.00    +0.000 N 
ATOM     15  C   UNL     1       8.421   9.226  18.377  0.00  0.00    +0.000 C 
ATOM     16  O   UNL     1       7.499   9.589  17.666  0.00  0.00    +0.000 OA
ATOM     17  H   UNL     1       9.271   7.645  19.406  0.00  0.00    +0.000 HD
BRANCH  15  18
ATOM     18  C   UNL     1       9.373  10.281  18.863  0.00  0.00    +0.000 A 
ATOM     19  C   UNL     1       9.465  10.674  20.218  0.00  0.00    +0.000 A 
ATOM     20  C   UNL     1      10.376  11.659  20.614  0.00  0.00    +0.000 A 
ATOM     21  C   UNL     1      11.208  12.268  19.675  0.00  0.00    +0.000 A 
ATOM     22  C   UNL     1      11.135  11.892  18.334  0.00  0.00    +0.000 A 
ATOM     23  C   UNL     1      10.231  10.908  17.932  0.00  0.00    +0.000 A 
ENDBRANCH  15  18
ENDBRANCH   6  14
TORSDOF 2
ENDMDL
MODEL 4
REMARK VINA RESULT:      -7.3      5.535      6.812
REMARK  Name = 
REMARK  2 active torsions:
REMARK  status: ('A' for Active; 'I' for Inactive)
REMARK    1  A    between atoms: C_6  and  N_7
REMARK    2  A    between atoms: C_8  and  C_10
REMARK                            x       y       z     vdW  Elec       q    Type
REMARK                         _______ _______ _______ _____ _____    ______ ____
ROOT
ATOM      1  N   UNL     1       3.991   2.176  18.525  0.00  0.00    +0.000 N 
ATOM      2  C   UNL     1       4.873   3.250  18.276  0.00  0.00    +0.000 A 
ATOM      3  N   UNL     1       5.479   3.951  19.264  0.00  0.00    +0.000 NA
ATOM      4  C   UNL     1       6.188   4.877  18.594  0.00  0.00    +0.000 A 
ATOM      5  C   UNL     1       6.991   5.877  19.126  0.00  0.00    +0.000 A 
ATOM      6  C   UNL     1       7.637   6.775  18.228  0.00  0.00    +0.000 A 
ATOM      7  C   UNL     1       7.426   6.606  16.829  0.00  0.00    +0.000 A 
ATOM      8  C   UNL     1       6.613   5.569  16.329  0.00  0.00    +0.000 A 
ATOM      9  C   UNL     1       6.007   4.726  17.253  0.00  0.00    +0.000 A 
ATOM     10  N   UNL     1       5.180   3.695  17.035  0.00  0.00    +0.000 N 
ATOM     11  H   UNL     1       3.777   1.899  19.494  0.00  0.00    +0.000 HD
ATOM     12  H   UNL     1       3.533   1.687  17.744  0.00  0.00    +0.000 HD
ATOM     13  H   UNL     1       4.841   3.326  16.117  0.00  0.00    +0.000 HD
ENDROOT
BRANCH   6  14
ATOM     14  N   UNL     1       8.473   7.864  18.661  0.00  0.00    +0.000 N 
ATOM     15  C   UNL     1       8.357   9.179  18.285  0.00  0.00    +0.000 C 
ATOM     16  O   UNL     1       7.436   9.533  17.568  0.00  0.00    +0.000 OA
ATOM     17  H   UNL     1       9.203   7.610  19.336  0.00  0.00    +0.000 HD
BRANCH  15  18
ATOM     18  C   UNL     1       9.311  10.238  18.756  0.00  0.00    +0.000 A 
ATOM     19  C   UNL     1      10.166  10.952  17.885  0.00  0.00    +0.000 A 
ATOM     20  C   UNL     1      11.030  11.934  18.382  0.00  0.00    +0.000 A 
ATOM     21  C   UNL     1      11.060  12.222  19.746  0.00  0.00    +0.000 A 
ATOM     22  C   UNL     1      10.223  11.532  20.621  0.00  0.00    +0.000 A 
ATOM     23  C   UNL     1       9.356  10.553  20.134  0.00  0.00    +0.000 A 
ENDBRANCH  15  18
ENDBRANCH   6  14
TORSDOF 2
ENDMDL
MODEL 5
REMARK VINA RESULT:      -7.1      3.792      8.225
REMARK  Name = 
REMARK  2 active torsions:
REMARK  status: ('A' for Active; 'I' for Inactive)
REMARK    1  A    between atoms: C_6  and  N_7
REMARK    2  A    between atoms: C_8  and  C_10
REMARK                            x       y       z     vdW  Elec       q    Type
REMARK                         _______ _______ _______ _____ _____    ______ ____
ROOT
ATOM      1  N   UNL     1       7.372   5.221  14.396  0.00  0.00    +0.000 N 
ATOM      2  C   UNL     1       6.307   5.365  15.312  0.00  0.00    +0.000 A 
ATOM      3  N   UNL     1       6.013   6.537  15.921  0.00  0.00    +0.000 NA
ATOM      4  C   UNL     1       4.973   6.220  16.712  0.00  0.00    +0.000 A 
ATOM      5  C   UNL     1       4.282   7.057  17.579  0.00  0.00    +0.000 A 
ATOM      6  C   UNL     1       3.219   6.503  18.350  0.00  0.00    +0.000 A 
ATOM      7  C   UNL     1       2.917   5.119  18.197  0.00  0.00    +0.000 A 
ATOM      8  C   UNL     1       3.635   4.306  17.295  0.00  0.00    +0.000 A 
ATOM      9  C   UNL     1       4.662   4.901  16.574  0.00  0.00    +0.000 A 
ATOM     10  N   UNL     1       5.497   4.347  15.684  0.00  0.00    +0.000 N 
ATOM     11  H   UNL     1       7.971   6.028  14.171  0.00  0.00    +0.000 HD
ATOM     12  H   UNL     1       7.576   4.304  13.975  0.00  0.00    +0.000 HD
ATOM     13  H   UNL     1       5.523   3.352  15.361  0.00  0.00    +0.000 HD
ENDROOT
BRANCH   6  14
ATOM     14  N   UNL     1       2.448   7.264  19.297  0.00  0.00    +0.000 N 
ATOM     15  C   UNL     1       1.707   8.388  19.029  0.00  0.00    +0.000 C 
ATOM     16  O   UNL     1       1.598   8.792  17.883  0.00  0.00    +0.000 OA
ATOM     17  H   UNL     1       2.448   6.896  20.255  0.00  0.00    +0.000 HD
BRANCH  15  18
ATOM     18  C   UNL     1       0.971   9.142  20.099  0.00  0.00    +0.000 A 
ATOM     19  C   UNL     1       0.495  10.462  19.926  0.00  0.00    +0.000 A 
ATOM     20  C   UNL     1      -0.191  11.113  20.958  0.00  0.00    +0.000 A 
ATOM     21  C   UNL     1      -0.413  10.467  22.173  0.00  0.00    +0.000 A 
ATOM     22  C   UNL     1       0.045   9.164  22.362  0.00  0.00    +0.000 A 
ATOM     23  C   UNL     1       0.727   8.507  21.337  0.00  0.00    +0.000 A 
ENDBRANCH  15  18
ENDBRANCH   6  14
TORSDOF 2
ENDMDL
MODEL 6
REMARK VINA RESULT:      -7.1      6.020      7.939
REMARK  Name = 
REMARK  2 active torsions:
REMARK  status: ('A' for Active; 'I' for Inactive)
REMARK    1  A    between atoms: C_6  and  N_7
REMARK    2  A    between atoms: C_8  and  C_10
REMARK                            x       y       z     vdW  Elec       q    Type
REMARK                         _______ _______ _______ _____ _____    ______ ____
ROOT
ATOM      1  N   UNL     1       5.381   4.013  14.309  0.00  0.00    +0.000 N 
ATOM      2  C   UNL     1       6.000   4.648  15.408  0.00  0.00    +0.000 A 
ATOM      3  N   UNL     1       6.403   5.940  15.380  0.00  0.00    +0.000 NA
ATOM      4  C   UNL     1       6.953   6.116  16.595  0.00  0.00    +0.000 A 
ATOM      5  C   UNL     1       7.544   7.267  17.099  0.00  0.00    +0.000 A 
ATOM      6  C   UNL     1       8.092   7.227  18.413  0.00  0.00    +0.000 A 
ATOM      7  C   UNL     1       8.008   6.008  19.148  0.00  0.00    +0.000 A 
ATOM      8  C   UNL     1       7.387   4.865  18.605  0.00  0.00    +0.000 A 
ATOM      9  C   UNL     1       6.875   4.964  17.317  0.00  0.00    +0.000 A 
ATOM     10  N   UNL     1       6.267   4.025  16.579  0.00  0.00    +0.000 N 
ATOM     11  H   UNL     1       5.225   4.533  13.433  0.00  0.00    +0.000 HD
ATOM     12  H   UNL     1       5.112   3.021  14.365  0.00  0.00    +0.000 HD
ATOM     13  H   UNL     1       6.058   3.035  16.844  0.00  0.00    +0.000 HD
ENDROOT
BRANCH   6  14
ATOM     14  N   UNL     1       8.750   8.347  19.032  0.00  0.00    +0.000 N 
ATOM     15  C   UNL     1       8.741   9.646  18.585  0.00  0.00    +0.000 C 
ATOM     16  O   UNL     1       8.074   9.955  17.612  0.00  0.00    +0.000 OA
ATOM     17  H   UNL     1       9.248   8.133  19.904  0.00  0.00    +0.000 HD
BRANCH  15  18
ATOM     18  C   UNL     1       9.501  10.741  19.277  0.00  0.00    +0.000 A 
ATOM     19  C   UNL     1       9.355  11.033  20.653  0.00  0.00    +0.000 A 
ATOM     20  C   UNL     1      10.095  12.062  21.245  0.00  0.00    +0.000 A 
ATOM     21  C   UNL     1      10.989  12.815  20.484  0.00  0.00    +0.000 A 
ATOM     22  C   UNL     1      11.150  12.540  19.127  0.00  0.00    +0.000 A 
ATOM     23  C   UNL     1      10.418  11.514  18.529  0.00  0.00    +0.000 A 
ENDBRANCH  15  18
ENDBRANCH   6  14
TORSDOF 2
ENDMDL
MODEL 7
REMARK VINA RESULT:      -7.1      5.996      7.892
REMARK  Name = 
REMARK  2 active torsions:
REMARK  status: ('A' for Active; 'I' for Inactive)
REMARK    1  A    between atoms: C_6  and  N_7
REMARK    2  A    between atoms: C_8  and  C_10
REMARK                            x       y       z     vdW  Elec       q    Type
REMARK                         _______ _______ _______ _____ _____    ______ ____
ROOT
ATOM      1  N   UNL     1       5.438   3.900  14.335  0.00  0.00    +0.000 N 
ATOM      2  C   UNL     1       6.028   4.558  15.436  0.00  0.00    +0.000 A 
ATOM      3  N   UNL     1       6.528   5.814  15.363  0.00  0.00    +0.000 NA
ATOM      4  C   UNL     1       7.007   6.027  16.602  0.00  0.00    +0.000 A 
ATOM      5  C   UNL     1       7.647   7.163  17.078  0.00  0.00    +0.000 A 
ATOM      6  C   UNL     1       8.101   7.167  18.429  0.00  0.00    +0.000 A 
ATOM      7  C   UNL     1       7.879   6.006  19.225  0.00  0.00    +0.000 A 
ATOM      8  C   UNL     1       7.212   4.878  18.706  0.00  0.00    +0.000 A 
ATOM      9  C   UNL     1       6.795   4.931  17.382  0.00  0.00    +0.000 A 
ATOM     10  N   UNL     1       6.169   3.993  16.658  0.00  0.00    +0.000 N 
ATOM     11  H   UNL     1       5.380   4.374  13.422  0.00  0.00    +0.000 HD
ATOM     12  H   UNL     1       5.093   2.935  14.429  0.00  0.00    +0.000 HD
ATOM     13  H   UNL     1       5.871   3.038  16.964  0.00  0.00    +0.000 HD
ENDROOT
BRANCH   6  14
ATOM     14  N   UNL     1       8.799   8.275  19.027  0.00  0.00    +0.000 N 
ATOM     15  C   UNL     1       8.759   9.583  18.611  0.00  0.00    +0.000 C 
ATOM     16  O   UNL     1       8.027   9.913  17.692  0.00  0.00    +0.000 OA
ATOM     17  H   UNL     1       9.355   8.043  19.858  0.00  0.00    +0.000 HD
BRANCH  15  18
ATOM     18  C   UNL     1       9.562  10.664  19.275  0.00  0.00    +0.000 A 
ATOM     19  C   UNL     1      10.626  11.340  18.634  0.00  0.00    +0.000 A 
ATOM     20  C   UNL     1      11.336  12.344  19.301  0.00  0.00    +0.000 A 
ATOM     21  C   UNL     1      11.003  12.693  20.610  0.00  0.00    +0.000 A 
ATOM     22  C   UNL     1       9.954  12.041  21.257  0.00  0.00    +0.000 A 
ATOM     23  C   UNL     1       9.239  11.040  20.598  0.00  0.00    +0.000 A 
ENDBRANCH  15  18
ENDBRANCH   6  14
TORSDOF 2
ENDMDL
MODEL 8
REMARK VINA RESULT:      -7.0      4.188      8.083
REMARK  Name = 
REMARK  2 active torsions:
REMARK  status: ('A' for Active; 'I' for Inactive)
REMARK    1  A    between atoms: C_6  and  N_7
REMARK    2  A    between atoms: C_8  and  C_10
REMARK                            x       y       z     vdW  Elec       q    Type
REMARK                         _______ _______ _______ _____ _____    ______ ____
ROOT
ATOM      1  N   UNL     1       4.020   0.698  18.457  0.00  0.00    +0.000 N 
ATOM      2  C   UNL     1       3.752   2.051  18.757  0.00  0.00    +0.000 A 
ATOM      3  N   UNL     1       2.864   2.433  19.705  0.00  0.00    +0.000 NA
ATOM      4  C   UNL     1       2.901   3.776  19.638  0.00  0.00    +0.000 A 
ATOM      5  C   UNL     1       2.165   4.683  20.388  0.00  0.00    +0.000 A 
ATOM      6  C   UNL     1       2.342   6.073  20.134  0.00  0.00    +0.000 A 
ATOM      7  C   UNL     1       3.264   6.467  19.121  0.00  0.00    +0.000 A 
ATOM      8  C   UNL     1       4.002   5.514  18.390  0.00  0.00    +0.000 A 
ATOM      9  C   UNL     1       3.784   4.174  18.680  0.00  0.00    +0.000 A 
ATOM     10  N   UNL     1       4.336   3.090  18.117  0.00  0.00    +0.000 N 
ATOM     11  H   UNL     1       3.524  -0.051  18.963  0.00  0.00    +0.000 HD
ATOM     12  H   UNL     1       4.684   0.452  17.710  0.00  0.00    +0.000 HD
ATOM     13  H   UNL     1       5.047   3.056  17.350  0.00  0.00    +0.000 HD
ENDROOT
BRANCH   6  14
ATOM     14  N   UNL     1       1.618   7.105  20.830  0.00  0.00    +0.000 N 
ATOM     15  C   UNL     1       1.307   8.351  20.344  0.00  0.00    +0.000 C 
ATOM     16  O   UNL     1       1.584   8.648  19.194  0.00  0.00    +0.000 OA
ATOM     17  H   UNL     1       1.294   6.851  21.770  0.00  0.00    +0.000 HD
BRANCH  15  18
ATOM     18  C   UNL     1       0.586   9.379  21.167  0.00  0.00    +0.000 A 
ATOM     19  C   UNL     1      -0.103   9.068  22.362  0.00  0.00    +0.000 A 
ATOM     20  C   UNL     1      -0.752  10.070  23.092  0.00  0.00    +0.000 A 
ATOM     21  C   UNL     1      -0.728  11.392  22.650  0.00  0.00    +0.000 A 
ATOM     22  C   UNL     1      -0.050  11.720  21.476  0.00  0.00    +0.000 A 
ATOM     23  C   UNL     1       0.602  10.727  20.743  0.00  0.00    +0.000 A 
ENDBRANCH  15  18
ENDBRANCH   6  14
TORSDOF 2
ENDMDL
MODEL 9
REMARK VINA RESULT:      -7.0      1.560      2.428
REMARK  Name = 
REMARK  2 active torsions:
REMARK  status: ('A' for Active; 'I' for Inactive)
REMARK    1  A    between atoms: C_6  and  N_7
REMARK    2  A    between atoms: C_8  and  C_10
REMARK                            x       y       z     vdW  Elec       q    Type
REMARK                         _______ _______ _______ _____ _____    ______ ____
ROOT
ATOM      1  N   UNL     1       1.115   8.228  21.391  0.00  0.00    +0.000 N 
ATOM      2  C   UNL     1       1.838   7.323  20.583  0.00  0.00    +0.000 A 
ATOM      3  N   UNL     1       2.231   7.615  19.320  0.00  0.00    +0.000 NA
ATOM      4  C   UNL     1       2.847   6.487  18.922  0.00  0.00    +0.000 A 
ATOM      5  C   UNL     1       3.430   6.232  17.688  0.00  0.00    +0.000 A 
ATOM      6  C   UNL     1       4.009   4.949  17.467  0.00  0.00    +0.000 A 
ATOM      7  C   UNL     1       3.959   3.989  18.519  0.00  0.00    +0.000 A 
ATOM      8  C   UNL     1       3.368   4.293  19.762  0.00  0.00    +0.000 A 
ATOM      9  C   UNL     1       2.818   5.559  19.918  0.00  0.00    +0.000 A 
ATOM     10  N   UNL     1       2.186   6.077  20.981  0.00  0.00    +0.000 N 
ATOM     11  H   UNL     1       0.857   9.155  21.023  0.00  0.00    +0.000 HD
ATOM     12  H   UNL     1       0.814   7.954  22.337  0.00  0.00    +0.000 HD
ATOM     13  H   UNL     1       1.996   5.619  21.902  0.00  0.00    +0.000 HD
ENDROOT
BRANCH   6  14
ATOM     14  N   UNL     1       4.620   4.560  16.223  0.00  0.00    +0.000 N 
ATOM     15  C   UNL     1       5.647   5.208  15.581  0.00  0.00    +0.000 C 
ATOM     16  O   UNL     1       6.179   6.176  16.099  0.00  0.00    +0.000 OA
ATOM     17  H   UNL     1       4.252   3.696  15.807  0.00  0.00    +0.000 HD
BRANCH  15  18
ATOM     18  C   UNL     1       6.187   4.749  14.258  0.00  0.00    +0.000 A 
ATOM     19  C   UNL     1       7.383   5.251  13.695  0.00  0.00    +0.000 A 
ATOM     20  C   UNL     1       7.842   4.780  12.460  0.00  0.00    +0.000 A 
ATOM     21  C   UNL     1       7.124   3.807  11.766  0.00  0.00    +0.000 A 
ATOM     22  C   UNL     1       5.944   3.297  12.306  0.00  0.00    +0.000 A 
ATOM     23  C   UNL     1       5.481   3.759  13.538  0.00  0.00    +0.000 A 
ENDBRANCH  15  18
ENDBRANCH   6  14
TORSDOF 2
ENDMDL
