MODEL 1
REMARK VINA RESULT:      -7.6      0.000      0.000
REMARK  Name = 
REMARK  6 active torsions:
REMARK  status: ('A' for Active; 'I' for Inactive)
REMARK    1  A    between atoms: C_1  and  C_2
REMARK    2  A    between atoms: C_6  and  C_7
REMARK    3  A    between atoms: C_7  and  N_8
REMARK    4  A    between atoms: C_9  and  C_11
REMARK    5  A    between atoms: C_13  and  C_14
REMARK    6  A    between atoms: C_16  and  C_17
REMARK                            x       y       z     vdW  Elec       q    Type
REMARK                         _______ _______ _______ _____ _____    ______ ____
ROOT
ATOM      1  N   UNL     1       5.517   4.769  16.684  0.00  0.00    +0.000 N 
ATOM      2  C   UNL     1       5.170   4.418  17.965  0.00  0.00    +0.000 C 
ATOM      3  O   UNL     1       6.018   4.186  18.824  0.00  0.00    +0.000 OA
ATOM      4  H   UNL     1       4.796   4.955  15.992  0.00  0.00    +0.000 HD
ENDROOT
BRANCH   2   5
ATOM      5  C   UNL     1       3.746   4.346  18.206  0.00  0.00    +0.000 A 
ATOM      6  O   UNL     1       3.134   3.127  18.394  0.00  0.00    +0.000 OA
ATOM      7  C   UNL     1       1.819   3.438  18.600  0.00  0.00    +0.000 A 
ATOM      8  C   UNL     1       0.888   2.316  18.832  0.00  0.00    +0.000 C 
ATOM      9  N   UNL     1       1.546   4.724  18.558  0.00  0.00    +0.000 NA
ATOM     10  C   UNL     1       2.764   5.315  18.305  0.00  0.00    +0.000 A 
ATOM     11  C   UNL     1       2.870   6.784  18.173  0.00  0.00    +0.000 C 
ENDBRANCH   2   5
BRANCH   1  12
ATOM     12  C   UNL     1       6.891   4.860  16.237  0.00  0.00    +0.000 C 
BRANCH  12  18
ATOM     13  C   UNL     1       5.459   2.766  11.879  0.00  0.00    +0.000 C 
ATOM     14  C   UNL     1       6.320   3.728  12.650  0.00  0.00    +0.000 A 
ATOM     15  C   UNL     1       7.254   4.531  11.997  0.00  0.00    +0.000 A 
ATOM     16  C   UNL     1       8.021   5.397  12.757  0.00  0.00    +0.000 A 
ATOM     17  N   UNL     1       7.927   5.517  14.098  0.00  0.00    +0.000 NA
ATOM     18  C   UNL     1       7.013   4.731  14.731  0.00  0.00    +0.000 A 
ATOM     19  C   UNL     1       6.199   3.831  14.039  0.00  0.00    +0.000 A 
ENDBRANCH  12  18
ENDBRANCH   1  12
TORSDOF 3
ENDMDL
MODEL 2
REMARK VINA RESULT:      -7.5      2.079      6.835
REMARK  Name = 
REMARK  6 active torsions:
REMARK  status: ('A' for Active; 'I' for Inactive)
REMARK    1  A    between atoms: C_1  and  C_2
REMARK    2  A    between atoms: C_6  and  C_7
REMARK    3  A    between atoms: C_7  and  N_8
REMARK    4  A    between atoms: C_9  and  C_11
REMARK    5  A    between atoms: C_13  and  C_14
REMARK    6  A    between atoms: C_16  and  C_17
REMARK                            x       y       z     vdW  Elec       q    Type
REMARK                         _______ _______ _______ _____ _____    ______ ____
ROOT
ATOM      1  N   UNL     1       5.222   3.309  18.643  0.00  0.00    +0.000 N 
ATOM      2  C   UNL     1       6.032   4.418  18.622  0.00  0.00    +0.000 C 
ATOM      3  O   UNL     1       6.337   5.015  19.651  0.00  0.00    +0.000 OA
ATOM      4  H   UNL     1       4.984   2.834  17.777  0.00  0.00    +0.000 HD
ENDROOT
BRANCH   2   5
ATOM      5  C   UNL     1       6.483   4.810  17.305  0.00  0.00    +0.000 A 
ATOM      6  O   UNL     1       6.247   3.998  16.219  0.00  0.00    +0.000 OA
ATOM      7  C   UNL     1       6.793   4.676  15.165  0.00  0.00    +0.000 A 
ATOM      8  C   UNL     1       6.700   4.044  13.834  0.00  0.00    +0.000 C 
ATOM      9  N   UNL     1       7.347   5.826  15.480  0.00  0.00    +0.000 NA
ATOM     10  C   UNL     1       7.161   5.924  16.842  0.00  0.00    +0.000 A 
ATOM     11  C   UNL     1       7.666   7.098  17.583  0.00  0.00    +0.000 C 
ENDBRANCH   2   5
BRANCH   1  12
ATOM     12  C   UNL     1       4.640   2.782  19.859  0.00  0.00    +0.000 C 
BRANCH  12  18
ATOM     13  C   UNL     1       1.421   6.548  20.794  0.00  0.00    +0.000 C 
ATOM     14  C   UNL     1       1.694   5.094  20.528  0.00  0.00    +0.000 A 
ATOM     15  C   UNL     1       0.653   4.170  20.478  0.00  0.00    +0.000 A 
ATOM     16  C   UNL     1       0.962   2.843  20.232  0.00  0.00    +0.000 A 
ATOM     17  N   UNL     1       2.215   2.380  20.035  0.00  0.00    +0.000 NA
ATOM     18  C   UNL     1       3.229   3.287  20.085  0.00  0.00    +0.000 A 
ATOM     19  C   UNL     1       3.003   4.644  20.328  0.00  0.00    +0.000 A 
ENDBRANCH  12  18
ENDBRANCH   1  12
TORSDOF 3
ENDMDL
MODEL 3
REMARK VINA RESULT:      -7.4      1.916      6.667
REMARK  Name = 
REMARK  6 active torsions:
REMARK  status: ('A' for Active; 'I' for Inactive)
REMARK    1  A    between atoms: C_1  and  C_2
REMARK    2  A    between atoms: C_6  and  C_7
REMARK    3  A    between atoms: C_7  and  N_8
REMARK    4  A    between atoms: C_9  and  C_11
REMARK    5  A    between atoms: C_13  and  C_14
REMARK    6  A    between atoms: C_16  and  C_17
REMARK                            x       y       z     vdW  Elec       q    Type
REMARK                         _______ _______ _______ _____ _____    ______ ____
ROOT
ATOM      1  N   UNL     1       3.765   6.227  18.335  0.00  0.00    +0.000 N 
ATOM      2  C   UNL     1       5.032   5.736  18.531  0.00  0.00    +0.000 C 
ATOM      3  O   UNL     1       5.423   5.381  19.641  0.00  0.00    +0.000 OA
ATOM      4  H   UNL     1       3.466   6.514  17.407  0.00  0.00    +0.000 HD
ENDROOT
BRANCH   2   5
ATOM      5  C   UNL     1       5.846   5.675  17.339  0.00  0.00    +0.000 A 
ATOM      6  O   UNL     1       5.532   4.797  16.326  0.00  0.00    +0.000 OA
ATOM      7  C   UNL     1       6.491   5.018  15.377  0.00  0.00    +0.000 A 
ATOM      8  C   UNL     1       6.423   4.206  14.146  0.00  0.00    +0.000 C 
ATOM      9  N   UNL     1       7.373   5.941  15.693  0.00  0.00    +0.000 NA
ATOM     10  C   UNL     1       6.977   6.367  16.942  0.00  0.00    +0.000 A 
ATOM     11  C   UNL     1       7.741   7.414  17.652  0.00  0.00    +0.000 C 
ENDBRANCH   2   5
BRANCH   1  12
ATOM     12  C   UNL     1       2.811   6.399  19.410  0.00  0.00    +0.000 C 
BRANCH  12  18
ATOM     13  C   UNL     1       0.501   1.985  18.629  0.00  0.00    +0.000 C 
ATOM     14  C   UNL     1       1.184   2.962  19.545  0.00  0.00    +0.000 A 
ATOM     15  C   UNL     1       1.356   2.673  20.897  0.00  0.00    +0.000 A 
ATOM     16  C   UNL     1       1.990   3.609  21.695  0.00  0.00    +0.000 A 
ATOM     17  N   UNL     1       2.456   4.795  21.249  0.00  0.00    +0.000 NA
ATOM     18  C   UNL     1       2.286   5.074  19.927  0.00  0.00    +0.000 A 
ATOM     19  C   UNL     1       1.657   4.183  19.053  0.00  0.00    +0.000 A 
ENDBRANCH  12  18
ENDBRANCH   1  12
TORSDOF 3
ENDMDL
MODEL 4
REMARK VINA RESULT:      -7.2      2.130      6.980
REMARK  Name = 
REMARK  6 active torsions:
REMARK  status: ('A' for Active; 'I' for Inactive)
REMARK    1  A    between atoms: C_1  and  C_2
REMARK    2  A    between atoms: C_6  and  C_7
REMARK    3  A    between atoms: C_7  and  N_8
REMARK    4  A    between atoms: C_9  and  C_11
REMARK    5  A    between atoms: C_13  and  C_14
REMARK    6  A    between atoms: C_16  and  C_17
REMARK                            x       y       z     vdW  Elec       q    Type
REMARK                         _______ _______ _______ _____ _____    ______ ____
ROOT
ATOM      1  N   UNL     1       5.385   3.567  18.856  0.00  0.00    +0.000 N 
ATOM      2  C   UNL     1       5.138   4.057  17.597  0.00  0.00    +0.000 C 
ATOM      3  O   UNL     1       4.171   3.683  16.937  0.00  0.00    +0.000 OA
ATOM      4  H   UNL     1       6.192   3.892  19.381  0.00  0.00    +0.000 HD
ENDROOT
BRANCH   2   5
ATOM      5  C   UNL     1       6.098   5.031  17.130  0.00  0.00    +0.000 A 
ATOM      6  O   UNL     1       6.465   6.087  17.935  0.00  0.00    +0.000 OA
ATOM      7  C   UNL     1       7.374   6.782  17.188  0.00  0.00    +0.000 A 
ATOM      8  C   UNL     1       7.958   7.995  17.791  0.00  0.00    +0.000 C 
ATOM      9  N   UNL     1       7.612   6.271  15.999  0.00  0.00    +0.000 NA
ATOM     10  C   UNL     1       6.804   5.156  15.947  0.00  0.00    +0.000 A 
ATOM     11  C   UNL     1       6.781   4.305  14.739  0.00  0.00    +0.000 C 
ENDBRANCH   2   5
BRANCH   1  12
ATOM     12  C   UNL     1       4.559   2.558  19.485  0.00  0.00    +0.000 C 
BRANCH  12  18
ATOM     13  C   UNL     1       1.492   6.312  20.872  0.00  0.00    +0.000 C 
ATOM     14  C   UNL     1       1.712   4.879  20.476  0.00  0.00    +0.000 A 
ATOM     15  C   UNL     1       0.644   3.987  20.400  0.00  0.00    +0.000 A 
ATOM     16  C   UNL     1       0.904   2.678  20.033  0.00  0.00    +0.000 A 
ATOM     17  N   UNL     1       2.134   2.202  19.741  0.00  0.00    +0.000 NA
ATOM     18  C   UNL     1       3.174   3.077  19.817  0.00  0.00    +0.000 A 
ATOM     19  C   UNL     1       2.998   4.415  20.180  0.00  0.00    +0.000 A 
ENDBRANCH  12  18
ENDBRANCH   1  12
TORSDOF 3
ENDMDL
MODEL 5
REMARK VINA RESULT:      -7.1      2.205      6.435
REMARK  Name = 
REMARK  6 active torsions:
REMARK  status: ('A' for Active; 'I' for Inactive)
REMARK    1  A    between atoms: C_1  and  C_2
REMARK    2  A    between atoms: C_6  and  C_7
REMARK    3  A    between atoms: C_7  and  N_8
REMARK    4  A    between atoms: C_9  and  C_11
REMARK    5  A    between atoms: C_13  and  C_14
REMARK    6  A    between atoms: C_16  and  C_17
REMARK                            x       y       z     vdW  Elec       q    Type
REMARK                         _______ _______ _______ _____ _____    ______ ____
ROOT
ATOM      1  N   UNL     1       6.409   4.125  16.377  0.00  0.00    +0.000 N 
ATOM      2  C   UNL     1       6.967   5.001  15.478  0.00  0.00    +0.000 C 
ATOM      3  O   UNL     1       7.469   6.063  15.838  0.00  0.00    +0.000 OA
ATOM      4  H   UNL     1       5.999   3.254  16.053  0.00  0.00    +0.000 HD
ENDROOT
BRANCH   2   5
ATOM      5  C   UNL     1       6.909   4.569  14.100  0.00  0.00    +0.000 A 
ATOM      6  O   UNL     1       6.016   3.594  13.713  0.00  0.00    +0.000 OA
ATOM      7  C   UNL     1       6.231   3.451  12.371  0.00  0.00    +0.000 A 
ATOM      8  C   UNL     1       5.410   2.454  11.657  0.00  0.00    +0.000 C 
ATOM      9  N   UNL     1       7.168   4.233  11.879  0.00  0.00    +0.000 NA
ATOM     10  C   UNL     1       7.611   4.949  12.969  0.00  0.00    +0.000 A 
ATOM     11  C   UNL     1       8.693   5.946  12.821  0.00  0.00    +0.000 C 
ENDBRANCH   2   5
BRANCH   1  12
ATOM     12  C   UNL     1       6.337   4.394  17.797  0.00  0.00    +0.000 C 
BRANCH  12  18
ATOM     13  C   UNL     1       1.297   4.317  17.684  0.00  0.00    +0.000 C 
ATOM     14  C   UNL     1       2.598   3.934  18.331  0.00  0.00    +0.000 A 
ATOM     15  C   UNL     1       2.619   3.173  19.499  0.00  0.00    +0.000 A 
ATOM     16  C   UNL     1       3.845   2.851  20.053  0.00  0.00    +0.000 A 
ATOM     17  N   UNL     1       5.034   3.227  19.535  0.00  0.00    +0.000 NA
ATOM     18  C   UNL     1       5.009   3.970  18.394  0.00  0.00    +0.000 A 
ATOM     19  C   UNL     1       3.814   4.338  17.771  0.00  0.00    +0.000 A 
ENDBRANCH  12  18
ENDBRANCH   1  12
TORSDOF 3
ENDMDL
MODEL 6
REMARK VINA RESULT:      -7.1      1.850      6.782
REMARK  Name = 
REMARK  6 active torsions:
REMARK  status: ('A' for Active; 'I' for Inactive)
REMARK    1  A    between atoms: C_1  and  C_2
REMARK    2  A    between atoms: C_6  and  C_7
REMARK    3  A    between atoms: C_7  and  N_8
REMARK    4  A    between atoms: C_9  and  C_11
REMARK    5  A    between atoms: C_13  and  C_14
REMARK    6  A    between atoms: C_16  and  C_17
REMARK                            x       y       z     vdW  Elec       q    Type
REMARK                         _______ _______ _______ _____ _____    ______ ____
ROOT
ATOM      1  N   UNL     1       3.775   6.099  18.045  0.00  0.00    +0.000 N 
ATOM      2  C   UNL     1       5.015   5.574  18.312  0.00  0.00    +0.000 C 
ATOM      3  O   UNL     1       5.303   5.127  19.420  0.00  0.00    +0.000 OA
ATOM      4  H   UNL     1       3.562   6.463  17.121  0.00  0.00    +0.000 HD
ENDROOT
BRANCH   2   5
ATOM      5  C   UNL     1       5.932   5.596  17.195  0.00  0.00    +0.000 A 
ATOM      6  O   UNL     1       5.715   4.788  16.101  0.00  0.00    +0.000 OA
ATOM      7  C   UNL     1       6.752   5.074  15.258  0.00  0.00    +0.000 A 
ATOM      8  C   UNL     1       6.798   4.347  13.974  0.00  0.00    +0.000 C 
ATOM      9  N   UNL     1       7.596   5.975  15.712  0.00  0.00    +0.000 NA
ATOM     10  C   UNL     1       7.089   6.315  16.947  0.00  0.00    +0.000 A 
ATOM     11  C   UNL     1       7.779   7.312  17.791  0.00  0.00    +0.000 C 
ENDBRANCH   2   5
BRANCH   1  12
ATOM     12  C   UNL     1       2.730   6.199  19.043  0.00  0.00    +0.000 C 
BRANCH  12  18
ATOM     13  C   UNL     1       1.303   2.517  22.178  0.00  0.00    +0.000 C 
ATOM     14  C   UNL     1       1.365   3.113  20.799  0.00  0.00    +0.000 A 
ATOM     15  C   UNL     1       0.791   2.457  19.711  0.00  0.00    +0.000 A 
ATOM     16  C   UNL     1       0.879   3.050  18.464  0.00  0.00    +0.000 A 
ATOM     17  N   UNL     1       1.489   4.232  18.227  0.00  0.00    +0.000 NA
ATOM     18  C   UNL     1       2.048   4.869  19.293  0.00  0.00    +0.000 A 
ATOM     19  C   UNL     1       2.004   4.339  20.585  0.00  0.00    +0.000 A 
ENDBRANCH  12  18
ENDBRANCH   1  12
TORSDOF 3
ENDMDL
MODEL 7
REMARK VINA RESULT:      -7.0      1.354      1.795
REMARK  Name = 
REMARK  6 active torsions:
REMARK  status: ('A' for Active; 'I' for Inactive)
REMARK    1  A    between atoms: C_1  and  C_2
REMARK    2  A    between atoms: C_6  and  C_7
REMARK    3  A    between atoms: C_7  and  N_8
REMARK    4  A    between atoms: C_9  and  C_11
REMARK    5  A    between atoms: C_13  and  C_14
REMARK    6  A    between atoms: C_16  and  C_17
REMARK                            x       y       z     vdW  Elec       q    Type
REMARK                         _______ _______ _______ _____ _____    ______ ____
ROOT
ATOM      1  N   UNL     1       5.673   4.636  17.055  0.00  0.00    +0.000 N 
ATOM      2  C   UNL     1       5.544   4.358  18.393  0.00  0.00    +0.000 C 
ATOM      3  O   UNL     1       6.501   4.423  19.162  0.00  0.00    +0.000 OA
ATOM      4  H   UNL     1       4.866   4.575  16.440  0.00  0.00    +0.000 HD
ENDROOT
BRANCH   2   5
ATOM      5  C   UNL     1       4.209   3.989  18.807  0.00  0.00    +0.000 A 
ATOM      6  O   UNL     1       3.436   4.872  19.528  0.00  0.00    +0.000 OA
ATOM      7  C   UNL     1       2.260   4.204  19.730  0.00  0.00    +0.000 A 
ATOM      8  C   UNL     1       1.209   4.904  20.494  0.00  0.00    +0.000 C 
ATOM      9  N   UNL     1       2.219   2.996  19.213  0.00  0.00    +0.000 NA
ATOM     10  C   UNL     1       3.455   2.843  18.623  0.00  0.00    +0.000 A 
ATOM     11  C   UNL     1       3.804   1.585  17.932  0.00  0.00    +0.000 C 
ENDBRANCH   2   5
BRANCH   1  12
ATOM     12  C   UNL     1       6.935   4.990  16.441  0.00  0.00    +0.000 C 
BRANCH  12  18
ATOM     13  C   UNL     1       4.759   3.143  12.285  0.00  0.00    +0.000 C 
ATOM     14  C   UNL     1       5.872   3.899  12.955  0.00  0.00    +0.000 A 
ATOM     15  C   UNL     1       6.923   4.432  12.211  0.00  0.00    +0.000 A 
ATOM     16  C   UNL     1       7.923   5.116  12.880  0.00  0.00    +0.000 A 
ATOM     17  N   UNL     1       7.950   5.304  14.217  0.00  0.00    +0.000 NA
ATOM     18  C   UNL     1       6.921   4.781  14.940  0.00  0.00    +0.000 A 
ATOM     19  C   UNL     1       5.873   4.077  14.342  0.00  0.00    +0.000 A 
ENDBRANCH  12  18
ENDBRANCH   1  12
TORSDOF 3
ENDMDL
MODEL 8
REMARK VINA RESULT:      -7.0      2.169      6.905
REMARK  Name = 
REMARK  6 active torsions:
REMARK  status: ('A' for Active; 'I' for Inactive)
REMARK    1  A    between atoms: C_1  and  C_2
REMARK    2  A    between atoms: C_6  and  C_7
REMARK    3  A    between atoms: C_7  and  N_8
REMARK    4  A    between atoms: C_9  and  C_11
REMARK    5  A    between atoms: C_13  and  C_14
REMARK    6  A    between atoms: C_16  and  C_17
REMARK                            x       y       z     vdW  Elec       q    Type
REMARK                         _______ _______ _______ _____ _____    ______ ____
ROOT
ATOM      1  N   UNL     1       3.922   5.389  18.326  0.00  0.00    +0.000 N 
ATOM      2  C   UNL     1       5.131   4.740  18.275  0.00  0.00    +0.000 C 
ATOM      3  O   UNL     1       5.541   4.064  19.217  0.00  0.00    +0.000 OA
ATOM      4  H   UNL     1       3.606   5.942  17.534  0.00  0.00    +0.000 HD
ENDROOT
BRANCH   2   5
ATOM      5  C   UNL     1       5.862   4.920  17.041  0.00  0.00    +0.000 A 
ATOM      6  O   UNL     1       5.592   4.122  15.951  0.00  0.00    +0.000 OA
ATOM      7  C   UNL     1       6.446   4.572  14.983  0.00  0.00    +0.000 A 
ATOM      8  C   UNL     1       6.397   3.898  13.672  0.00  0.00    +0.000 C 
ATOM      9  N   UNL     1       7.223   5.566  15.357  0.00  0.00    +0.000 NA
ATOM     10  C   UNL     1       6.864   5.797  16.666  0.00  0.00    +0.000 A 
ATOM     11  C   UNL     1       7.536   6.854  17.451  0.00  0.00    +0.000 C 
ENDBRANCH   2   5
BRANCH   1  12
ATOM     12  C   UNL     1       3.060   5.360  19.488  0.00  0.00    +0.000 C 
BRANCH  12  18
ATOM     13  C   UNL     1       1.722   9.948  17.880  0.00  0.00    +0.000 C 
ATOM     14  C   UNL     1       1.713   8.875  18.932  0.00  0.00    +0.000 A 
ATOM     15  C   UNL     1       1.050   9.067  20.143  0.00  0.00    +0.000 A 
ATOM     16  C   UNL     1       1.076   8.046  21.077  0.00  0.00    +0.000 A 
ATOM     17  N   UNL     1       1.707   6.866  20.894  0.00  0.00    +0.000 NA
ATOM     18  C   UNL     1       2.353   6.683  19.710  0.00  0.00    +0.000 A 
ATOM     19  C   UNL     1       2.375   7.663  18.714  0.00  0.00    +0.000 A 
ENDBRANCH  12  18
ENDBRANCH   1  12
TORSDOF 3
ENDMDL
MODEL 9
REMARK VINA RESULT:      -7.0      2.237      6.647
REMARK  Name = 
REMARK  6 active torsions:
REMARK  status: ('A' for Active; 'I' for Inactive)
REMARK    1  A    between atoms: C_1  and  C_2
REMARK    2  A    between atoms: C_6  and  C_7
REMARK    3  A    between atoms: C_7  and  N_8
REMARK    4  A    between atoms: C_9  and  C_11
REMARK    5  A    between atoms: C_13  and  C_14
REMARK    6  A    between atoms: C_16  and  C_17
REMARK                            x       y       z     vdW  Elec       q    Type
REMARK                         _______ _______ _______ _____ _____    ______ ____
ROOT
ATOM      1  N   UNL     1       5.467   3.283  18.906  0.00  0.00    +0.000 N 
ATOM      2  C   UNL     1       6.182   4.450  18.799  0.00  0.00    +0.000 C 
ATOM      3  O   UNL     1       6.524   5.091  19.790  0.00  0.00    +0.000 OA
ATOM      4  H   UNL     1       5.195   2.772  18.071  0.00  0.00    +0.000 HD
ENDROOT
BRANCH   2   5
ATOM      5  C   UNL     1       6.490   4.847  17.443  0.00  0.00    +0.000 A 
ATOM      6  O   UNL     1       6.200   4.007  16.390  0.00  0.00    +0.000 OA
ATOM      7  C   UNL     1       6.610   4.698  15.284  0.00  0.00    +0.000 A 
ATOM      8  C   UNL     1       6.431   4.043  13.974  0.00  0.00    +0.000 C 
ATOM      9  N   UNL     1       7.127   5.881  15.537  0.00  0.00    +0.000 NA
ATOM     10  C   UNL     1       7.060   5.989  16.909  0.00  0.00    +0.000 A 
ATOM     11  C   UNL     1       7.566   7.199  17.590  0.00  0.00    +0.000 C 
ENDBRANCH   2   5
BRANCH   1  12
ATOM     12  C   UNL     1       5.032   2.739  20.175  0.00  0.00    +0.000 C 
BRANCH  12  18
ATOM     13  C   UNL     1       0.417   3.310  18.227  0.00  0.00    +0.000 C 
ATOM     14  C   UNL     1       1.322   3.080  19.404  0.00  0.00    +0.000 A 
ATOM     15  C   UNL     1       0.800   2.923  20.687  0.00  0.00    +0.000 A 
ATOM     16  C   UNL     1       1.679   2.716  21.735  0.00  0.00    +0.000 A 
ATOM     17  N   UNL     1       3.022   2.657  21.599  0.00  0.00    +0.000 NA
ATOM     18  C   UNL     1       3.527   2.811  20.344  0.00  0.00    +0.000 A 
ATOM     19  C   UNL     1       2.709   3.023  19.232  0.00  0.00    +0.000 A 
ENDBRANCH  12  18
ENDBRANCH   1  12
TORSDOF 3
ENDMDL
