MODEL 1
REMARK VINA RESULT:      -7.3      0.000      0.000
REMARK  Name = 
REMARK  6 active torsions:
REMARK  status: ('A' for Active; 'I' for Inactive)
REMARK    1  A    between atoms: C_1  and  C_2
REMARK    2  A    between atoms: C_2  and  S_3
REMARK    3  A    between atoms: C_2  and  C_10
REMARK    4  A    between atoms: S_3  and  C_4
REMARK    5  A    between atoms: N_12  and  C_13
REMARK    6  A    between atoms: C_18  and  C_19
REMARK                            x       y       z     vdW  Elec       q    Type
REMARK                         _______ _______ _______ _____ _____    ______ ____
ROOT
ATOM      1  C   UNL     1       4.615   7.123  17.671  0.00  0.00    +0.000 C 
ATOM      2  C   UNL     1       5.146   5.762  17.213  0.00  0.00    +0.000 C 
ENDROOT
BRANCH   2   3
ATOM      3  C   UNL     1       5.039   4.742  18.366  0.00  0.00    +0.000 C 
ATOM      4  O   UNL     1       6.017   4.356  19.004  0.00  0.00    +0.000 OA
ATOM      5  N   UNL     1       3.754   4.326  18.675  0.00  0.00    +0.000 N 
ATOM      6  H   UNL     1       2.984   4.784  18.203  0.00  0.00    +0.000 HD
BRANCH   5   7
ATOM      7  C   UNL     1       3.474   3.458  19.820  0.00  0.00    +0.000 C 
ATOM      8  C   UNL     1       2.608   4.196  20.854  0.00  0.00    +0.000 C 
ATOM      9  C   UNL     1       1.185   4.440  20.350  0.00  0.00    +0.000 C 
ATOM     10  C   UNL     1       0.512   3.160  19.857  0.00  0.00    +0.000 C 
ATOM     11  C   UNL     1       1.374   2.387  18.860  0.00  0.00    +0.000 C 
ATOM     12  C   UNL     1       2.778   2.136  19.430  0.00  0.00    +0.000 C 
ATOM     13  C   UNL     1       3.620   1.268  18.498  0.00  0.00    +0.000 C 
ENDBRANCH   5   7
ENDBRANCH   2   3
BRANCH   2  14
ATOM     14  S   UNL     1       6.900   5.871  16.689  0.00  0.00    +0.000 S 
BRANCH  14  15
ATOM     15  C   UNL     1       6.858   5.136  15.106  0.00  0.00    +0.000 A 
ATOM     16  N   UNL     1       7.660   5.488  14.123  0.00  0.00    +0.000 NA
ATOM     17  N   UNL     1       7.457   4.709  12.995  0.00  0.00    +0.000 NA
ATOM     18  C   UNL     1       6.504   3.819  13.162  0.00  0.00    +0.000 A 
ATOM     19  N   UNL     1       6.124   2.914  12.239  0.00  0.00    +0.000 N 
ATOM     20  S   UNL     1       5.770   3.873  14.714  0.00  0.00    +0.000 S 
ATOM     21  H   UNL     1       6.773   2.752  11.477  0.00  0.00    +0.000 HD
ATOM     22  H   UNL     1       5.638   2.082  12.551  0.00  0.00    +0.000 HD
ENDBRANCH  14  15
ENDBRANCH   2  14
TORSDOF 4
ENDMDL
MODEL 2
REMARK VINA RESULT:      -7.0      1.412      1.646
REMARK  Name = 
REMARK  6 active torsions:
REMARK  status: ('A' for Active; 'I' for Inactive)
REMARK    1  A    between atoms: C_1  and  C_2
REMARK    2  A    between atoms: C_2  and  S_3
REMARK    3  A    between atoms: C_2  and  C_10
REMARK    4  A    between atoms: S_3  and  C_4
REMARK    5  A    between atoms: N_12  and  C_13
REMARK    6  A    between atoms: C_18  and  C_19
REMARK                            x       y       z     vdW  Elec       q    Type
REMARK                         _______ _______ _______ _____ _____    ______ ____
ROOT
ATOM      1  C   UNL     1       7.576   5.750  18.952  0.00  0.00    +0.000 C 
ATOM      2  C   UNL     1       6.046   5.819  18.960  0.00  0.00    +0.000 C 
ENDROOT
BRANCH   2   3
ATOM      3  C   UNL     1       5.456   4.394  18.904  0.00  0.00    +0.000 C 
ATOM      4  O   UNL     1       6.076   3.436  18.445  0.00  0.00    +0.000 OA
ATOM      5  N   UNL     1       4.195   4.251  19.458  0.00  0.00    +0.000 N 
ATOM      6  H   UNL     1       3.799   5.048  19.940  0.00  0.00    +0.000 HD
BRANCH   5   7
ATOM      7  C   UNL     1       3.551   2.943  19.594  0.00  0.00    +0.000 C 
ATOM      8  C   UNL     1       3.179   2.678  21.062  0.00  0.00    +0.000 C 
ATOM      9  C   UNL     1       2.045   3.584  21.545  0.00  0.00    +0.000 C 
ATOM     10  C   UNL     1       0.822   3.529  20.630  0.00  0.00    +0.000 C 
ATOM     11  C   UNL     1       1.176   3.747  19.160  0.00  0.00    +0.000 C 
ATOM     12  C   UNL     1       2.290   2.788  18.717  0.00  0.00    +0.000 C 
ATOM     13  C   UNL     1       2.581   2.910  17.223  0.00  0.00    +0.000 C 
ENDBRANCH   5   7
ENDBRANCH   2   3
BRANCH   2  14
ATOM     14  S   UNL     1       5.413   6.772  17.526  0.00  0.00    +0.000 S 
BRANCH  14  15
ATOM     15  C   UNL     1       6.076   5.887  16.174  0.00  0.00    +0.000 A 
ATOM     16  N   UNL     1       7.323   6.008  15.772  0.00  0.00    +0.000 NA
ATOM     17  N   UNL     1       7.604   5.152  14.719  0.00  0.00    +0.000 NA
ATOM     18  C   UNL     1       6.562   4.438  14.357  0.00  0.00    +0.000 A 
ATOM     19  N   UNL     1       6.565   3.507  13.384  0.00  0.00    +0.000 N 
ATOM     20  S   UNL     1       5.147   4.766  15.273  0.00  0.00    +0.000 S 
ATOM     21  H   UNL     1       7.476   3.170  13.090  0.00  0.00    +0.000 HD
ATOM     22  H   UNL     1       5.845   2.796  13.394  0.00  0.00    +0.000 HD
ENDBRANCH  14  15
ENDBRANCH   2  14
TORSDOF 4
ENDMDL
MODEL 3
REMARK VINA RESULT:      -6.9      1.619      2.489
REMARK  Name = 
REMARK  6 active torsions:
REMARK  status: ('A' for Active; 'I' for Inactive)
REMARK    1  A    between atoms: C_1  and  C_2
REMARK    2  A    between atoms: C_2  and  S_3
REMARK    3  A    between atoms: C_2  and  C_10
REMARK    4  A    between atoms: S_3  and  C_4
REMARK    5  A    between atoms: N_12  and  C_13
REMARK    6  A    between atoms: C_18  and  C_19
REMARK                            x       y       z     vdW  Elec       q    Type
REMARK                         _______ _______ _______ _____ _____    ______ ____
ROOT
ATOM      1  C   UNL     1       6.169   5.703  18.994  0.00  0.00    +0.000 C 
ATOM      2  C   UNL     1       5.378   5.617  17.686  0.00  0.00    +0.000 C 
ENDROOT
BRANCH   2   3
ATOM      3  C   UNL     1       3.871   5.779  17.971  0.00  0.00    +0.000 C 
ATOM      4  O   UNL     1       3.232   6.770  17.623  0.00  0.00    +0.000 OA
ATOM      5  N   UNL     1       3.265   4.704  18.601  0.00  0.00    +0.000 N 
ATOM      6  H   UNL     1       3.816   3.866  18.737  0.00  0.00    +0.000 HD
BRANCH   5   7
ATOM      7  C   UNL     1       1.820   4.651  18.828  0.00  0.00    +0.000 C 
ATOM      8  C   UNL     1       1.269   3.263  18.463  0.00  0.00    +0.000 C 
ATOM      9  C   UNL     1       1.732   2.181  19.438  0.00  0.00    +0.000 C 
ATOM     10  C   UNL     1       1.439   2.541  20.894  0.00  0.00    +0.000 C 
ATOM     11  C   UNL     1       1.941   3.936  21.268  0.00  0.00    +0.000 C 
ATOM     12  C   UNL     1       1.417   4.989  20.281  0.00  0.00    +0.000 C 
ATOM     13  C   UNL     1       1.812   6.402  20.698  0.00  0.00    +0.000 C 
ENDBRANCH   5   7
ENDBRANCH   2   3
BRANCH   2  14
ATOM     14  S   UNL     1       5.646   4.007  16.848  0.00  0.00    +0.000 S 
BRANCH  14  15
ATOM     15  C   UNL     1       6.436   4.489  15.368  0.00  0.00    +0.000 A 
ATOM     16  N   UNL     1       7.451   5.326  15.329  0.00  0.00    +0.000 NA
ATOM     17  N   UNL     1       7.926   5.493  14.038  0.00  0.00    +0.000 NA
ATOM     18  C   UNL     1       7.244   4.796  13.156  0.00  0.00    +0.000 A 
ATOM     19  N   UNL     1       7.511   4.749  11.836  0.00  0.00    +0.000 N 
ATOM     20  S   UNL     1       5.956   3.888  13.838  0.00  0.00    +0.000 S 
ATOM     21  H   UNL     1       8.432   5.069  11.554  0.00  0.00    +0.000 HD
ATOM     22  H   UNL     1       7.165   3.962  11.302  0.00  0.00    +0.000 HD
ENDBRANCH  14  15
ENDBRANCH   2  14
TORSDOF 4
ENDMDL
MODEL 4
REMARK VINA RESULT:      -6.6      3.509      5.084
REMARK  Name = 
REMARK  6 active torsions:
REMARK  status: ('A' for Active; 'I' for Inactive)
REMARK    1  A    between atoms: C_1  and  C_2
REMARK    2  A    between atoms: C_2  and  S_3
REMARK    3  A    between atoms: C_2  and  C_10
REMARK    4  A    between atoms: S_3  and  C_4
REMARK    5  A    between atoms: N_12  and  C_13
REMARK    6  A    between atoms: C_18  and  C_19
REMARK                            x       y       z     vdW  Elec       q    Type
REMARK                         _______ _______ _______ _____ _____    ______ ____
ROOT
ATOM      1  C   UNL     1       6.648   6.246  17.979  0.00  0.00    +0.000 C 
ATOM      2  C   UNL     1       5.265   6.119  18.623  0.00  0.00    +0.000 C 
ENDROOT
BRANCH   2   3
ATOM      3  C   UNL     1       5.046   4.675  19.119  0.00  0.00    +0.000 C 
ATOM      4  O   UNL     1       5.974   3.887  19.300  0.00  0.00    +0.000 OA
ATOM      5  N   UNL     1       3.734   4.336  19.404  0.00  0.00    +0.000 N 
ATOM      6  H   UNL     1       3.039   5.070  19.365  0.00  0.00    +0.000 HD
BRANCH   5   7
ATOM      7  C   UNL     1       3.377   3.047  20.001  0.00  0.00    +0.000 C 
ATOM      8  C   UNL     1       2.442   3.253  21.202  0.00  0.00    +0.000 C 
ATOM      9  C   UNL     1       1.056   3.744  20.781  0.00  0.00    +0.000 C 
ATOM     10  C   UNL     1       0.421   2.855  19.713  0.00  0.00    +0.000 C 
ATOM     11  C   UNL     1       1.351   2.601  18.527  0.00  0.00    +0.000 C 
ATOM     12  C   UNL     1       2.712   2.074  19.002  0.00  0.00    +0.000 C 
ATOM     13  C   UNL     1       3.618   1.708  17.830  0.00  0.00    +0.000 C 
ENDBRANCH   5   7
ENDBRANCH   2   3
BRANCH   2  14
ATOM     14  S   UNL     1       3.934   6.537  17.431  0.00  0.00    +0.000 S 
BRANCH  14  15
ATOM     15  C   UNL     1       2.821   7.443  18.426  0.00  0.00    +0.000 A 
ATOM     16  N   UNL     1       2.495   7.091  19.652  0.00  0.00    +0.000 NA
ATOM     17  N   UNL     1       1.642   8.012  20.238  0.00  0.00    +0.000 NA
ATOM     18  C   UNL     1       1.344   9.007  19.431  0.00  0.00    +0.000 A 
ATOM     19  N   UNL     1       0.562  10.055  19.756  0.00  0.00    +0.000 N 
ATOM     20  S   UNL     1       2.077   8.887  17.884  0.00  0.00    +0.000 S 
ATOM     21  H   UNL     1       0.403  10.205  20.747  0.00  0.00    +0.000 HD
ATOM     22  H   UNL     1       0.652  10.908  19.219  0.00  0.00    +0.000 HD
ENDBRANCH  14  15
ENDBRANCH   2  14
TORSDOF 4
ENDMDL
MODEL 5
REMARK VINA RESULT:      -6.4      1.457      1.708
REMARK  Name = 
REMARK  6 active torsions:
REMARK  status: ('A' for Active; 'I' for Inactive)
REMARK    1  A    between atoms: C_1  and  C_2
REMARK    2  A    between atoms: C_2  and  S_3
REMARK    3  A    between atoms: C_2  and  C_10
REMARK    4  A    between atoms: S_3  and  C_4
REMARK    5  A    between atoms: N_12  and  C_13
REMARK    6  A    between atoms: C_18  and  C_19
REMARK                            x       y       z     vdW  Elec       q    Type
REMARK                         _______ _______ _______ _____ _____    ______ ____
ROOT
ATOM      1  C   UNL     1       7.821   4.390  17.251  0.00  0.00    +0.000 C 
ATOM      2  C   UNL     1       7.147   5.645  17.811  0.00  0.00    +0.000 C 
ENDROOT
BRANCH   2   3
ATOM      3  C   UNL     1       6.200   5.261  18.968  0.00  0.00    +0.000 C 
ATOM      4  O   UNL     1       6.563   5.241  20.143  0.00  0.00    +0.000 OA
ATOM      5  N   UNL     1       4.892   4.991  18.602  0.00  0.00    +0.000 N 
ATOM      6  H   UNL     1       4.628   5.158  17.639  0.00  0.00    +0.000 HD
BRANCH   5   7
ATOM      7  C   UNL     1       3.846   4.734  19.594  0.00  0.00    +0.000 C 
ATOM      8  C   UNL     1       2.670   5.702  19.396  0.00  0.00    +0.000 C 
ATOM      9  C   UNL     1       1.893   5.417  18.110  0.00  0.00    +0.000 C 
ATOM     10  C   UNL     1       1.450   3.958  18.006  0.00  0.00    +0.000 C 
ATOM     11  C   UNL     1       2.597   2.976  18.242  0.00  0.00    +0.000 C 
ATOM     12  C   UNL     1       3.317   3.283  19.562  0.00  0.00    +0.000 C 
ATOM     13  C   UNL     1       4.394   2.246  19.874  0.00  0.00    +0.000 C 
ENDBRANCH   5   7
ENDBRANCH   2   3
BRANCH   2  14
ATOM     14  S   UNL     1       6.173   6.512  16.521  0.00  0.00    +0.000 S 
BRANCH  14  15
ATOM     15  C   UNL     1       6.425   5.495  15.124  0.00  0.00    +0.000 A 
ATOM     16  N   UNL     1       7.496   5.567  14.362  0.00  0.00    +0.000 NA
ATOM     17  N   UNL     1       7.472   4.611  13.358  0.00  0.00    +0.000 NA
ATOM     18  C   UNL     1       6.384   3.874  13.390  0.00  0.00    +0.000 A 
ATOM     19  N   UNL     1       6.120   2.853  12.551  0.00  0.00    +0.000 N 
ATOM     20  S   UNL     1       5.295   4.300  14.647  0.00  0.00    +0.000 S 
ATOM     21  H   UNL     1       6.910   2.482  12.035  0.00  0.00    +0.000 HD
ATOM     22  H   UNL     1       5.450   2.152  12.842  0.00  0.00    +0.000 HD
ENDBRANCH  14  15
ENDBRANCH   2  14
TORSDOF 4
ENDMDL
MODEL 6
REMARK VINA RESULT:      -6.4      3.462      4.899
REMARK  Name = 
REMARK  6 active torsions:
REMARK  status: ('A' for Active; 'I' for Inactive)
REMARK    1  A    between atoms: C_1  and  C_2
REMARK    2  A    between atoms: C_2  and  S_3
REMARK    3  A    between atoms: C_2  and  C_10
REMARK    4  A    between atoms: S_3  and  C_4
REMARK    5  A    between atoms: N_12  and  C_13
REMARK    6  A    between atoms: C_18  and  C_19
REMARK                            x       y       z     vdW  Elec       q    Type
REMARK                         _______ _______ _______ _____ _____    ______ ____
ROOT
ATOM      1  C   UNL     1       6.615   6.383  17.947  0.00  0.00    +0.000 C 
ATOM      2  C   UNL     1       5.204   6.196  18.512  0.00  0.00    +0.000 C 
ENDROOT
BRANCH   2   3
ATOM      3  C   UNL     1       5.047   4.766  19.071  0.00  0.00    +0.000 C 
ATOM      4  O   UNL     1       6.009   4.048  19.336  0.00  0.00    +0.000 OA
ATOM      5  N   UNL     1       3.744   4.361  19.310  0.00  0.00    +0.000 N 
ATOM      6  H   UNL     1       3.009   5.048  19.199  0.00  0.00    +0.000 HD
BRANCH   5   7
ATOM      7  C   UNL     1       3.435   3.083  19.954  0.00  0.00    +0.000 C 
ATOM      8  C   UNL     1       2.525   3.303  21.173  0.00  0.00    +0.000 C 
ATOM      9  C   UNL     1       1.118   3.748  20.774  0.00  0.00    +0.000 C 
ATOM     10  C   UNL     1       0.477   2.811  19.751  0.00  0.00    +0.000 C 
ATOM     11  C   UNL     1       1.383   2.544  18.549  0.00  0.00    +0.000 C 
ATOM     12  C   UNL     1       2.768   2.064  19.003  0.00  0.00    +0.000 C 
ATOM     13  C   UNL     1       3.653   1.684  17.819  0.00  0.00    +0.000 C 
ENDBRANCH   5   7
ENDBRANCH   2   3
BRANCH   2  14
ATOM     14  S   UNL     1       3.928   6.464  17.221  0.00  0.00    +0.000 S 
BRANCH  14  15
ATOM     15  C   UNL     1       2.908   7.675  17.959  0.00  0.00    +0.000 A 
ATOM     16  N   UNL     1       2.589   8.808  17.369  0.00  0.00    +0.000 NA
ATOM     17  N   UNL     1       1.724   9.561  18.147  0.00  0.00    +0.000 NA
ATOM     18  C   UNL     1       1.441   8.981  19.292  0.00  0.00    +0.000 A 
ATOM     19  N   UNL     1       0.601   9.478  20.221  0.00  0.00    +0.000 N 
ATOM     20  S   UNL     1       2.223   7.469  19.514  0.00  0.00    +0.000 S 
ATOM     21  H   UNL     1      -0.029  10.210  19.910  0.00  0.00    +0.000 HD
ATOM     22  H   UNL     1       0.194   8.840  20.894  0.00  0.00    +0.000 HD
ENDBRANCH  14  15
ENDBRANCH   2  14
TORSDOF 4
ENDMDL
MODEL 7
REMARK VINA RESULT:      -6.3      1.558      2.236
REMARK  Name = 
REMARK  6 active torsions:
REMARK  status: ('A' for Active; 'I' for Inactive)
REMARK    1  A    between atoms: C_1  and  C_2
REMARK    2  A    between atoms: C_2  and  S_3
REMARK    3  A    between atoms: C_2  and  C_10
REMARK    4  A    between atoms: S_3  and  C_4
REMARK    5  A    between atoms: N_12  and  C_13
REMARK    6  A    between atoms: C_18  and  C_19
REMARK                            x       y       z     vdW  Elec       q    Type
REMARK                         _______ _______ _______ _____ _____    ______ ____
ROOT
ATOM      1  C   UNL     1       6.190   4.487  18.474  0.00  0.00    +0.000 C 
ATOM      2  C   UNL     1       5.649   5.895  18.736  0.00  0.00    +0.000 C 
ENDROOT
BRANCH   2   3
ATOM      3  C   UNL     1       4.108   5.862  18.806  0.00  0.00    +0.000 C 
ATOM      4  O   UNL     1       3.402   6.742  18.316  0.00  0.00    +0.000 OA
ATOM      5  N   UNL     1       3.564   4.741  19.411  0.00  0.00    +0.000 N 
ATOM      6  H   UNL     1       4.194   3.992  19.669  0.00  0.00    +0.000 HD
BRANCH   5   7
ATOM      7  C   UNL     1       2.120   4.501  19.445  0.00  0.00    +0.000 C 
ATOM      8  C   UNL     1       1.573   4.318  18.020  0.00  0.00    +0.000 C 
ATOM      9  C   UNL     1       2.045   3.012  17.381  0.00  0.00    +0.000 C 
ATOM     10  C   UNL     1       1.758   1.794  18.259  0.00  0.00    +0.000 C 
ATOM     11  C   UNL     1       2.256   1.972  19.693  0.00  0.00    +0.000 C 
ATOM     12  C   UNL     1       1.724   3.277  20.300  0.00  0.00    +0.000 C 
ATOM     13  C   UNL     1       2.116   3.421  21.768  0.00  0.00    +0.000 C 
ENDBRANCH   5   7
ENDBRANCH   2   3
BRANCH   2  14
ATOM     14  S   UNL     1       6.151   7.061  17.411  0.00  0.00    +0.000 S 
BRANCH  14  15
ATOM     15  C   UNL     1       6.451   5.985  16.069  0.00  0.00    +0.000 A 
ATOM     16  N   UNL     1       7.633   5.844  15.506  0.00  0.00    +0.000 NA
ATOM     17  N   UNL     1       7.609   4.887  14.504  0.00  0.00    +0.000 NA
ATOM     18  C   UNL     1       6.416   4.360  14.338  0.00  0.00    +0.000 A 
ATOM     19  N   UNL     1       6.118   3.386  13.455  0.00  0.00    +0.000 N 
ATOM     20  S   UNL     1       5.222   5.005  15.390  0.00  0.00    +0.000 S 
ATOM     21  H   UNL     1       6.905   2.866  13.081  0.00  0.00    +0.000 HD
ATOM     22  H   UNL     1       5.292   2.825  13.617  0.00  0.00    +0.000 HD
ENDBRANCH  14  15
ENDBRANCH   2  14
TORSDOF 4
ENDMDL
MODEL 8
REMARK VINA RESULT:      -6.2      1.650      2.459
REMARK  Name = 
REMARK  6 active torsions:
REMARK  status: ('A' for Active; 'I' for Inactive)
REMARK    1  A    between atoms: C_1  and  C_2
REMARK    2  A    between atoms: C_2  and  S_3
REMARK    3  A    between atoms: C_2  and  C_10
REMARK    4  A    between atoms: S_3  and  C_4
REMARK    5  A    between atoms: N_12  and  C_13
REMARK    6  A    between atoms: C_18  and  C_19
REMARK                            x       y       z     vdW  Elec       q    Type
REMARK                         _______ _______ _______ _____ _____    ______ ____
ROOT
ATOM      1  C   UNL     1       7.121   6.198  19.482  0.00  0.00    +0.000 C 
ATOM      2  C   UNL     1       6.875   6.033  17.980  0.00  0.00    +0.000 C 
ENDROOT
BRANCH   2   3
ATOM      3  C   UNL     1       5.360   6.070  17.689  0.00  0.00    +0.000 C 
ATOM      4  O   UNL     1       4.838   6.945  16.999  0.00  0.00    +0.000 OA
ATOM      5  N   UNL     1       4.628   5.017  18.211  0.00  0.00    +0.000 N 
ATOM      6  H   UNL     1       5.137   4.261  18.651  0.00  0.00    +0.000 HD
BRANCH   5   7
ATOM      7  C   UNL     1       3.204   4.842  17.919  0.00  0.00    +0.000 C 
ATOM      8  C   UNL     1       2.959   3.488  17.234  0.00  0.00    +0.000 C 
ATOM      9  C   UNL     1       3.183   2.310  18.182  0.00  0.00    +0.000 C 
ATOM     10  C   UNL     1       2.385   2.442  19.478  0.00  0.00    +0.000 C 
ATOM     11  C   UNL     1       2.580   3.798  20.155  0.00  0.00    +0.000 C 
ATOM     12  C   UNL     1       2.305   4.945  19.171  0.00  0.00    +0.000 C 
ATOM     13  C   UNL     1       2.384   6.308  19.854  0.00  0.00    +0.000 C 
ENDBRANCH   5   7
ENDBRANCH   2   3
BRANCH   2  14
ATOM     14  S   UNL     1       7.551   4.444  17.362  0.00  0.00    +0.000 S 
BRANCH  14  15
ATOM     15  C   UNL     1       7.123   4.494  15.670  0.00  0.00    +0.000 A 
ATOM     16  N   UNL     1       7.690   5.307  14.805  0.00  0.00    +0.000 NA
ATOM     17  N   UNL     1       7.208   5.103  13.522  0.00  0.00    +0.000 NA
ATOM     18  C   UNL     1       6.289   4.164  13.472  0.00  0.00    +0.000 A 
ATOM     19  N   UNL     1       5.677   3.742  12.348  0.00  0.00    +0.000 N 
ATOM     20  S   UNL     1       5.933   3.463  14.998  0.00  0.00    +0.000 S 
ATOM     21  H   UNL     1       6.129   3.988  11.473  0.00  0.00    +0.000 HD
ATOM     22  H   UNL     1       5.248   2.826  12.348  0.00  0.00    +0.000 HD
ENDBRANCH  14  15
ENDBRANCH   2  14
TORSDOF 4
ENDMDL
MODEL 9
REMARK VINA RESULT:      -6.2      1.178      1.287
REMARK  Name = 
REMARK  6 active torsions:
REMARK  status: ('A' for Active; 'I' for Inactive)
REMARK    1  A    between atoms: C_1  and  C_2
REMARK    2  A    between atoms: C_2  and  S_3
REMARK    3  A    between atoms: C_2  and  C_10
REMARK    4  A    between atoms: S_3  and  C_4
REMARK    5  A    between atoms: N_12  and  C_13
REMARK    6  A    between atoms: C_18  and  C_19
REMARK                            x       y       z     vdW  Elec       q    Type
REMARK                         _______ _______ _______ _____ _____    ______ ____
ROOT
ATOM      1  C   UNL     1       3.138   7.788  18.020  0.00  0.00    +0.000 C 
ATOM      2  C   UNL     1       4.100   6.661  17.634  0.00  0.00    +0.000 C 
ENDROOT
BRANCH   2   3
ATOM      3  C   UNL     1       4.254   5.675  18.810  0.00  0.00    +0.000 C 
ATOM      4  O   UNL     1       5.275   5.608  19.491  0.00  0.00    +0.000 OA
ATOM      5  N   UNL     1       3.139   4.902  19.088  0.00  0.00    +0.000 N 
ATOM      6  H   UNL     1       2.287   5.102  18.578  0.00  0.00    +0.000 HD
BRANCH   5   7
ATOM      7  C   UNL     1       3.082   4.009  20.247  0.00  0.00    +0.000 C 
ATOM      8  C   UNL     1       1.918   4.402  21.171  0.00  0.00    +0.000 C 
ATOM      9  C   UNL     1       0.555   4.108  20.542  0.00  0.00    +0.000 C 
ATOM     10  C   UNL     1       0.434   2.664  20.059  0.00  0.00    +0.000 C 
ATOM     11  C   UNL     1       1.604   2.238  19.173  0.00  0.00    +0.000 C 
ATOM     12  C   UNL     1       2.945   2.519  19.866  0.00  0.00    +0.000 C 
ATOM     13  C   UNL     1       4.124   1.999  19.048  0.00  0.00    +0.000 C 
ENDBRANCH   5   7
ENDBRANCH   2   3
BRANCH   2  14
ATOM     14  S   UNL     1       5.757   7.318  17.199  0.00  0.00    +0.000 S 
BRANCH  14  15
ATOM     15  C   UNL     1       6.307   6.168  16.007  0.00  0.00    +0.000 A 
ATOM     16  N   UNL     1       7.577   5.989  15.707  0.00  0.00    +0.000 NA
ATOM     17  N   UNL     1       7.742   4.978  14.774  0.00  0.00    +0.000 NA
ATOM     18  C   UNL     1       6.600   4.450  14.394  0.00  0.00    +0.000 A 
ATOM     19  N   UNL     1       6.473   3.430  13.522  0.00  0.00    +0.000 N 
ATOM     20  S   UNL     1       5.227   5.159  15.143  0.00  0.00    +0.000 S 
ATOM     21  H   UNL     1       7.311   2.886  13.346  0.00  0.00    +0.000 HD
ATOM     22  H   UNL     1       5.621   2.884  13.540  0.00  0.00    +0.000 HD
ENDBRANCH  14  15
ENDBRANCH   2  14
TORSDOF 4
ENDMDL
