MODEL 1
REMARK VINA RESULT:      -7.3      0.000      0.000
REMARK  Name = 
REMARK  5 active torsions:
REMARK  status: ('A' for Active; 'I' for Inactive)
REMARK    1  A    between atoms: C_1  and  C_2
REMARK    2  A    between atoms: N_4  and  C_5
REMARK    3  A    between atoms: N_11  and  C_12
REMARK    4  A    between atoms: C_12  and  C_13
REMARK    5  A    between atoms: C_13  and  C_14
REMARK                            x       y       z     vdW  Elec       q    Type
REMARK                         _______ _______ _______ _____ _____    ______ ____
ROOT
ATOM      1  C   UNL     1       2.406   7.286  18.944  0.00  0.00    +0.000 A 
ATOM      2  C   UNL     1       2.251   8.044  17.789  0.00  0.00    +0.000 A 
ATOM      3  C   UNL     1       1.961   9.380  17.919  0.00  0.00    +0.000 A 
ATOM      4  C   UNL     1       1.482   9.861  19.134  0.00  0.00    +0.000 A 
ATOM      5  C   UNL     1       1.176  11.250  19.288  0.00  0.00    +0.000 A 
ATOM      6  C   UNL     1       0.222  11.713  20.092  0.00  0.00    +0.000 A 
ATOM      7  N   UNL     1      -0.389  10.832  21.009  0.00  0.00    +0.000 N 
ATOM      8  C   UNL     1       0.167   9.489  21.199  0.00  0.00    +0.000 A 
ATOM      9  O   UNL     1      -0.254   8.695  22.034  0.00  0.00    +0.000 OA
ATOM     10  C   UNL     1       1.241   9.018  20.204  0.00  0.00    +0.000 A 
ATOM     11  C   UNL     1       1.875   7.756  20.170  0.00  0.00    +0.000 A 
ATOM     12  C   UNL     1       0.095  13.188  19.813  0.00  0.00    +0.000 A 
ATOM     13  C   UNL     1      -0.810  14.227  20.034  0.00  0.00    +0.000 A 
ATOM     14  C   UNL     1      -0.499  15.484  19.470  0.00  0.00    +0.000 A 
ATOM     15  C   UNL     1       0.677  15.739  18.782  0.00  0.00    +0.000 A 
ATOM     16  C   UNL     1       1.588  14.768  18.539  0.00  0.00    +0.000 A 
ATOM     17  C   UNL     1       1.222  13.530  19.026  0.00  0.00    +0.000 A 
ATOM     18  C   UNL     1       1.907  12.333  18.633  0.00  0.00    +0.000 C 
ATOM     19  O   UNL     1       2.863  12.268  17.900  0.00  0.00    +0.000 OA
ATOM     20  O   UNL     1       0.778  17.008  18.311  0.00  0.00    +0.000 OA
ATOM     21  C   UNL     1      -0.560  17.461  18.549  0.00  0.00    +0.000 C 
ATOM     22  O   UNL     1      -1.298  16.595  19.455  0.00  0.00    +0.000 OA
ENDROOT
BRANCH   1  26
ATOM     23  C   UNL     1       2.988   3.625  18.444  0.00  0.00    +0.000 C 
ATOM     24  C   UNL     1       2.308   4.962  18.201  0.00  0.00    +0.000 C 
ATOM     25  O   UNL     1       1.223   5.041  17.637  0.00  0.00    +0.000 OA
ATOM     26  N   UNL     1       3.031   6.025  18.759  0.00  0.00    +0.000 N 
ATOM     27  H   UNL     1       3.454   5.683  19.617  0.00  0.00    +0.000 HD
ENDBRANCH   1  26
BRANCH   7  28
ATOM     28  C   UNL     1      -1.703  11.178  21.592  0.00  0.00    +0.000 C 
BRANCH  28  29
ATOM     29  C   UNL     1      -1.807  11.934  22.926  0.00  0.00    +0.000 C 
BRANCH  29  30
ATOM     30  C   UNL     1      -3.029  12.824  23.085  0.00  0.00    +0.000 C 
ATOM     31 CL   UNL     1      -4.045  12.320  24.458  0.00  0.00    +0.000 Cl
ENDBRANCH  29  30
ENDBRANCH  28  29
ENDBRANCH   7  28
TORSDOF 4
ENDMDL
MODEL 2
REMARK VINA RESULT:      -7.3      1.051      1.093
REMARK  Name = 
REMARK  5 active torsions:
REMARK  status: ('A' for Active; 'I' for Inactive)
REMARK    1  A    between atoms: C_1  and  C_2
REMARK    2  A    between atoms: N_4  and  C_5
REMARK    3  A    between atoms: N_11  and  C_12
REMARK    4  A    between atoms: C_12  and  C_13
REMARK    5  A    between atoms: C_13  and  C_14
REMARK                            x       y       z     vdW  Elec       q    Type
REMARK                         _______ _______ _______ _____ _____    ______ ____
ROOT
ATOM      1  C   UNL     1       2.013   7.553  20.023  0.00  0.00    +0.000 A 
ATOM      2  C   UNL     1       1.862   8.157  18.780  0.00  0.00    +0.000 A 
ATOM      3  C   UNL     1       1.591   9.502  18.737  0.00  0.00    +0.000 A 
ATOM      4  C   UNL     1       1.125  10.143  19.881  0.00  0.00    +0.000 A 
ATOM      5  C   UNL     1       0.838  11.545  19.854  0.00  0.00    +0.000 A 
ATOM      6  C   UNL     1      -0.104  12.122  20.595  0.00  0.00    +0.000 A 
ATOM      7  N   UNL     1      -0.723  11.376  21.620  0.00  0.00    +0.000 N 
ATOM      8  C   UNL     1      -0.184  10.061  21.981  0.00  0.00    +0.000 A 
ATOM      9  O   UNL     1      -0.611   9.388  22.913  0.00  0.00    +0.000 OA
ATOM     10  C   UNL     1       0.878   9.450  21.051  0.00  0.00    +0.000 A 
ATOM     11  C   UNL     1       1.495   8.185  21.179  0.00  0.00    +0.000 A 
ATOM     12  C   UNL     1      -0.212  13.549  20.127  0.00  0.00    +0.000 A 
ATOM     13  C   UNL     1      -1.103  14.621  20.214  0.00  0.00    +0.000 A 
ATOM     14  C   UNL     1      -0.778  15.790  19.491  0.00  0.00    +0.000 A 
ATOM     15  C   UNL     1       0.398  15.937  18.772  0.00  0.00    +0.000 A 
ATOM     16  C   UNL     1       1.295  14.930  18.654  0.00  0.00    +0.000 A 
ATOM     17  C   UNL     1       0.914  13.770  19.299  0.00  0.00    +0.000 A 
ATOM     18  C   UNL     1       1.581  12.523  19.062  0.00  0.00    +0.000 C 
ATOM     19  O   UNL     1       2.533  12.350  18.341  0.00  0.00    +0.000 OA
ATOM     20  O   UNL     1       0.514  17.132  18.140  0.00  0.00    +0.000 OA
ATOM     21  C   UNL     1      -0.816  17.632  18.321  0.00  0.00    +0.000 C 
ATOM     22  O   UNL     1      -1.561  16.901  19.335  0.00  0.00    +0.000 OA
ENDROOT
BRANCH   1  26
ATOM     23  C   UNL     1       2.755   3.940  20.645  0.00  0.00    +0.000 C 
ATOM     24  C   UNL     1       1.869   5.136  20.341  0.00  0.00    +0.000 C 
ATOM     25  O   UNL     1       0.650   5.083  20.458  0.00  0.00    +0.000 OA
ATOM     26  N   UNL     1       2.620   6.270  20.002  0.00  0.00    +0.000 N 
ATOM     27  H   UNL     1       3.471   6.244  20.556  0.00  0.00    +0.000 HD
ENDBRANCH   1  26
BRANCH   7  28
ATOM     28  C   UNL     1      -2.029  11.813  22.157  0.00  0.00    +0.000 C 
BRANCH  28  29
ATOM     29  C   UNL     1      -2.115  12.761  23.364  0.00  0.00    +0.000 C 
BRANCH  29  30
ATOM     30  C   UNL     1      -3.489  13.348  23.644  0.00  0.00    +0.000 C 
ATOM     31 CL   UNL     1      -4.398  12.376  24.828  0.00  0.00    +0.000 Cl
ENDBRANCH  29  30
ENDBRANCH  28  29
ENDBRANCH   7  28
TORSDOF 4
ENDMDL
MODEL 3
REMARK VINA RESULT:      -7.3      2.380      4.394
REMARK  Name = 
REMARK  5 active torsions:
REMARK  status: ('A' for Active; 'I' for Inactive)
REMARK    1  A    between atoms: C_1  and  C_2
REMARK    2  A    between atoms: N_4  and  C_5
REMARK    3  A    between atoms: N_11  and  C_12
REMARK    4  A    between atoms: C_12  and  C_13
REMARK    5  A    between atoms: C_13  and  C_14
REMARK                            x       y       z     vdW  Elec       q    Type
REMARK                         _______ _______ _______ _____ _____    ______ ____
ROOT
ATOM      1  C   UNL     1       2.469   6.117  19.011  0.00  0.00    +0.000 A 
ATOM      2  C   UNL     1       2.397   6.251  20.393  0.00  0.00    +0.000 A 
ATOM      3  C   UNL     1       1.713   7.323  20.910  0.00  0.00    +0.000 A 
ATOM      4  C   UNL     1       1.429   8.412  20.092  0.00  0.00    +0.000 A 
ATOM      5  C   UNL     1       0.717   9.538  20.614  0.00  0.00    +0.000 A 
ATOM      6  C   UNL     1       0.893  10.787  20.191  0.00  0.00    +0.000 A 
ATOM      7  N   UNL     1       1.658  11.015  19.028  0.00  0.00    +0.000 N 
ATOM      8  C   UNL     1       2.071   9.877  18.201  0.00  0.00    +0.000 A 
ATOM      9  O   UNL     1       2.664   9.996  17.134  0.00  0.00    +0.000 OA
ATOM     10  C   UNL     1       1.862   8.467  18.780  0.00  0.00    +0.000 A 
ATOM     11  C   UNL     1       2.226   7.239  18.183  0.00  0.00    +0.000 A 
ATOM     12  C   UNL     1       0.111  11.676  21.121  0.00  0.00    +0.000 A 
ATOM     13  C   UNL     1       0.037  13.025  21.473  0.00  0.00    +0.000 A 
ATOM     14  C   UNL     1      -0.846  13.370  22.520  0.00  0.00    +0.000 A 
ATOM     15  C   UNL     1      -1.676  12.455  23.149  0.00  0.00    +0.000 A 
ATOM     16  C   UNL     1      -1.644  11.136  22.846  0.00  0.00    +0.000 A 
ATOM     17  C   UNL     1      -0.713  10.811  21.880  0.00  0.00    +0.000 A 
ATOM     18  C   UNL     1      -0.334   9.452  21.627  0.00  0.00    +0.000 C 
ATOM     19  O   UNL     1      -0.787   8.473  22.168  0.00  0.00    +0.000 OA
ATOM     20  O   UNL     1      -2.440  12.987  24.136  0.00  0.00    +0.000 OA
ATOM     21  C   UNL     1      -1.831  14.280  24.242  0.00  0.00    +0.000 C 
ATOM     22  O   UNL     1      -0.982  14.600  23.105  0.00  0.00    +0.000 OA
ENDROOT
BRANCH   1  26
ATOM     23  C   UNL     1       2.442   2.593  17.758  0.00  0.00    +0.000 C 
ATOM     24  C   UNL     1       1.985   4.040  17.821  0.00  0.00    +0.000 C 
ATOM     25  O   UNL     1       0.920   4.403  17.334  0.00  0.00    +0.000 OA
ATOM     26  N   UNL     1       2.878   4.839  18.548  0.00  0.00    +0.000 N 
ATOM     27  H   UNL     1       3.251   4.266  19.300  0.00  0.00    +0.000 HD
ENDBRANCH   1  26
BRANCH   7  28
ATOM     28  C   UNL     1       2.228  12.356  18.777  0.00  0.00    +0.000 C 
BRANCH  28  29
ATOM     29  C   UNL     1       1.350  13.511  18.268  0.00  0.00    +0.000 C 
BRANCH  29  30
ATOM     30  C   UNL     1       1.775  14.903  18.706  0.00  0.00    +0.000 C 
ATOM     31 CL   UNL     1       0.378  15.985  18.928  0.00  0.00    +0.000 Cl
ENDBRANCH  29  30
ENDBRANCH  28  29
ENDBRANCH   7  28
TORSDOF 4
ENDMDL
MODEL 4
REMARK VINA RESULT:      -7.2      3.042      8.417
REMARK  Name = 
REMARK  5 active torsions:
REMARK  status: ('A' for Active; 'I' for Inactive)
REMARK    1  A    between atoms: C_1  and  C_2
REMARK    2  A    between atoms: N_4  and  C_5
REMARK    3  A    between atoms: N_11  and  C_12
REMARK    4  A    between atoms: C_12  and  C_13
REMARK    5  A    between atoms: C_13  and  C_14
REMARK                            x       y       z     vdW  Elec       q    Type
REMARK                         _______ _______ _______ _____ _____    ______ ____
ROOT
ATOM      1  C   UNL     1      -2.509  14.128  23.684  0.00  0.00    +0.000 A 
ATOM      2  C   UNL     1      -2.996  12.835  23.535  0.00  0.00    +0.000 A 
ATOM      3  C   UNL     1      -2.189  11.898  22.940  0.00  0.00    +0.000 A 
ATOM      4  C   UNL     1      -1.091  12.315  22.194  0.00  0.00    +0.000 A 
ATOM      5  C   UNL     1      -0.238  11.352  21.568  0.00  0.00    +0.000 A 
ATOM      6  C   UNL     1       0.414  11.570  20.429  0.00  0.00    +0.000 A 
ATOM      7  N   UNL     1       0.454  12.877  19.901  0.00  0.00    +0.000 N 
ATOM      8  C   UNL     1      -0.043  13.996  20.708  0.00  0.00    +0.000 A 
ATOM      9  O   UNL     1       0.033  15.169  20.357  0.00  0.00    +0.000 OA
ATOM     10  C   UNL     1      -0.817  13.655  21.993  0.00  0.00    +0.000 A 
ATOM     11  C   UNL     1      -1.421  14.565  22.889  0.00  0.00    +0.000 A 
ATOM     12  C   UNL     1       1.027  10.256  20.020  0.00  0.00    +0.000 A 
ATOM     13  C   UNL     1       1.577   9.659  18.884  0.00  0.00    +0.000 A 
ATOM     14  C   UNL     1       1.953   8.302  18.987  0.00  0.00    +0.000 A 
ATOM     15  C   UNL     1       1.867   7.576  20.164  0.00  0.00    +0.000 A 
ATOM     16  C   UNL     1       1.342   8.105  21.294  0.00  0.00    +0.000 A 
ATOM     17  C   UNL     1       0.903   9.405  21.145  0.00  0.00    +0.000 A 
ATOM     18  C   UNL     1       0.073  10.038  22.128  0.00  0.00    +0.000 C 
ATOM     19  O   UNL     1      -0.291   9.552  23.171  0.00  0.00    +0.000 OA
ATOM     20  O   UNL     1       2.269   6.285  20.049  0.00  0.00    +0.000 OA
ATOM     21  C   UNL     1       2.381   6.193  18.623  0.00  0.00    +0.000 C 
ATOM     22  O   UNL     1       2.391   7.494  17.973  0.00  0.00    +0.000 OA
ENDROOT
BRANCH   1  26
ATOM     23  C   UNL     1      -4.555  16.891  25.156  0.00  0.00    +0.000 C 
ATOM     24  C   UNL     1      -4.185  15.851  24.112  0.00  0.00    +0.000 C 
ATOM     25  O   UNL     1      -4.645  15.884  22.977  0.00  0.00    +0.000 OA
ATOM     26  N   UNL     1      -3.230  14.945  24.593  0.00  0.00    +0.000 N 
ATOM     27  H   UNL     1      -2.611  15.460  25.212  0.00  0.00    +0.000 HD
ENDBRANCH   1  26
BRANCH   7  28
ATOM     28  C   UNL     1       0.776  13.081  18.473  0.00  0.00    +0.000 C 
BRANCH  28  29
ATOM     29  C   UNL     1       2.232  13.217  17.997  0.00  0.00    +0.000 C 
BRANCH  29  30
ATOM     30  C   UNL     1       3.020  14.363  18.609  0.00  0.00    +0.000 C 
ATOM     31 CL   UNL     1       3.573  15.523  17.376  0.00  0.00    +0.000 Cl
ENDBRANCH  29  30
ENDBRANCH  28  29
ENDBRANCH   7  28
TORSDOF 4
ENDMDL
MODEL 5
REMARK VINA RESULT:      -7.2      2.479      4.412
REMARK  Name = 
REMARK  5 active torsions:
REMARK  status: ('A' for Active; 'I' for Inactive)
REMARK    1  A    between atoms: C_1  and  C_2
REMARK    2  A    between atoms: N_4  and  C_5
REMARK    3  A    between atoms: N_11  and  C_12
REMARK    4  A    between atoms: C_12  and  C_13
REMARK    5  A    between atoms: C_13  and  C_14
REMARK                            x       y       z     vdW  Elec       q    Type
REMARK                         _______ _______ _______ _____ _____    ______ ____
ROOT
ATOM      1  C   UNL     1       2.296   6.602  18.852  0.00  0.00    +0.000 A 
ATOM      2  C   UNL     1       2.243   6.680  20.239  0.00  0.00    +0.000 A 
ATOM      3  C   UNL     1       1.595   7.748  20.808  0.00  0.00    +0.000 A 
ATOM      4  C   UNL     1       1.332   8.878  20.039  0.00  0.00    +0.000 A 
ATOM      5  C   UNL     1       0.657  10.000  20.616  0.00  0.00    +0.000 A 
ATOM      6  C   UNL     1       0.864  11.260  20.243  0.00  0.00    +0.000 A 
ATOM      7  N   UNL     1       1.622  11.516  19.081  0.00  0.00    +0.000 N 
ATOM      8  C   UNL     1       1.994  10.403  18.204  0.00  0.00    +0.000 A 
ATOM      9  O   UNL     1       2.578  10.550  17.135  0.00  0.00    +0.000 OA
ATOM     10  C   UNL     1       1.753   8.976  18.726  0.00  0.00    +0.000 A 
ATOM     11  C   UNL     1       2.076   7.765  18.073  0.00  0.00    +0.000 A 
ATOM     12  C   UNL     1       0.116  12.131  21.219  0.00  0.00    +0.000 A 
ATOM     13  C   UNL     1       0.083  13.465  21.627  0.00  0.00    +0.000 A 
ATOM     14  C   UNL     1      -0.778  13.790  22.698  0.00  0.00    +0.000 A 
ATOM     15  C   UNL     1      -1.626  12.872  23.298  0.00  0.00    +0.000 A 
ATOM     16  C   UNL     1      -1.634  11.567  22.941  0.00  0.00    +0.000 A 
ATOM     17  C   UNL     1      -0.723  11.257  21.951  0.00  0.00    +0.000 A 
ATOM     18  C   UNL     1      -0.384   9.900  21.637  0.00  0.00    +0.000 C 
ATOM     19  O   UNL     1      -0.859   8.912  22.142  0.00  0.00    +0.000 OA
ATOM     20  O   UNL     1      -2.364  13.383  24.316  0.00  0.00    +0.000 OA
ATOM     21  C   UNL     1      -1.719  14.653  24.469  0.00  0.00    +0.000 C 
ATOM     22  O   UNL     1      -0.874  14.998  23.336  0.00  0.00    +0.000 OA
ENDROOT
BRANCH   1  26
ATOM     23  C   UNL     1       4.093   3.869  17.039  0.00  0.00    +0.000 C 
ATOM     24  C   UNL     1       3.983   5.108  17.911  0.00  0.00    +0.000 C 
ATOM     25  O   UNL     1       4.949   5.827  18.137  0.00  0.00    +0.000 OA
ATOM     26  N   UNL     1       2.665   5.334  18.331  0.00  0.00    +0.000 N 
ATOM     27  H   UNL     1       2.053   5.044  17.574  0.00  0.00    +0.000 HD
ENDBRANCH   1  26
BRANCH   7  28
ATOM     28  C   UNL     1       2.226  12.850  18.880  0.00  0.00    +0.000 C 
BRANCH  28  29
ATOM     29  C   UNL     1       1.444  13.981  18.192  0.00  0.00    +0.000 C 
BRANCH  29  30
ATOM     30  C   UNL     1       1.559  15.351  18.842  0.00  0.00    +0.000 C 
ATOM     31 CL   UNL     1       0.115  16.350  18.545  0.00  0.00    +0.000 Cl
ENDBRANCH  29  30
ENDBRANCH  28  29
ENDBRANCH   7  28
TORSDOF 4
ENDMDL
MODEL 6
REMARK VINA RESULT:      -7.2      3.413      4.715
REMARK  Name = 
REMARK  5 active torsions:
REMARK  status: ('A' for Active; 'I' for Inactive)
REMARK    1  A    between atoms: C_1  and  C_2
REMARK    2  A    between atoms: N_4  and  C_5
REMARK    3  A    between atoms: N_11  and  C_12
REMARK    4  A    between atoms: C_12  and  C_13
REMARK    5  A    between atoms: C_13  and  C_14
REMARK                            x       y       z     vdW  Elec       q    Type
REMARK                         _______ _______ _______ _____ _____    ______ ____
ROOT
ATOM      1  C   UNL     1       1.139   9.583  17.968  0.00  0.00    +0.000 A 
ATOM      2  C   UNL     1       1.528  10.771  18.577  0.00  0.00    +0.000 A 
ATOM      3  C   UNL     1       0.616  11.429  19.364  0.00  0.00    +0.000 A 
ATOM      4  C   UNL     1      -0.735  11.117  19.253  0.00  0.00    +0.000 A 
ATOM      5  C   UNL     1      -1.700  11.792  20.066  0.00  0.00    +0.000 A 
ATOM      6  C   UNL     1      -2.950  12.037  19.683  0.00  0.00    +0.000 A 
ATOM      7  N   UNL     1      -3.440  11.425  18.510  0.00  0.00    +0.000 N 
ATOM      8  C   UNL     1      -2.642  10.387  17.852  0.00  0.00    +0.000 A 
ATOM      9  O   UNL     1      -3.032   9.750  16.879  0.00  0.00    +0.000 OA
ATOM     10  C   UNL     1      -1.194  10.193  18.332  0.00  0.00    +0.000 A 
ATOM     11  C   UNL     1      -0.238   9.291  17.813  0.00  0.00    +0.000 A 
ATOM     12  C   UNL     1      -3.561  12.928  20.733  0.00  0.00    +0.000 A 
ATOM     13  C   UNL     1      -4.659  13.776  20.884  0.00  0.00    +0.000 A 
ATOM     14  C   UNL     1      -4.755  14.497  22.095  0.00  0.00    +0.000 A 
ATOM     15  C   UNL     1      -3.861  14.344  23.144  0.00  0.00    +0.000 A 
ATOM     16  C   UNL     1      -2.780  13.536  23.051  0.00  0.00    +0.000 A 
ATOM     17  C   UNL     1      -2.662  12.908  21.827  0.00  0.00    +0.000 A 
ATOM     18  C   UNL     1      -1.454  12.242  21.435  0.00  0.00    +0.000 C 
ATOM     19  O   UNL     1      -0.459  12.118  22.108  0.00  0.00    +0.000 OA
ATOM     20  O   UNL     1      -4.124  15.136  24.215  0.00  0.00    +0.000 OA
ATOM     21  C   UNL     1      -5.124  15.989  23.645  0.00  0.00    +0.000 C 
ATOM     22  O   UNL     1      -5.669  15.468  22.401  0.00  0.00    +0.000 OA
ENDROOT
BRANCH   1  26
ATOM     23  C   UNL     1       4.047   7.245  17.721  0.00  0.00    +0.000 C 
ATOM     24  C   UNL     1       2.692   7.716  18.221  0.00  0.00    +0.000 C 
ATOM     25  O   UNL     1       2.165   7.229  19.214  0.00  0.00    +0.000 OA
ATOM     26  N   UNL     1       2.200   8.787  17.463  0.00  0.00    +0.000 N 
ATOM     27  H   UNL     1       2.998   9.352  17.186  0.00  0.00    +0.000 HD
ENDBRANCH   1  26
BRANCH   7  28
ATOM     28  C   UNL     1      -4.626  11.988  17.832  0.00  0.00    +0.000 C 
BRANCH  28  29
ATOM     29  C   UNL     1      -5.986  11.273  17.885  0.00  0.00    +0.000 C 
BRANCH  29  30
ATOM     30  C   UNL     1      -7.055  11.951  18.727  0.00  0.00    +0.000 C 
ATOM     31 CL   UNL     1      -7.241  11.172  20.317  0.00  0.00    +0.000 Cl
ENDBRANCH  29  30
ENDBRANCH  28  29
ENDBRANCH   7  28
TORSDOF 4
ENDMDL
MODEL 7
REMARK VINA RESULT:      -7.1      1.900      2.064
REMARK  Name = 
REMARK  5 active torsions:
REMARK  status: ('A' for Active; 'I' for Inactive)
REMARK    1  A    between atoms: C_1  and  C_2
REMARK    2  A    between atoms: N_4  and  C_5
REMARK    3  A    between atoms: N_11  and  C_12
REMARK    4  A    between atoms: C_12  and  C_13
REMARK    5  A    between atoms: C_13  and  C_14
REMARK                            x       y       z     vdW  Elec       q    Type
REMARK                         _______ _______ _______ _____ _____    ______ ____
ROOT
ATOM      1  C   UNL     1       2.002   7.877  18.934  0.00  0.00    +0.000 A 
ATOM      2  C   UNL     1       2.094   8.609  17.755  0.00  0.00    +0.000 A 
ATOM      3  C   UNL     1       2.017   9.977  17.829  0.00  0.00    +0.000 A 
ATOM      4  C   UNL     1       1.502  10.572  18.976  0.00  0.00    +0.000 A 
ATOM      5  C   UNL     1       1.415  11.997  19.071  0.00  0.00    +0.000 A 
ATOM      6  C   UNL     1       0.474  12.638  19.760  0.00  0.00    +0.000 A 
ATOM      7  N   UNL     1      -0.366  11.902  20.622  0.00  0.00    +0.000 N 
ATOM      8  C   UNL     1      -0.061  10.494  20.895  0.00  0.00    +0.000 A 
ATOM      9  O   UNL     1      -0.691   9.809  21.695  0.00  0.00    +0.000 OA
ATOM     10  C   UNL     1       1.016   9.819  20.030  0.00  0.00    +0.000 A 
ATOM     11  C   UNL     1       1.433   8.470  20.087  0.00  0.00    +0.000 A 
ATOM     12  C   UNL     1       0.622  14.102  19.441  0.00  0.00    +0.000 A 
ATOM     13  C   UNL     1      -0.117  15.282  19.545  0.00  0.00    +0.000 A 
ATOM     14  C   UNL     1       0.453  16.451  18.995  0.00  0.00    +0.000 A 
ATOM     15  C   UNL     1       1.720  16.487  18.432  0.00  0.00    +0.000 A 
ATOM     16  C   UNL     1       2.478  15.373  18.306  0.00  0.00    +0.000 A 
ATOM     17  C   UNL     1       1.864  14.229  18.774  0.00  0.00    +0.000 A 
ATOM     18  C   UNL     1       2.379  12.923  18.479  0.00  0.00    +0.000 C 
ATOM     19  O   UNL     1       3.381  12.678  17.854  0.00  0.00    +0.000 OA
ATOM     20  O   UNL     1       2.077  17.705  17.951  0.00  0.00    +0.000 OA
ATOM     21  C   UNL     1       0.815  18.378  18.036  0.00  0.00    +0.000 C 
ATOM     22  O   UNL     1      -0.144  17.676  18.874  0.00  0.00    +0.000 OA
ENDROOT
BRANCH   1  26
ATOM     23  C   UNL     1       3.640   4.716  17.787  0.00  0.00    +0.000 C 
ATOM     24  C   UNL     1       3.570   6.201  18.100  0.00  0.00    +0.000 C 
ATOM     25  O   UNL     1       4.406   6.990  17.676  0.00  0.00    +0.000 OA
ATOM     26  N   UNL     1       2.425   6.525  18.841  0.00  0.00    +0.000 N 
ATOM     27  H   UNL     1       1.678   5.916  18.522  0.00  0.00    +0.000 HD
ENDBRANCH   1  26
BRANCH   7  28
ATOM     28  C   UNL     1      -1.657  12.477  21.054  0.00  0.00    +0.000 C 
BRANCH  28  29
ATOM     29  C   UNL     1      -2.787  12.741  20.046  0.00  0.00    +0.000 C 
BRANCH  29  30
ATOM     30  C   UNL     1      -3.059  11.622  19.054  0.00  0.00    +0.000 C 
ATOM     31 CL   UNL     1      -2.043  11.763  17.598  0.00  0.00    +0.000 Cl
ENDBRANCH  29  30
ENDBRANCH  28  29
ENDBRANCH   7  28
TORSDOF 4
ENDMDL
MODEL 8
REMARK VINA RESULT:      -7.0      3.550      5.122
REMARK  Name = 
REMARK  5 active torsions:
REMARK  status: ('A' for Active; 'I' for Inactive)
REMARK    1  A    between atoms: C_1  and  C_2
REMARK    2  A    between atoms: N_4  and  C_5
REMARK    3  A    between atoms: N_11  and  C_12
REMARK    4  A    between atoms: C_12  and  C_13
REMARK    5  A    between atoms: C_13  and  C_14
REMARK                            x       y       z     vdW  Elec       q    Type
REMARK                         _______ _______ _______ _____ _____    ______ ____
ROOT
ATOM      1  C   UNL     1       0.372  10.247  18.300  0.00  0.00    +0.000 A 
ATOM      2  C   UNL     1       0.903  11.399  18.870  0.00  0.00    +0.000 A 
ATOM      3  C   UNL     1       0.142  12.085  19.783  0.00  0.00    +0.000 A 
ATOM      4  C   UNL     1      -1.227  11.845  19.851  0.00  0.00    +0.000 A 
ATOM      5  C   UNL     1      -2.035  12.551  20.798  0.00  0.00    +0.000 A 
ATOM      6  C   UNL     1      -3.311  12.868  20.591  0.00  0.00    +0.000 A 
ATOM      7  N   UNL     1      -3.986  12.309  19.486  0.00  0.00    +0.000 N 
ATOM      8  C   UNL     1      -3.341  11.246  18.709  0.00  0.00    +0.000 A 
ATOM      9  O   UNL     1      -3.892  10.652  17.788  0.00  0.00    +0.000 OA
ATOM     10  C   UNL     1      -1.854  10.967  18.987  0.00  0.00    +0.000 A 
ATOM     11  C   UNL     1      -1.027  10.029  18.329  0.00  0.00    +0.000 A 
ATOM     12  C   UNL     1      -3.726  13.765  21.728  0.00  0.00    +0.000 A 
ATOM     13  C   UNL     1      -4.746  14.665  22.039  0.00  0.00    +0.000 A 
ATOM     14  C   UNL     1      -4.640  15.362  23.263  0.00  0.00    +0.000 A 
ATOM     15  C   UNL     1      -3.623  15.140  24.179  0.00  0.00    +0.000 A 
ATOM     16  C   UNL     1      -2.610  14.279  23.927  0.00  0.00    +0.000 A 
ATOM     17  C   UNL     1      -2.691  13.674  22.689  0.00  0.00    +0.000 A 
ATOM     18  C   UNL     1      -1.584  12.956  22.128  0.00  0.00    +0.000 C 
ATOM     19  O   UNL     1      -0.516  12.766  22.657  0.00  0.00    +0.000 OA
ATOM     20  O   UNL     1      -3.697  15.920  25.287  0.00  0.00    +0.000 OA
ATOM     21  C   UNL     1      -4.717  16.836  24.871  0.00  0.00    +0.000 C 
ATOM     22  O   UNL     1      -5.452  16.371  23.705  0.00  0.00    +0.000 OA
ENDROOT
BRANCH   1  26
ATOM     23  C   UNL     1       3.252   7.963  17.608  0.00  0.00    +0.000 C 
ATOM     24  C   UNL     1       2.048   8.472  18.382  0.00  0.00    +0.000 C 
ATOM     25  O   UNL     1       1.828   8.125  19.536  0.00  0.00    +0.000 OA
ATOM     26  N   UNL     1       1.312   9.409  17.644  0.00  0.00    +0.000 N 
ATOM     27  H   UNL     1       1.974   9.945  17.091  0.00  0.00    +0.000 HD
ENDBRANCH   1  26
BRANCH   7  28
ATOM     28  C   UNL     1      -5.221  12.947  18.983  0.00  0.00    +0.000 C 
BRANCH  28  29
ATOM     29  C   UNL     1      -6.586  12.656  19.628  0.00  0.00    +0.000 C 
BRANCH  29  30
ATOM     30  C   UNL     1      -6.724  11.295  20.291  0.00  0.00    +0.000 C 
ATOM     31 CL   UNL     1      -6.913   9.989  19.094  0.00  0.00    +0.000 Cl
ENDBRANCH  29  30
ENDBRANCH  28  29
ENDBRANCH   7  28
TORSDOF 4
ENDMDL
MODEL 9
REMARK VINA RESULT:      -7.0      1.883      2.031
REMARK  Name = 
REMARK  5 active torsions:
REMARK  status: ('A' for Active; 'I' for Inactive)
REMARK    1  A    between atoms: C_1  and  C_2
REMARK    2  A    between atoms: N_4  and  C_5
REMARK    3  A    between atoms: N_11  and  C_12
REMARK    4  A    between atoms: C_12  and  C_13
REMARK    5  A    between atoms: C_13  and  C_14
REMARK                            x       y       z     vdW  Elec       q    Type
REMARK                         _______ _______ _______ _____ _____    ______ ____
ROOT
ATOM      1  C   UNL     1       2.103   7.900  19.003  0.00  0.00    +0.000 A 
ATOM      2  C   UNL     1       2.197   8.630  17.824  0.00  0.00    +0.000 A 
ATOM      3  C   UNL     1       2.062   9.994  17.888  0.00  0.00    +0.000 A 
ATOM      4  C   UNL     1       1.491  10.573  19.017  0.00  0.00    +0.000 A 
ATOM      5  C   UNL     1       1.343  11.994  19.101  0.00  0.00    +0.000 A 
ATOM      6  C   UNL     1       0.357  12.598  19.760  0.00  0.00    +0.000 A 
ATOM      7  N   UNL     1      -0.475  11.831  20.603  0.00  0.00    +0.000 N 
ATOM      8  C   UNL     1      -0.121  10.439  20.892  0.00  0.00    +0.000 A 
ATOM      9  O   UNL     1      -0.743   9.732  21.678  0.00  0.00    +0.000 OA
ATOM     10  C   UNL     1       1.008   9.805  20.061  0.00  0.00    +0.000 A 
ATOM     11  C   UNL     1       1.478   8.475  20.137  0.00  0.00    +0.000 A 
ATOM     12  C   UNL     1       0.453  14.066  19.437  0.00  0.00    +0.000 A 
ATOM     13  C   UNL     1      -0.337  15.214  19.514  0.00  0.00    +0.000 A 
ATOM     14  C   UNL     1       0.200  16.403  18.973  0.00  0.00    +0.000 A 
ATOM     15  C   UNL     1       1.479  16.489  18.445  0.00  0.00    +0.000 A 
ATOM     16  C   UNL     1       2.286  15.407  18.347  0.00  0.00    +0.000 A 
ATOM     17  C   UNL     1       1.707  14.240  18.804  0.00  0.00    +0.000 A 
ATOM     18  C   UNL     1       2.283  12.956  18.531  0.00  0.00    +0.000 C 
ATOM     19  O   UNL     1       3.312  12.750  17.935  0.00  0.00    +0.000 OA
ATOM     20  O   UNL     1       1.799  17.719  17.968  0.00  0.00    +0.000 OA
ATOM     21  C   UNL     1       0.509  18.339  18.014  0.00  0.00    +0.000 C 
ATOM     22  O   UNL     1      -0.444  17.602  18.829  0.00  0.00    +0.000 OA
ENDROOT
BRANCH   1  26
ATOM     23  C   UNL     1       3.152   4.425  19.903  0.00  0.00    +0.000 C 
ATOM     24  C   UNL     1       2.250   5.647  19.933  0.00  0.00    +0.000 C 
ATOM     25  O   UNL     1       1.391   5.795  20.794  0.00  0.00    +0.000 OA
ATOM     26  N   UNL     1       2.584   6.567  18.930  0.00  0.00    +0.000 N 
ATOM     27  H   UNL     1       3.593   6.535  18.815  0.00  0.00    +0.000 HD
ENDBRANCH   1  26
BRANCH   7  28
ATOM     28  C   UNL     1      -1.800  12.354  20.996  0.00  0.00    +0.000 C 
BRANCH  28  29
ATOM     29  C   UNL     1      -2.874  12.673  19.943  0.00  0.00    +0.000 C 
BRANCH  29  30
ATOM     30  C   UNL     1      -3.142  11.577  18.924  0.00  0.00    +0.000 C 
ATOM     31 CL   UNL     1      -2.106  11.740  17.485  0.00  0.00    +0.000 Cl
ENDBRANCH  29  30
ENDBRANCH  28  29
ENDBRANCH   7  28
TORSDOF 4
ENDMDL
