MODEL 1
REMARK VINA RESULT:      -6.8      0.000      0.000
REMARK  Name = 
REMARK  3 active torsions:
REMARK  status: ('A' for Active; 'I' for Inactive)
REMARK    1  A    between atoms: C_2  and  C_18
REMARK    2  A    between atoms: N_3  and  C_4
REMARK    3  A    between atoms: C_7  and  C_8
REMARK                            x       y       z     vdW  Elec       q    Type
REMARK                         _______ _______ _______ _____ _____    ______ ____
ROOT
ATOM      1  C   UNL     1       0.798   9.355  19.523  0.00  0.00    +0.000 A 
ATOM      2  C   UNL     1       1.235   9.358  18.196  0.00  0.00    +0.000 A 
ATOM      3  C   UNL     1       2.146   8.411  17.739  0.00  0.00    +0.000 A 
ATOM      4  C   UNL     1       2.551   7.363  18.558  0.00  0.00    +0.000 A 
ATOM      5  C   UNL     1       2.135   7.363  19.900  0.00  0.00    +0.000 A 
ATOM      6  C   UNL     1       1.282   8.369  20.384  0.00  0.00    +0.000 A 
ENDROOT
BRANCH   4   7
ATOM      7  C   UNL     1       3.475   6.298  18.085  0.00  0.00    +0.000 C 
ATOM      8  O   UNL     1       4.676   6.572  18.075  0.00  0.00    +0.000 OA
ATOM      9  N   UNL     1       3.001   5.046  17.688  0.00  0.00    +0.000 N 
ATOM     10  C   UNL     1       1.625   4.531  17.752  0.00  0.00    +0.000 C 
ATOM     11  C   UNL     1       1.560   3.125  18.351  0.00  0.00    +0.000 C 
ATOM     12  O   UNL     1       2.483   2.230  17.719  0.00  0.00    +0.000 OA
ATOM     13  C   UNL     1       3.823   2.735  17.829  0.00  0.00    +0.000 C 
ATOM     14  C   UNL     1       3.949   4.085  17.117  0.00  0.00    +0.000 C 
ENDBRANCH   4   7
BRANCH   1  17
ATOM     15  O   UNL     1       1.457  11.676  21.173  0.00  0.00    +0.000 OA
ATOM     16  C   UNL     1       0.314  11.375  20.866  0.00  0.00    +0.000 C 
ATOM     17  N   UNL     1      -0.069  10.349  20.020  0.00  0.00    +0.000 N 
ATOM     18  H   UNL     1      -1.030  10.314  19.713  0.00  0.00    +0.000 HD
BRANCH  16  19
ATOM     19  C   UNL     1      -0.814  12.192  21.407  0.00  0.00    +0.000 C 
ATOM     20  C   UNL     1      -1.203  12.020  22.863  0.00  0.00    +0.000 C 
ATOM     21  C   UNL     1      -0.512  13.277  22.419  0.00  0.00    +0.000 C 
ENDBRANCH  16  19
ENDBRANCH   1  17
TORSDOF 3
ENDMDL
MODEL 2
REMARK VINA RESULT:      -6.8      1.720      1.866
REMARK  Name = 
REMARK  3 active torsions:
REMARK  status: ('A' for Active; 'I' for Inactive)
REMARK    1  A    between atoms: C_2  and  C_18
REMARK    2  A    between atoms: N_3  and  C_4
REMARK    3  A    between atoms: C_7  and  C_8
REMARK                            x       y       z     vdW  Elec       q    Type
REMARK                         _______ _______ _______ _____ _____    ______ ____
ROOT
ATOM      1  C   UNL     1       1.274   9.299  19.019  0.00  0.00    +0.000 A 
ATOM      2  C   UNL     1       2.004   8.986  17.870  0.00  0.00    +0.000 A 
ATOM      3  C   UNL     1       2.811   7.854  17.821  0.00  0.00    +0.000 A 
ATOM      4  C   UNL     1       2.817   6.940  18.869  0.00  0.00    +0.000 A 
ATOM      5  C   UNL     1       2.105   7.257  20.037  0.00  0.00    +0.000 A 
ATOM      6  C   UNL     1       1.357   8.443  20.119  0.00  0.00    +0.000 A 
ENDROOT
BRANCH   4   7
ATOM      7  C   UNL     1       3.620   5.689  18.825  0.00  0.00    +0.000 C 
ATOM      8  O   UNL     1       4.774   5.756  19.253  0.00  0.00    +0.000 OA
ATOM      9  N   UNL     1       3.083   4.496  18.337  0.00  0.00    +0.000 N 
ATOM     10  C   UNL     1       1.703   4.228  17.905  0.00  0.00    +0.000 C 
ATOM     11  C   UNL     1       1.152   2.930  18.500  0.00  0.00    +0.000 C 
ATOM     12  O   UNL     1       2.043   1.828  18.302  0.00  0.00    +0.000 OA
ATOM     13  C   UNL     1       3.327   2.112  18.882  0.00  0.00    +0.000 C 
ATOM     14  C   UNL     1       3.963   3.331  18.208  0.00  0.00    +0.000 C 
ENDBRANCH   4   7
BRANCH   1  17
ATOM     15  O   UNL     1      -1.266   9.921  17.712  0.00  0.00    +0.000 OA
ATOM     16  C   UNL     1      -0.648  10.724  18.392  0.00  0.00    +0.000 C 
ATOM     17  N   UNL     1       0.508  10.479  19.112  0.00  0.00    +0.000 N 
ATOM     18  H   UNL     1       0.822  11.178  19.769  0.00  0.00    +0.000 HD
BRANCH  16  19
ATOM     19  C   UNL     1      -1.178  12.116  18.519  0.00  0.00    +0.000 C 
ATOM     20  C   UNL     1      -2.204  12.408  19.597  0.00  0.00    +0.000 C 
ATOM     21  C   UNL     1      -0.805  12.933  19.737  0.00  0.00    +0.000 C 
ENDBRANCH  16  19
ENDBRANCH   1  17
TORSDOF 3
ENDMDL
MODEL 3
REMARK VINA RESULT:      -6.8      1.347      1.537
REMARK  Name = 
REMARK  3 active torsions:
REMARK  status: ('A' for Active; 'I' for Inactive)
REMARK    1  A    between atoms: C_2  and  C_18
REMARK    2  A    between atoms: N_3  and  C_4
REMARK    3  A    between atoms: C_7  and  C_8
REMARK                            x       y       z     vdW  Elec       q    Type
REMARK                         _______ _______ _______ _____ _____    ______ ____
ROOT
ATOM      1  C   UNL     1       1.174   9.208  19.659  0.00  0.00    +0.000 A 
ATOM      2  C   UNL     1       1.642   9.253  18.343  0.00  0.00    +0.000 A 
ATOM      3  C   UNL     1       2.461   8.247  17.840  0.00  0.00    +0.000 A 
ATOM      4  C   UNL     1       2.735   7.111  18.592  0.00  0.00    +0.000 A 
ATOM      5  C   UNL     1       2.288   7.066  19.924  0.00  0.00    +0.000 A 
ATOM      6  C   UNL     1       1.532   8.122  20.460  0.00  0.00    +0.000 A 
ENDROOT
BRANCH   4   7
ATOM      7  C   UNL     1       3.555   5.988  18.064  0.00  0.00    +0.000 C 
ATOM      8  O   UNL     1       4.770   6.178  17.988  0.00  0.00    +0.000 OA
ATOM      9  N   UNL     1       2.973   4.775  17.690  0.00  0.00    +0.000 N 
ATOM     10  C   UNL     1       1.570   4.356  17.828  0.00  0.00    +0.000 C 
ATOM     11  C   UNL     1       1.442   2.953  18.424  0.00  0.00    +0.000 C 
ATOM     12  O   UNL     1       2.263   2.002  17.739  0.00  0.00    +0.000 OA
ATOM     13  C   UNL     1       3.640   2.412  17.775  0.00  0.00    +0.000 C 
ATOM     14  C   UNL     1       3.819   3.755  17.063  0.00  0.00    +0.000 C 
ENDBRANCH   4   7
BRANCH   1  17
ATOM     15  O   UNL     1      -1.499  10.094  18.876  0.00  0.00    +0.000 OA
ATOM     16  C   UNL     1      -0.826  10.662  19.722  0.00  0.00    +0.000 C 
ATOM     17  N   UNL     1       0.404  10.253  20.207  0.00  0.00    +0.000 N 
ATOM     18  H   UNL     1       0.774  10.714  21.026  0.00  0.00    +0.000 HD
BRANCH  16  19
ATOM     19  C   UNL     1      -1.362  11.908  20.350  0.00  0.00    +0.000 C 
ATOM     20  C   UNL     1      -1.261  13.210  19.579  0.00  0.00    +0.000 C 
ATOM     21  C   UNL     1      -2.598  12.551  19.759  0.00  0.00    +0.000 C 
ENDBRANCH  16  19
ENDBRANCH   1  17
TORSDOF 3
ENDMDL
MODEL 4
REMARK VINA RESULT:      -6.7      1.812      2.191
REMARK  Name = 
REMARK  3 active torsions:
REMARK  status: ('A' for Active; 'I' for Inactive)
REMARK    1  A    between atoms: C_2  and  C_18
REMARK    2  A    between atoms: N_3  and  C_4
REMARK    3  A    between atoms: C_7  and  C_8
REMARK                            x       y       z     vdW  Elec       q    Type
REMARK                         _______ _______ _______ _____ _____    ______ ____
ROOT
ATOM      1  C   UNL     1       1.367   9.386  18.954  0.00  0.00    +0.000 A 
ATOM      2  C   UNL     1       1.368   8.550  20.074  0.00  0.00    +0.000 A 
ATOM      3  C   UNL     1       2.028   7.326  20.053  0.00  0.00    +0.000 A 
ATOM      4  C   UNL     1       2.805   6.957  18.960  0.00  0.00    +0.000 A 
ATOM      5  C   UNL     1       2.792   7.778  17.821  0.00  0.00    +0.000 A 
ATOM      6  C   UNL     1       2.056   8.975  17.812  0.00  0.00    +0.000 A 
ENDROOT
BRANCH   4   7
ATOM      7  C   UNL     1       3.574   5.683  18.928  0.00  0.00    +0.000 C 
ATOM      8  O   UNL     1       4.725   5.722  19.366  0.00  0.00    +0.000 OA
ATOM      9  N   UNL     1       3.008   4.504  18.440  0.00  0.00    +0.000 N 
ATOM     10  C   UNL     1       1.625   4.271  17.997  0.00  0.00    +0.000 C 
ATOM     11  C   UNL     1       1.034   2.992  18.592  0.00  0.00    +0.000 C 
ATOM     12  O   UNL     1       1.897   1.865  18.405  0.00  0.00    +0.000 OA
ATOM     13  C   UNL     1       3.183   2.117  18.995  0.00  0.00    +0.000 C 
ATOM     14  C   UNL     1       3.857   3.315  18.322  0.00  0.00    +0.000 C 
ENDBRANCH   4   7
BRANCH   1  17
ATOM     15  O   UNL     1      -1.403   9.832  18.131  0.00  0.00    +0.000 OA
ATOM     16  C   UNL     1      -0.645  10.734  18.450  0.00  0.00    +0.000 C 
ATOM     17  N   UNL     1       0.644  10.596  18.934  0.00  0.00    +0.000 N 
ATOM     18  H   UNL     1       1.101  11.408  19.324  0.00  0.00    +0.000 HD
BRANCH  16  19
ATOM     19  C   UNL     1      -1.129  12.146  18.360  0.00  0.00    +0.000 C 
ATOM     20  C   UNL     1      -1.700  12.798  19.604  0.00  0.00    +0.000 C 
ATOM     21  C   UNL     1      -0.361  13.231  19.083  0.00  0.00    +0.000 C 
ENDBRANCH  16  19
ENDBRANCH   1  17
TORSDOF 3
ENDMDL
MODEL 5
REMARK VINA RESULT:      -6.7      0.367      1.135
REMARK  Name = 
REMARK  3 active torsions:
REMARK  status: ('A' for Active; 'I' for Inactive)
REMARK    1  A    between atoms: C_2  and  C_18
REMARK    2  A    between atoms: N_3  and  C_4
REMARK    3  A    between atoms: C_7  and  C_8
REMARK                            x       y       z     vdW  Elec       q    Type
REMARK                         _______ _______ _______ _____ _____    ______ ____
ROOT
ATOM      1  C   UNL     1       0.960   9.231  19.445  0.00  0.00    +0.000 A 
ATOM      2  C   UNL     1       1.371   8.213  20.310  0.00  0.00    +0.000 A 
ATOM      3  C   UNL     1       2.163   7.164  19.855  0.00  0.00    +0.000 A 
ATOM      4  C   UNL     1       2.667   7.165  18.559  0.00  0.00    +0.000 A 
ATOM      5  C   UNL     1       2.242   8.171  17.676  0.00  0.00    +0.000 A 
ATOM      6  C   UNL     1       1.373   9.184  18.112  0.00  0.00    +0.000 A 
ENDROOT
BRANCH   4   7
ATOM      7  C   UNL     1       3.568   6.092  18.058  0.00  0.00    +0.000 C 
ATOM      8  O   UNL     1       4.773   6.349  18.031  0.00  0.00    +0.000 OA
ATOM      9  N   UNL     1       3.068   4.852  17.655  0.00  0.00    +0.000 N 
ATOM     10  C   UNL     1       1.686   4.356  17.736  0.00  0.00    +0.000 C 
ATOM     11  C   UNL     1       1.611   2.944  18.319  0.00  0.00    +0.000 C 
ATOM     12  O   UNL     1       2.509   2.044  17.661  0.00  0.00    +0.000 OA
ATOM     13  C   UNL     1       3.859   2.528  17.754  0.00  0.00    +0.000 C 
ATOM     14  C   UNL     1       3.992   3.884  17.057  0.00  0.00    +0.000 C 
ENDBRANCH   4   7
BRANCH   1  17
ATOM     15  O   UNL     1       1.193  10.925  21.816  0.00  0.00    +0.000 OA
ATOM     16  C   UNL     1       0.239  10.964  21.056  0.00  0.00    +0.000 C 
ATOM     17  N   UNL     1       0.099  10.262  19.872  0.00  0.00    +0.000 N 
ATOM     18  H   UNL     1      -0.657  10.513  19.251  0.00  0.00    +0.000 HD
BRANCH  16  19
ATOM     19  C   UNL     1      -0.900  11.877  21.378  0.00  0.00    +0.000 C 
ATOM     20  C   UNL     1      -1.652  11.669  22.678  0.00  0.00    +0.000 C 
ATOM     21  C   UNL     1      -0.750  12.858  22.521  0.00  0.00    +0.000 C 
ENDBRANCH  16  19
ENDBRANCH   1  17
TORSDOF 3
ENDMDL
MODEL 6
REMARK VINA RESULT:      -6.6      1.371      1.905
REMARK  Name = 
REMARK  3 active torsions:
REMARK  status: ('A' for Active; 'I' for Inactive)
REMARK    1  A    between atoms: C_2  and  C_18
REMARK    2  A    between atoms: N_3  and  C_4
REMARK    3  A    between atoms: C_7  and  C_8
REMARK                            x       y       z     vdW  Elec       q    Type
REMARK                         _______ _______ _______ _____ _____    ______ ____
ROOT
ATOM      1  C   UNL     1       1.232   9.221  19.681  0.00  0.00    +0.000 A 
ATOM      2  C   UNL     1       1.535   8.108  20.470  0.00  0.00    +0.000 A 
ATOM      3  C   UNL     1       2.240   7.029  19.947  0.00  0.00    +0.000 A 
ATOM      4  C   UNL     1       2.767   7.081  18.662  0.00  0.00    +0.000 A 
ATOM      5  C   UNL     1       2.449   8.184  17.852  0.00  0.00    +0.000 A 
ATOM      6  C   UNL     1       1.665   9.236  18.353  0.00  0.00    +0.000 A 
ENDROOT
BRANCH   4   7
ATOM      7  C   UNL     1       3.578   5.972  18.091  0.00  0.00    +0.000 C 
ATOM      8  O   UNL     1       4.791   6.164  18.000  0.00  0.00    +0.000 OA
ATOM      9  N   UNL     1       2.990   4.769  17.697  0.00  0.00    +0.000 N 
ATOM     10  C   UNL     1       1.589   4.346  17.848  0.00  0.00    +0.000 C 
ATOM     11  C   UNL     1       1.470   2.928  18.411  0.00  0.00    +0.000 C 
ATOM     12  O   UNL     1       2.279   1.995  17.688  0.00  0.00    +0.000 OA
ATOM     13  C   UNL     1       3.657   2.404  17.712  0.00  0.00    +0.000 C 
ATOM     14  C   UNL     1       3.824   3.765  17.031  0.00  0.00    +0.000 C 
ENDBRANCH   4   7
BRANCH   1  17
ATOM     15  O   UNL     1      -1.489   9.986  18.934  0.00  0.00    +0.000 OA
ATOM     16  C   UNL     1      -0.798  10.633  19.705  0.00  0.00    +0.000 C 
ATOM     17  N   UNL     1       0.458  10.290  20.173  0.00  0.00    +0.000 N 
ATOM     18  H   UNL     1       0.848  10.824  20.937  0.00  0.00    +0.000 HD
BRANCH  16  19
ATOM     19  C   UNL     1      -1.339  11.915  20.251  0.00  0.00    +0.000 C 
ATOM     20  C   UNL     1      -1.268  13.160  19.388  0.00  0.00    +0.000 C 
ATOM     21  C   UNL     1      -2.593  12.500  19.638  0.00  0.00    +0.000 C 
ENDBRANCH  16  19
ENDBRANCH   1  17
TORSDOF 3
ENDMDL
MODEL 7
REMARK VINA RESULT:      -6.5      2.209      3.426
REMARK  Name = 
REMARK  3 active torsions:
REMARK  status: ('A' for Active; 'I' for Inactive)
REMARK    1  A    between atoms: C_2  and  C_18
REMARK    2  A    between atoms: N_3  and  C_4
REMARK    3  A    between atoms: C_7  and  C_8
REMARK                            x       y       z     vdW  Elec       q    Type
REMARK                         _______ _______ _______ _____ _____    ______ ____
ROOT
ATOM      1  C   UNL     1       1.987   7.174  20.319  0.00  0.00    +0.000 A 
ATOM      2  C   UNL     1       2.016   5.798  20.562  0.00  0.00    +0.000 A 
ATOM      3  C   UNL     1       2.474   4.909  19.595  0.00  0.00    +0.000 A 
ATOM      4  C   UNL     1       3.028   5.375  18.408  0.00  0.00    +0.000 A 
ATOM      5  C   UNL     1       2.984   6.754  18.144  0.00  0.00    +0.000 A 
ATOM      6  C   UNL     1       2.443   7.645  19.086  0.00  0.00    +0.000 A 
ENDROOT
BRANCH   4   7
ATOM      7  C   UNL     1       3.584   4.456  17.379  0.00  0.00    +0.000 C 
ATOM      8  O   UNL     1       2.777   3.744  16.779  0.00  0.00    +0.000 OA
ATOM      9  N   UNL     1       4.951   4.420  17.097  0.00  0.00    +0.000 N 
ATOM     10  C   UNL     1       6.016   5.280  17.636  0.00  0.00    +0.000 C 
ATOM     11  C   UNL     1       6.941   5.811  16.539  0.00  0.00    +0.000 C 
ATOM     12  O   UNL     1       7.420   4.765  15.688  0.00  0.00    +0.000 OA
ATOM     13  C   UNL     1       6.318   4.066  15.086  0.00  0.00    +0.000 C 
ATOM     14  C   UNL     1       5.448   3.408  16.161  0.00  0.00    +0.000 C 
ENDBRANCH   4   7
BRANCH   1  17
ATOM     15  O   UNL     1       0.355   9.549  19.830  0.00  0.00    +0.000 OA
ATOM     16  C   UNL     1       0.762   9.232  20.936  0.00  0.00    +0.000 C 
ATOM     17  N   UNL     1       1.460   8.082  21.259  0.00  0.00    +0.000 N 
ATOM     18  H   UNL     1       1.587   7.856  22.235  0.00  0.00    +0.000 HD
BRANCH  16  19
ATOM     19  C   UNL     1       0.468  10.130  22.095  0.00  0.00    +0.000 C 
ATOM     20  C   UNL     1      -0.974  10.303  22.532  0.00  0.00    +0.000 C 
ATOM     21  C   UNL     1      -0.024   9.517  23.388  0.00  0.00    +0.000 C 
ENDBRANCH  16  19
ENDBRANCH   1  17
TORSDOF 3
ENDMDL
MODEL 8
REMARK VINA RESULT:      -6.5      5.610      6.656
REMARK  Name = 
REMARK  3 active torsions:
REMARK  status: ('A' for Active; 'I' for Inactive)
REMARK    1  A    between atoms: C_2  and  C_18
REMARK    2  A    between atoms: N_3  and  C_4
REMARK    3  A    between atoms: C_7  and  C_8
REMARK                            x       y       z     vdW  Elec       q    Type
REMARK                         _______ _______ _______ _____ _____    ______ ____
ROOT
ATOM      1  C   UNL     1       7.945   7.475  18.376  0.00  0.00    +0.000 A 
ATOM      2  C   UNL     1       7.030   7.676  17.340  0.00  0.00    +0.000 A 
ATOM      3  C   UNL     1       6.233   6.634  16.876  0.00  0.00    +0.000 A 
ATOM      4  C   UNL     1       6.240   5.398  17.512  0.00  0.00    +0.000 A 
ATOM      5  C   UNL     1       7.173   5.178  18.539  0.00  0.00    +0.000 A 
ATOM      6  C   UNL     1       8.038   6.206  18.951  0.00  0.00    +0.000 A 
ENDROOT
BRANCH   4   7
ATOM      7  C   UNL     1       5.357   4.280  17.083  0.00  0.00    +0.000 C 
ATOM      8  O   UNL     1       5.697   3.663  16.072  0.00  0.00    +0.000 OA
ATOM      9  N   UNL     1       4.211   3.940  17.804  0.00  0.00    +0.000 N 
ATOM     10  C   UNL     1       3.739   4.496  19.081  0.00  0.00    +0.000 C 
ATOM     11  C   UNL     1       3.331   3.404  20.072  0.00  0.00    +0.000 C 
ATOM     12  O   UNL     1       2.430   2.458  19.487  0.00  0.00    +0.000 OA
ATOM     13  C   UNL     1       3.025   1.853  18.328  0.00  0.00    +0.000 C 
ATOM     14  C   UNL     1       3.320   2.910  17.261  0.00  0.00    +0.000 C 
ENDBRANCH   4   7
BRANCH   1  17
ATOM     15  O   UNL     1       7.796  10.338  17.802  0.00  0.00    +0.000 OA
ATOM     16  C   UNL     1       8.714   9.826  18.423  0.00  0.00    +0.000 C 
ATOM     17  N   UNL     1       8.810   8.500  18.809  0.00  0.00    +0.000 N 
ATOM     18  H   UNL     1       9.533   8.242  19.465  0.00  0.00    +0.000 HD
BRANCH  16  19
ATOM     19  C   UNL     1       9.853  10.688  18.863  0.00  0.00    +0.000 C 
ATOM     20  C   UNL     1      10.668  11.409  17.807  0.00  0.00    +0.000 C 
ATOM     21  C   UNL     1       9.742  12.188  18.696  0.00  0.00    +0.000 C 
ENDBRANCH  16  19
ENDBRANCH   1  17
TORSDOF 3
ENDMDL
MODEL 9
REMARK VINA RESULT:      -6.5      2.222      3.270
REMARK  Name = 
REMARK  3 active torsions:
REMARK  status: ('A' for Active; 'I' for Inactive)
REMARK    1  A    between atoms: C_2  and  C_18
REMARK    2  A    between atoms: N_3  and  C_4
REMARK    3  A    between atoms: C_7  and  C_8
REMARK                            x       y       z     vdW  Elec       q    Type
REMARK                         _______ _______ _______ _____ _____    ______ ____
ROOT
ATOM      1  C   UNL     1       1.961   7.222  20.256  0.00  0.00    +0.000 A 
ATOM      2  C   UNL     1       2.378   7.680  19.004  0.00  0.00    +0.000 A 
ATOM      3  C   UNL     1       2.970   6.817  18.087  0.00  0.00    +0.000 A 
ATOM      4  C   UNL     1       3.051   5.453  18.345  0.00  0.00    +0.000 A 
ATOM      5  C   UNL     1       2.656   4.986  19.609  0.00  0.00    +0.000 A 
ATOM      6  C   UNL     1       2.136   5.872  20.568  0.00  0.00    +0.000 A 
ENDROOT
BRANCH   4   7
ATOM      7  C   UNL     1       3.621   4.493  17.362  0.00  0.00    +0.000 C 
ATOM      8  O   UNL     1       2.824   3.742  16.797  0.00  0.00    +0.000 OA
ATOM      9  N   UNL     1       4.989   4.460  17.086  0.00  0.00    +0.000 N 
ATOM     10  C   UNL     1       6.041   5.359  17.584  0.00  0.00    +0.000 C 
ATOM     11  C   UNL     1       6.962   5.848  16.464  0.00  0.00    +0.000 C 
ATOM     12  O   UNL     1       7.457   4.767  15.666  0.00  0.00    +0.000 OA
ATOM     13  C   UNL     1       6.365   4.026  15.097  0.00  0.00    +0.000 C 
ATOM     14  C   UNL     1       5.501   3.410  16.201  0.00  0.00    +0.000 C 
ENDBRANCH   4   7
BRANCH   1  17
ATOM     15  O   UNL     1       0.490   9.713  19.835  0.00  0.00    +0.000 OA
ATOM     16  C   UNL     1       0.810   9.302  20.939  0.00  0.00    +0.000 C 
ATOM     17  N   UNL     1       1.425   8.096  21.223  0.00  0.00    +0.000 N 
ATOM     18  H   UNL     1       1.479   7.800  22.187  0.00  0.00    +0.000 HD
BRANCH  16  19
ATOM     19  C   UNL     1       0.492  10.139  22.137  0.00  0.00    +0.000 C 
ATOM     20  C   UNL     1      -0.946  10.211  22.610  0.00  0.00    +0.000 C 
ATOM     21  C   UNL     1       0.067   9.451  23.416  0.00  0.00    +0.000 C 
ENDBRANCH  16  19
ENDBRANCH   1  17
TORSDOF 3
ENDMDL
