MODEL 1
REMARK VINA RESULT:      -7.8      0.000      0.000
REMARK  Name = 
REMARK  3 active torsions:
REMARK  status: ('A' for Active; 'I' for Inactive)
REMARK    1  A    between atoms: C_1  and  N_2
REMARK    2  A    between atoms: C_4  and  C_5
REMARK    3  A    between atoms: C_11  and  C_12
REMARK                            x       y       z     vdW  Elec       q    Type
REMARK                         _______ _______ _______ _____ _____    ______ ____
ROOT
ATOM      1  C   UNL     1       4.580   4.069  18.544  0.00  0.00    +0.000 A 
ATOM      2  C   UNL     1       4.485   2.947  19.343  0.00  0.00    +0.000 A 
ATOM      3  O   UNL     1       3.535   3.112  20.304  0.00  0.00    +0.000 OA
ATOM      4  C   UNL     1       3.014   4.353  20.120  0.00  0.00    +0.000 A 
ATOM      5  C   UNL     1       2.016   4.948  20.875  0.00  0.00    +0.000 A 
ATOM      6  C   UNL     1       1.666   6.238  20.474  0.00  0.00    +0.000 A 
ATOM      7  C   UNL     1       2.308   6.840  19.386  0.00  0.00    +0.000 A 
ATOM      8  N   UNL     1       3.284   6.246  18.652  0.00  0.00    +0.000 NA
ATOM      9  C   UNL     1       3.622   4.990  19.045  0.00  0.00    +0.000 A 
ENDROOT
BRANCH   1  13
ATOM     10  C   UNL     1       6.637   4.350  14.017  0.00  0.00    +0.000 C 
ATOM     11  N   UNL     1       6.396   4.400  15.439  0.00  0.00    +0.000 N 
ATOM     12  C   UNL     1       5.220   4.137  16.080  0.00  0.00    +0.000 A 
ATOM     13  C   UNL     1       5.486   4.267  17.425  0.00  0.00    +0.000 A 
ATOM     14  C   UNL     1       6.847   4.628  17.486  0.00  0.00    +0.000 A 
ATOM     15  N   UNL     1       7.405   4.710  16.273  0.00  0.00    +0.000 NA
ENDBRANCH   1  13
BRANCH   7  16
ATOM     16  C   UNL     1       1.950   8.193  18.979  0.00  0.00    +0.000 A 
ATOM     17  C   UNL     1       1.240   9.218  19.647  0.00  0.00    +0.000 A 
ATOM     18  N   UNL     1       1.129  10.334  18.923  0.00  0.00    +0.000 NA
ATOM     19  N   UNL     1       1.772  10.032  17.783  0.00  0.00    +0.000 N 
ATOM     20  C   UNL     1       2.277   8.766  17.765  0.00  0.00    +0.000 A 
ATOM     21  H   UNL     1       1.829  10.741  17.059  0.00  0.00    +0.000 HD
ENDBRANCH   7  16
TORSDOF 2
ENDMDL
MODEL 2
REMARK VINA RESULT:      -7.2      1.021      5.946
REMARK  Name = 
REMARK  3 active torsions:
REMARK  status: ('A' for Active; 'I' for Inactive)
REMARK    1  A    between atoms: C_1  and  N_2
REMARK    2  A    between atoms: C_4  and  C_5
REMARK    3  A    between atoms: C_11  and  C_12
REMARK                            x       y       z     vdW  Elec       q    Type
REMARK                         _______ _______ _______ _____ _____    ______ ____
ROOT
ATOM      1  C   UNL     1       2.404   6.655  19.516  0.00  0.00    +0.000 A 
ATOM      2  C   UNL     1       1.853   6.023  20.612  0.00  0.00    +0.000 A 
ATOM      3  O   UNL     1       2.384   4.780  20.777  0.00  0.00    +0.000 OA
ATOM      4  C   UNL     1       3.285   4.612  19.775  0.00  0.00    +0.000 A 
ATOM      5  C   UNL     1       4.065   3.489  19.548  0.00  0.00    +0.000 A 
ATOM      6  C   UNL     1       4.910   3.575  18.441  0.00  0.00    +0.000 A 
ATOM      7  C   UNL     1       4.930   4.731  17.652  0.00  0.00    +0.000 A 
ATOM      8  N   UNL     1       4.162   5.827  17.887  0.00  0.00    +0.000 NA
ATOM      9  C   UNL     1       3.340   5.740  18.965  0.00  0.00    +0.000 A 
ENDROOT
BRANCH   1  13
ATOM     10  C   UNL     1       0.654  11.285  18.970  0.00  0.00    +0.000 C 
ATOM     11  N   UNL     1       1.321  10.020  18.776  0.00  0.00    +0.000 N 
ATOM     12  C   UNL     1       1.384   8.983  19.662  0.00  0.00    +0.000 A 
ATOM     13  C   UNL     1       2.081   7.983  19.022  0.00  0.00    +0.000 A 
ATOM     14  C   UNL     1       2.409   8.526  17.763  0.00  0.00    +0.000 A 
ATOM     15  N   UNL     1       1.945   9.771  17.611  0.00  0.00    +0.000 NA
ENDBRANCH   1  13
BRANCH   7  16
ATOM     16  C   UNL     1       5.804   4.813  16.490  0.00  0.00    +0.000 A 
ATOM     17  C   UNL     1       5.728   4.206  15.213  0.00  0.00    +0.000 A 
ATOM     18  N   UNL     1       6.740   4.548  14.412  0.00  0.00    +0.000 NA
ATOM     19  N   UNL     1       7.472   5.380  15.170  0.00  0.00    +0.000 N 
ATOM     20  C   UNL     1       6.959   5.567  16.419  0.00  0.00    +0.000 A 
ATOM     21  H   UNL     1       8.312   5.785  14.769  0.00  0.00    +0.000 HD
ENDBRANCH   7  16
TORSDOF 2
ENDMDL
MODEL 3
REMARK VINA RESULT:      -7.1      3.508      7.449
REMARK  Name = 
REMARK  3 active torsions:
REMARK  status: ('A' for Active; 'I' for Inactive)
REMARK    1  A    between atoms: C_1  and  N_2
REMARK    2  A    between atoms: C_4  and  C_5
REMARK    3  A    between atoms: C_11  and  C_12
REMARK                            x       y       z     vdW  Elec       q    Type
REMARK                         _______ _______ _______ _____ _____    ______ ____
ROOT
ATOM      1  C   UNL     1       1.376   9.183  19.696  0.00  0.00    +0.000 A 
ATOM      2  C   UNL     1       1.565   9.965  18.575  0.00  0.00    +0.000 A 
ATOM      3  O   UNL     1       2.198   9.265  17.593  0.00  0.00    +0.000 OA
ATOM      4  C   UNL     1       2.418   8.021  18.090  0.00  0.00    +0.000 A 
ATOM      5  C   UNL     1       3.042   6.970  17.436  0.00  0.00    +0.000 A 
ATOM      6  C   UNL     1       3.145   5.793  18.179  0.00  0.00    +0.000 A 
ATOM      7  C   UNL     1       2.641   5.733  19.483  0.00  0.00    +0.000 A 
ATOM      8  N   UNL     1       2.029   6.769  20.113  0.00  0.00    +0.000 NA
ATOM      9  C   UNL     1       1.930   7.913  19.387  0.00  0.00    +0.000 A 
ENDROOT
BRANCH   1  13
ATOM     10  C   UNL     1      -1.547  11.255  23.156  0.00  0.00    +0.000 C 
ATOM     11  N   UNL     1      -0.536  10.487  22.470  0.00  0.00    +0.000 N 
ATOM     12  C   UNL     1      -0.362  10.381  21.120  0.00  0.00    +0.000 A 
ATOM     13  C   UNL     1       0.748   9.587  20.943  0.00  0.00    +0.000 A 
ATOM     14  C   UNL     1       1.157   9.251  22.250  0.00  0.00    +0.000 A 
ATOM     15  N   UNL     1       0.374   9.801  23.184  0.00  0.00    +0.000 NA
ENDBRANCH   1  13
BRANCH   7  16
ATOM     16  C   UNL     1       2.762   4.507  20.261  0.00  0.00    +0.000 A 
ATOM     17  C   UNL     1       2.184   4.114  21.491  0.00  0.00    +0.000 A 
ATOM     18  N   UNL     1       2.547   2.886  21.870  0.00  0.00    +0.000 NA
ATOM     19  N   UNL     1       3.360   2.482  20.882  0.00  0.00    +0.000 N 
ATOM     20  C   UNL     1       3.525   3.413  19.900  0.00  0.00    +0.000 A 
ATOM     21  H   UNL     1       3.769   1.554  20.942  0.00  0.00    +0.000 HD
ENDBRANCH   7  16
TORSDOF 2
ENDMDL
MODEL 4
REMARK VINA RESULT:      -7.1      3.969      5.506
REMARK  Name = 
REMARK  3 active torsions:
REMARK  status: ('A' for Active; 'I' for Inactive)
REMARK    1  A    between atoms: C_1  and  N_2
REMARK    2  A    between atoms: C_4  and  C_5
REMARK    3  A    between atoms: C_11  and  C_12
REMARK                            x       y       z     vdW  Elec       q    Type
REMARK                         _______ _______ _______ _____ _____    ______ ____
ROOT
ATOM      1  C   UNL     1       6.236   4.278  14.308  0.00  0.00    +0.000 A 
ATOM      2  C   UNL     1       7.387   5.030  14.425  0.00  0.00    +0.000 A 
ATOM      3  O   UNL     1       7.570   5.446  15.708  0.00  0.00    +0.000 OA
ATOM      4  C   UNL     1       6.524   4.956  16.423  0.00  0.00    +0.000 A 
ATOM      5  C   UNL     1       6.296   5.136  17.778  0.00  0.00    +0.000 A 
ATOM      6  C   UNL     1       5.139   4.527  18.265  0.00  0.00    +0.000 A 
ATOM      7  C   UNL     1       4.305   3.802  17.406  0.00  0.00    +0.000 A 
ATOM      8  N   UNL     1       4.540   3.631  16.079  0.00  0.00    +0.000 NA
ATOM      9  C   UNL     1       5.668   4.225  15.608  0.00  0.00    +0.000 A 
ENDROOT
BRANCH   1  13
ATOM     10  C   UNL     1       3.393   2.970  10.433  0.00  0.00    +0.000 C 
ATOM     11  N   UNL     1       4.469   3.098  11.387  0.00  0.00    +0.000 N 
ATOM     12  C   UNL     1       4.517   3.940  12.460  0.00  0.00    +0.000 A 
ATOM     13  C   UNL     1       5.709   3.674  13.095  0.00  0.00    +0.000 A 
ATOM     14  C   UNL     1       6.313   2.669  12.314  0.00  0.00    +0.000 A 
ATOM     15  N   UNL     1       5.556   2.316  11.268  0.00  0.00    +0.000 NA
ENDBRANCH   1  13
BRANCH   7  16
ATOM     16  C   UNL     1       3.090   3.179  17.915  0.00  0.00    +0.000 A 
ATOM     17  C   UNL     1       1.755   3.642  17.983  0.00  0.00    +0.000 A 
ATOM     18  N   UNL     1       0.920   2.749  18.522  0.00  0.00    +0.000 NA
ATOM     19  N   UNL     1       1.716   1.705  18.801  0.00  0.00    +0.000 N 
ATOM     20  C   UNL     1       3.020   1.912  18.461  0.00  0.00    +0.000 A 
ATOM     21  H   UNL     1       1.300   0.880  19.222  0.00  0.00    +0.000 HD
ENDBRANCH   7  16
TORSDOF 2
ENDMDL
MODEL 5
REMARK VINA RESULT:      -7.0      1.264      5.809
REMARK  Name = 
REMARK  3 active torsions:
REMARK  status: ('A' for Active; 'I' for Inactive)
REMARK    1  A    between atoms: C_1  and  N_2
REMARK    2  A    between atoms: C_4  and  C_5
REMARK    3  A    between atoms: C_11  and  C_12
REMARK                            x       y       z     vdW  Elec       q    Type
REMARK                         _______ _______ _______ _____ _____    ______ ____
ROOT
ATOM      1  C   UNL     1       2.145   5.989  20.179  0.00  0.00    +0.000 A 
ATOM      2  C   UNL     1       1.512   5.002  20.906  0.00  0.00    +0.000 A 
ATOM      3  O   UNL     1       2.142   3.805  20.755  0.00  0.00    +0.000 OA
ATOM      4  C   UNL     1       3.191   4.026  19.920  0.00  0.00    +0.000 A 
ATOM      5  C   UNL     1       4.109   3.084  19.483  0.00  0.00    +0.000 A 
ATOM      6  C   UNL     1       5.090   3.576  18.621  0.00  0.00    +0.000 A 
ATOM      7  C   UNL     1       5.100   4.928  18.257  0.00  0.00    +0.000 A 
ATOM      8  N   UNL     1       4.196   5.842  18.694  0.00  0.00    +0.000 NA
ATOM      9  C   UNL     1       3.241   5.360  19.533  0.00  0.00    +0.000 A 
ENDROOT
BRANCH   1  13
ATOM     10  C   UNL     1       1.308  10.653  18.644  0.00  0.00    +0.000 C 
ATOM     11  N   UNL     1       1.379   9.436  19.417  0.00  0.00    +0.000 N 
ATOM     12  C   UNL     1       1.838   8.222  18.994  0.00  0.00    +0.000 A 
ATOM     13  C   UNL     1       1.757   7.387  20.085  0.00  0.00    +0.000 A 
ATOM     14  C   UNL     1       1.219   8.191  21.110  0.00  0.00    +0.000 A 
ATOM     15  N   UNL     1       0.988   9.444  20.704  0.00  0.00    +0.000 NA
ENDBRANCH   1  13
BRANCH   7  16
ATOM     16  C   UNL     1       6.118   5.436  17.347  0.00  0.00    +0.000 A 
ATOM     17  C   UNL     1       6.619   4.932  16.123  0.00  0.00    +0.000 A 
ATOM     18  N   UNL     1       7.560   5.711  15.584  0.00  0.00    +0.000 NA
ATOM     19  N   UNL     1       7.666   6.724  16.459  0.00  0.00    +0.000 N 
ATOM     20  C   UNL     1       6.831   6.605  17.530  0.00  0.00    +0.000 A 
ATOM     21  H   UNL     1       8.331   7.465  16.261  0.00  0.00    +0.000 HD
ENDBRANCH   7  16
TORSDOF 2
ENDMDL
MODEL 6
REMARK VINA RESULT:      -6.9      1.257      5.964
REMARK  Name = 
REMARK  3 active torsions:
REMARK  status: ('A' for Active; 'I' for Inactive)
REMARK    1  A    between atoms: C_1  and  N_2
REMARK    2  A    between atoms: C_4  and  C_5
REMARK    3  A    between atoms: C_11  and  C_12
REMARK                            x       y       z     vdW  Elec       q    Type
REMARK                         _______ _______ _______ _____ _____    ______ ____
ROOT
ATOM      1  C   UNL     1       2.124   6.140  20.184  0.00  0.00    +0.000 A 
ATOM      2  C   UNL     1       1.468   5.177  20.923  0.00  0.00    +0.000 A 
ATOM      3  O   UNL     1       2.078   3.966  20.798  0.00  0.00    +0.000 OA
ATOM      4  C   UNL     1       3.136   4.154  19.968  0.00  0.00    +0.000 A 
ATOM      5  C   UNL     1       4.041   3.189  19.554  0.00  0.00    +0.000 A 
ATOM      6  C   UNL     1       5.038   3.648  18.692  0.00  0.00    +0.000 A 
ATOM      7  C   UNL     1       5.074   4.993  18.305  0.00  0.00    +0.000 A 
ATOM      8  N   UNL     1       4.183   5.930  18.719  0.00  0.00    +0.000 NA
ATOM      9  C   UNL     1       3.214   5.480  19.558  0.00  0.00    +0.000 A 
ENDROOT
BRANCH   1  13
ATOM     10  C   UNL     1       0.495  10.773  21.016  0.00  0.00    +0.000 C 
ATOM     11  N   UNL     1       1.054   9.582  20.422  0.00  0.00    +0.000 N 
ATOM     12  C   UNL     1       1.254   8.378  21.033  0.00  0.00    +0.000 A 
ATOM     13  C   UNL     1       1.762   7.543  20.063  0.00  0.00    +0.000 A 
ATOM     14  C   UNL     1       1.846   8.347  18.909  0.00  0.00    +0.000 A 
ATOM     15  N   UNL     1       1.414   9.594  19.126  0.00  0.00    +0.000 NA
ENDBRANCH   1  13
BRANCH   7  16
ATOM     16  C   UNL     1       6.108   5.466  17.394  0.00  0.00    +0.000 A 
ATOM     17  C   UNL     1       6.962   6.593  17.447  0.00  0.00    +0.000 A 
ATOM     18  N   UNL     1       7.791   6.670  16.402  0.00  0.00    +0.000 NA
ATOM     19  N   UNL     1       7.473   5.589  15.672  0.00  0.00    +0.000 N 
ATOM     20  C   UNL     1       6.473   4.840  16.218  0.00  0.00    +0.000 A 
ATOM     21  H   UNL     1       7.982   5.423  14.810  0.00  0.00    +0.000 HD
ENDBRANCH   7  16
TORSDOF 2
ENDMDL
MODEL 7
REMARK VINA RESULT:      -6.9      3.648      4.761
REMARK  Name = 
REMARK  3 active torsions:
REMARK  status: ('A' for Active; 'I' for Inactive)
REMARK    1  A    between atoms: C_1  and  N_2
REMARK    2  A    between atoms: C_4  and  C_5
REMARK    3  A    between atoms: C_11  and  C_12
REMARK                            x       y       z     vdW  Elec       q    Type
REMARK                         _______ _______ _______ _____ _____    ______ ____
ROOT
ATOM      1  C   UNL     1       6.483   5.071  15.802  0.00  0.00    +0.000 A 
ATOM      2  C   UNL     1       7.473   5.916  16.262  0.00  0.00    +0.000 A 
ATOM      3  O   UNL     1       7.302   6.191  17.585  0.00  0.00    +0.000 OA
ATOM      4  C   UNL     1       6.190   5.517  17.977  0.00  0.00    +0.000 A 
ATOM      5  C   UNL     1       5.636   5.509  19.247  0.00  0.00    +0.000 A 
ATOM      6  C   UNL     1       4.484   4.733  19.381  0.00  0.00    +0.000 A 
ATOM      7  C   UNL     1       3.968   4.036  18.282  0.00  0.00    +0.000 A 
ATOM      8  N   UNL     1       4.521   4.050  17.042  0.00  0.00    +0.000 NA
ATOM      9  C   UNL     1       5.643   4.806  16.915  0.00  0.00    +0.000 A 
ENDROOT
BRANCH   1  13
ATOM     10  C   UNL     1       4.796   2.935  11.631  0.00  0.00    +0.000 C 
ATOM     11  N   UNL     1       5.593   3.636  12.608  0.00  0.00    +0.000 N 
ATOM     12  C   UNL     1       5.236   3.941  13.890  0.00  0.00    +0.000 A 
ATOM     13  C   UNL     1       6.329   4.567  14.447  0.00  0.00    +0.000 A 
ATOM     14  C   UNL     1       7.284   4.605  13.411  0.00  0.00    +0.000 A 
ATOM     15  N   UNL     1       6.836   4.037  12.286  0.00  0.00    +0.000 NA
ENDBRANCH   1  13
BRANCH   7  16
ATOM     16  C   UNL     1       2.757   3.238  18.422  0.00  0.00    +0.000 A 
ATOM     17  C   UNL     1       1.389   3.599  18.426  0.00  0.00    +0.000 A 
ATOM     18  N   UNL     1       0.573   2.553  18.574  0.00  0.00    +0.000 NA
ATOM     19  N   UNL     1       1.414   1.510  18.663  0.00  0.00    +0.000 N 
ATOM     20  C   UNL     1       2.728   1.866  18.582  0.00  0.00    +0.000 A 
ATOM     21  H   UNL     1       1.022   0.582  18.778  0.00  0.00    +0.000 HD
ENDBRANCH   7  16
TORSDOF 2
ENDMDL
MODEL 8
REMARK VINA RESULT:      -6.9      1.040      1.182
REMARK  Name = 
REMARK  3 active torsions:
REMARK  status: ('A' for Active; 'I' for Inactive)
REMARK    1  A    between atoms: C_1  and  N_2
REMARK    2  A    between atoms: C_4  and  C_5
REMARK    3  A    between atoms: C_11  and  C_12
REMARK                            x       y       z     vdW  Elec       q    Type
REMARK                         _______ _______ _______ _____ _____    ______ ____
ROOT
ATOM      1  C   UNL     1       4.263   3.489  18.180  0.00  0.00    +0.000 A 
ATOM      2  C   UNL     1       4.051   2.158  18.479  0.00  0.00    +0.000 A 
ATOM      3  O   UNL     1       3.019   2.014  19.355  0.00  0.00    +0.000 OA
ATOM      4  C   UNL     1       2.564   3.265  19.622  0.00  0.00    +0.000 A 
ATOM      5  C   UNL     1       1.521   3.600  20.470  0.00  0.00    +0.000 A 
ATOM      6  C   UNL     1       1.259   4.967  20.570  0.00  0.00    +0.000 A 
ATOM      7  C   UNL     1       2.025   5.889  19.847  0.00  0.00    +0.000 A 
ATOM      8  N   UNL     1       3.045   5.549  19.017  0.00  0.00    +0.000 NA
ATOM      9  C   UNL     1       3.297   4.217  18.922  0.00  0.00    +0.000 A 
ENDROOT
BRANCH   1  13
ATOM     10  C   UNL     1       6.951   4.855  14.216  0.00  0.00    +0.000 C 
ATOM     11  N   UNL     1       6.464   4.641  15.558  0.00  0.00    +0.000 N 
ATOM     12  C   UNL     1       5.285   4.054  15.917  0.00  0.00    +0.000 A 
ATOM     13  C   UNL     1       5.280   4.031  17.294  0.00  0.00    +0.000 A 
ATOM     14  C   UNL     1       6.493   4.645  17.665  0.00  0.00    +0.000 A 
ATOM     15  N   UNL     1       7.218   5.018  16.605  0.00  0.00    +0.000 NA
ENDBRANCH   1  13
BRANCH   7  16
ATOM     16  C   UNL     1       1.759   7.316  19.964  0.00  0.00    +0.000 A 
ATOM     17  C   UNL     1       1.284   8.098  21.044  0.00  0.00    +0.000 A 
ATOM     18  N   UNL     1       1.182   9.396  20.744  0.00  0.00    +0.000 NA
ATOM     19  N   UNL     1       1.594   9.455  19.468  0.00  0.00    +0.000 N 
ATOM     20  C   UNL     1       1.945   8.241  18.955  0.00  0.00    +0.000 A 
ATOM     21  H   UNL     1       1.610  10.359  19.008  0.00  0.00    +0.000 HD
ENDBRANCH   7  16
TORSDOF 2
ENDMDL
MODEL 9
REMARK VINA RESULT:      -6.8      1.535      5.985
REMARK  Name = 
REMARK  3 active torsions:
REMARK  status: ('A' for Active; 'I' for Inactive)
REMARK    1  A    between atoms: C_1  and  N_2
REMARK    2  A    between atoms: C_4  and  C_5
REMARK    3  A    between atoms: C_11  and  C_12
REMARK                            x       y       z     vdW  Elec       q    Type
REMARK                         _______ _______ _______ _____ _____    ______ ____
ROOT
ATOM      1  C   UNL     1       1.923   5.133  19.730  0.00  0.00    +0.000 A 
ATOM      2  C   UNL     1       1.125   4.099  20.178  0.00  0.00    +0.000 A 
ATOM      3  O   UNL     1       1.542   2.906  19.671  0.00  0.00    +0.000 OA
ATOM      4  C   UNL     1       2.619   3.177  18.889  0.00  0.00    +0.000 A 
ATOM      5  C   UNL     1       3.365   2.259  18.167  0.00  0.00    +0.000 A 
ATOM      6  C   UNL     1       4.422   2.805  17.437  0.00  0.00    +0.000 A 
ATOM      7  C   UNL     1       4.666   4.183  17.467  0.00  0.00    +0.000 A 
ATOM      8  N   UNL     1       3.928   5.073  18.180  0.00  0.00    +0.000 NA
ATOM      9  C   UNL     1       2.900   4.538  18.889  0.00  0.00    +0.000 A 
ENDROOT
BRANCH   1  13
ATOM     10  C   UNL     1       0.917   9.485  21.932  0.00  0.00    +0.000 C 
ATOM     11  N   UNL     1       1.348   8.461  21.011  0.00  0.00    +0.000 N 
ATOM     12  C   UNL     1       1.315   7.111  21.214  0.00  0.00    +0.000 A 
ATOM     13  C   UNL     1       1.780   6.544  20.049  0.00  0.00    +0.000 A 
ATOM     14  C   UNL     1       2.084   7.639  19.215  0.00  0.00    +0.000 A 
ATOM     15  N   UNL     1       1.820   8.812  19.802  0.00  0.00    +0.000 NA
ENDBRANCH   1  13
BRANCH   7  16
ATOM     16  C   UNL     1       5.762   4.751  16.693  0.00  0.00    +0.000 A 
ATOM     17  C   UNL     1       6.342   4.365  15.462  0.00  0.00    +0.000 A 
ATOM     18  N   UNL     1       7.340   5.166  15.080  0.00  0.00    +0.000 NA
ATOM     19  N   UNL     1       7.405   6.076  16.066  0.00  0.00    +0.000 N 
ATOM     20  C   UNL     1       6.488   5.870  17.054  0.00  0.00    +0.000 A 
ATOM     21  H   UNL     1       8.100   6.812  15.999  0.00  0.00    +0.000 HD
ENDBRANCH   7  16
TORSDOF 2
ENDMDL
