MODEL 1
REMARK VINA RESULT:      -8.2      0.000      0.000
REMARK  Name = 
REMARK  9 active torsions:
REMARK  status: ('A' for Active; 'I' for Inactive)
REMARK    1  A    between atoms: C_1  and  C_2
REMARK    2  A    between atoms: C_2  and  C_3
REMARK    3  A    between atoms: C_2  and  C_4
REMARK    4  A    between atoms: C_4  and  N_5
REMARK    5  A    between atoms: N_5  and  C_6
REMARK    6  A    between atoms: C_6  and  C_7
REMARK    7  A    between atoms: C_19  and  C_21
REMARK    8  A    between atoms: N_24  and  C_25
REMARK    9  A    between atoms: C_25  and  C_26
REMARK                            x       y       z     vdW  Elec       q    Type
REMARK                         _______ _______ _______ _____ _____    ______ ____
ROOT
ATOM      1  N   UNL     1      -0.014  11.912  20.846  0.00  0.00    +0.000 N 
ATOM      2  C   UNL     1       0.350  10.617  21.210  0.00  0.00    +0.000 C 
ATOM      3  O   UNL     1       0.640  10.366  22.378  0.00  0.00    +0.000 OA
ENDROOT
BRANCH   2   4
ATOM      4  C   UNL     1       0.327   9.486  20.183  0.00  0.00    +0.000 C 
ATOM      5  C   UNL     1       0.321   8.125  20.903  0.00  0.00    +0.000 C 
ATOM      6  C   UNL     1       1.777   7.703  20.834  0.00  0.00    +0.000 C 
ATOM      7  N   UNL     1       2.197   8.097  19.478  0.00  0.00    +0.000 NA
ATOM      8  C   UNL     1       1.582   9.427  19.302  0.00  0.00    +0.000 C 
BRANCH   7   9
ATOM      9  C   UNL     1       1.697   7.124  18.492  0.00  0.00    +0.000 C 
BRANCH   9  10
ATOM     10  C   UNL     1       2.752   6.267  17.833  0.00  0.00    +0.000 A 
ATOM     11  C   UNL     1       4.028   6.792  17.562  0.00  0.00    +0.000 A 
ATOM     12  C   UNL     1       5.108   5.955  17.238  0.00  0.00    +0.000 A 
ATOM     13  C   UNL     1       4.961   4.571  17.268  0.00  0.00    +0.000 A 
ATOM     14  C   UNL     1       3.710   4.055  17.553  0.00  0.00    +0.000 A 
ATOM     15  C   UNL     1       2.595   4.889  17.720  0.00  0.00    +0.000 A 
ATOM     16  C   UNL     1       1.362   4.039  17.804  0.00  0.00    +0.000 C 
ATOM     17  C   UNL     1       1.955   2.800  18.470  0.00  0.00    +0.000 C 
ATOM     18  C   UNL     1       3.344   2.625  17.831  0.00  0.00    +0.000 C 
ENDBRANCH   9  10
ENDBRANCH   7   9
ENDBRANCH   2   4
BRANCH   1  19
ATOM     19  C   UNL     1      -0.052  12.905  21.927  0.00  0.00    +0.000 C 
BRANCH  19  21
ATOM     20  C   UNL     1      -2.144  11.967  23.156  0.00  0.00    +0.000 C 
ATOM     21  C   UNL     1      -1.433  13.186  22.565  0.00  0.00    +0.000 C 
ATOM     22  C   UNL     1      -1.377  14.304  23.603  0.00  0.00    +0.000 C 
ENDBRANCH  19  21
ENDBRANCH   1  19
BRANCH   1  23
ATOM     23  C   UNL     1      -0.360  12.371  19.493  0.00  0.00    +0.000 C 
BRANCH  23  24
ATOM     24  C   UNL     1      -1.709  11.962  18.939  0.00  0.00    +0.000 A 
ATOM     25  C   UNL     1      -1.872  11.235  17.753  0.00  0.00    +0.000 A 
ATOM     26  C   UNL     1      -3.152  10.983  17.241  0.00  0.00    +0.000 A 
ATOM     27 CL   UNL     1      -3.283  10.117  15.755  0.00  0.00    +0.000 Cl
ATOM     28  C   UNL     1      -4.293  11.442  17.918  0.00  0.00    +0.000 A 
ATOM     29  C   UNL     1      -4.147  12.056  19.162  0.00  0.00    +0.000 A 
ATOM     30  C   UNL     1      -2.865  12.319  19.663  0.00  0.00    +0.000 A 
ATOM     31  O   UNL     1      -5.203  12.273  20.007  0.00  0.00    +0.000 OA
ATOM     32  C   UNL     1      -6.136  13.252  19.555  0.00  0.00    +0.000 C 
ATOM     33  C   UNL     1      -7.040  12.776  18.426  0.00  0.00    +0.000 C 
ATOM     34  C   UNL     1      -6.237  12.448  17.181  0.00  0.00    +0.000 C 
ATOM     35  O   UNL     1      -5.524  11.220  17.359  0.00  0.00    +0.000 OA
ENDBRANCH  23  24
ENDBRANCH   1  23
TORSDOF 7
ENDMDL
MODEL 2
REMARK VINA RESULT:      -8.0      1.133      1.286
REMARK  Name = 
REMARK  9 active torsions:
REMARK  status: ('A' for Active; 'I' for Inactive)
REMARK    1  A    between atoms: C_1  and  C_2
REMARK    2  A    between atoms: C_2  and  C_3
REMARK    3  A    between atoms: C_2  and  C_4
REMARK    4  A    between atoms: C_4  and  N_5
REMARK    5  A    between atoms: N_5  and  C_6
REMARK    6  A    between atoms: C_6  and  C_7
REMARK    7  A    between atoms: C_19  and  C_21
REMARK    8  A    between atoms: N_24  and  C_25
REMARK    9  A    between atoms: C_25  and  C_26
REMARK                            x       y       z     vdW  Elec       q    Type
REMARK                         _______ _______ _______ _____ _____    ______ ____
ROOT
ATOM      1  N   UNL     1      -0.775  12.291  21.723  0.00  0.00    +0.000 N 
ATOM      2  C   UNL     1      -0.397  10.972  21.963  0.00  0.00    +0.000 C 
ATOM      3  O   UNL     1      -0.199  10.589  23.115  0.00  0.00    +0.000 OA
ENDROOT
BRANCH   2   4
ATOM      4  C   UNL     1      -0.290   9.973  20.812  0.00  0.00    +0.000 C 
ATOM      5  C   UNL     1      -0.164   8.543  21.370  0.00  0.00    +0.000 C 
ATOM      6  C   UNL     1       1.329   8.282  21.288  0.00  0.00    +0.000 C 
ATOM      7  N   UNL     1       1.722   8.874  19.996  0.00  0.00    +0.000 NA
ATOM      8  C   UNL     1       0.975  10.146  19.961  0.00  0.00    +0.000 C 
BRANCH   7   9
ATOM      9  C   UNL     1       1.338   7.977  18.892  0.00  0.00    +0.000 C 
BRANCH   9  10
ATOM     10  C   UNL     1       2.435   7.078  18.375  0.00  0.00    +0.000 A 
ATOM     11  C   UNL     1       3.477   7.604  17.591  0.00  0.00    +0.000 A 
ATOM     12  C   UNL     1       4.652   6.875  17.353  0.00  0.00    +0.000 A 
ATOM     13  C   UNL     1       4.854   5.641  17.968  0.00  0.00    +0.000 A 
ATOM     14  C   UNL     1       3.836   5.133  18.755  0.00  0.00    +0.000 A 
ATOM     15  C   UNL     1       2.600   5.786  18.865  0.00  0.00    +0.000 A 
ATOM     16  C   UNL     1       1.645   4.894  19.603  0.00  0.00    +0.000 C 
ATOM     17  C   UNL     1       2.630   4.179  20.524  0.00  0.00    +0.000 C 
ATOM     18  C   UNL     1       3.884   3.939  19.664  0.00  0.00    +0.000 C 
ENDBRANCH   9  10
ENDBRANCH   7   9
ENDBRANCH   2   4
BRANCH   1  19
ATOM     19  C   UNL     1      -0.943  13.144  22.906  0.00  0.00    +0.000 C 
BRANCH  19  21
ATOM     20  C   UNL     1      -2.841  14.915  23.074  0.00  0.00    +0.000 C 
ATOM     21  C   UNL     1      -1.403  14.600  22.655  0.00  0.00    +0.000 C 
ATOM     22  C   UNL     1      -0.451  15.625  23.266  0.00  0.00    +0.000 C 
ENDBRANCH  19  21
ENDBRANCH   1  19
BRANCH   1  23
ATOM     23  C   UNL     1      -1.020  12.901  20.408  0.00  0.00    +0.000 C 
BRANCH  23  24
ATOM     24  C   UNL     1      -2.223  12.417  19.625  0.00  0.00    +0.000 A 
ATOM     25  C   UNL     1      -2.134  11.781  18.381  0.00  0.00    +0.000 A 
ATOM     26  C   UNL     1      -3.292  11.456  17.661  0.00  0.00    +0.000 A 
ATOM     27 CL   UNL     1      -3.113  10.710  16.116  0.00  0.00    +0.000 Cl
ATOM     28  C   UNL     1      -4.561  11.749  18.184  0.00  0.00    +0.000 A 
ATOM     29  C   UNL     1      -4.665  12.266  19.476  0.00  0.00    +0.000 A 
ATOM     30  C   UNL     1      -3.504  12.604  20.186  0.00  0.00    +0.000 A 
ATOM     31  O   UNL     1      -5.849  12.312  20.161  0.00  0.00    +0.000 OA
ATOM     32  C   UNL     1      -6.803  13.236  19.640  0.00  0.00    +0.000 C 
ATOM     33  C   UNL     1      -7.477  12.775  18.354  0.00  0.00    +0.000 C 
ATOM     34  C   UNL     1      -6.470  12.630  17.228  0.00  0.00    +0.000 C 
ATOM     35  O   UNL     1      -5.668  11.462  17.428  0.00  0.00    +0.000 OA
ENDBRANCH  23  24
ENDBRANCH   1  23
TORSDOF 7
ENDMDL
MODEL 3
REMARK VINA RESULT:      -8.0      0.926      2.032
REMARK  Name = 
REMARK  9 active torsions:
REMARK  status: ('A' for Active; 'I' for Inactive)
REMARK    1  A    between atoms: C_1  and  C_2
REMARK    2  A    between atoms: C_2  and  C_3
REMARK    3  A    between atoms: C_2  and  C_4
REMARK    4  A    between atoms: C_4  and  N_5
REMARK    5  A    between atoms: N_5  and  C_6
REMARK    6  A    between atoms: C_6  and  C_7
REMARK    7  A    between atoms: C_19  and  C_21
REMARK    8  A    between atoms: N_24  and  C_25
REMARK    9  A    between atoms: C_25  and  C_26
REMARK                            x       y       z     vdW  Elec       q    Type
REMARK                         _______ _______ _______ _____ _____    ______ ____
ROOT
ATOM      1  N   UNL     1       0.011  12.061  20.500  0.00  0.00    +0.000 N 
ATOM      2  C   UNL     1       0.432  10.784  20.863  0.00  0.00    +0.000 C 
ATOM      3  O   UNL     1       0.796  10.562  22.017  0.00  0.00    +0.000 OA
ENDROOT
BRANCH   2   4
ATOM      4  C   UNL     1       0.382   9.634  19.858  0.00  0.00    +0.000 C 
ATOM      5  C   UNL     1       0.398   8.286  20.603  0.00  0.00    +0.000 C 
ATOM      6  C   UNL     1       1.852   7.865  20.500  0.00  0.00    +0.000 C 
ATOM      7  N   UNL     1       2.233   8.235  19.125  0.00  0.00    +0.000 NA
ATOM      8  C   UNL     1       1.611   9.561  18.943  0.00  0.00    +0.000 C 
BRANCH   7   9
ATOM      9  C   UNL     1       1.707   7.243  18.171  0.00  0.00    +0.000 C 
BRANCH   9  10
ATOM     10  C   UNL     1       2.434   5.920  18.145  0.00  0.00    +0.000 A 
ATOM     11  C   UNL     1       1.765   4.733  18.491  0.00  0.00    +0.000 A 
ATOM     12  C   UNL     1       2.308   3.474  18.190  0.00  0.00    +0.000 A 
ATOM     13  C   UNL     1       3.487   3.372  17.455  0.00  0.00    +0.000 A 
ATOM     14  C   UNL     1       4.135   4.541  17.099  0.00  0.00    +0.000 A 
ATOM     15  C   UNL     1       3.678   5.793  17.535  0.00  0.00    +0.000 A 
ATOM     16  C   UNL     1       4.695   6.834  17.169  0.00  0.00    +0.000 C 
ATOM     17  C   UNL     1       5.238   6.215  15.884  0.00  0.00    +0.000 C 
ATOM     18  C   UNL     1       5.294   4.701  16.158  0.00  0.00    +0.000 C 
ENDBRANCH   9  10
ENDBRANCH   7   9
ENDBRANCH   2   4
BRANCH   1  19
ATOM     19  C   UNL     1       0.007  13.072  21.565  0.00  0.00    +0.000 C 
BRANCH  19  21
ATOM     20  C   UNL     1       2.418  13.755  20.867  0.00  0.00    +0.000 C 
ATOM     21  C   UNL     1       1.081  14.182  21.476  0.00  0.00    +0.000 C 
ATOM     22  C   UNL     1       0.567  15.433  20.769  0.00  0.00    +0.000 C 
ENDBRANCH  19  21
ENDBRANCH   1  19
BRANCH   1  23
ATOM     23  C   UNL     1      -0.426  12.487  19.162  0.00  0.00    +0.000 C 
BRANCH  23  24
ATOM     24  C   UNL     1      -1.810  12.068  18.712  0.00  0.00    +0.000 A 
ATOM     25  C   UNL     1      -2.066  11.411  17.502  0.00  0.00    +0.000 A 
ATOM     26  C   UNL     1      -3.382  11.149  17.097  0.00  0.00    +0.000 A 
ATOM     27 CL   UNL     1      -3.632  10.373  15.577  0.00  0.00    +0.000 Cl
ATOM     28  C   UNL     1      -4.465  11.527  17.907  0.00  0.00    +0.000 A 
ATOM     29  C   UNL     1      -4.217  12.067  19.170  0.00  0.00    +0.000 A 
ATOM     30  C   UNL     1      -2.900  12.341  19.563  0.00  0.00    +0.000 A 
ATOM     31  O   UNL     1      -5.192  12.196  20.122  0.00  0.00    +0.000 OA
ATOM     32  C   UNL     1      -6.191  13.169  19.825  0.00  0.00    +0.000 C 
ATOM     33  C   UNL     1      -7.186  12.734  18.757  0.00  0.00    +0.000 C 
ATOM     34  C   UNL     1      -6.497  12.512  17.423  0.00  0.00    +0.000 C 
ATOM     35  O   UNL     1      -5.738  11.299  17.453  0.00  0.00    +0.000 OA
ENDBRANCH  23  24
ENDBRANCH   1  23
TORSDOF 7
ENDMDL
MODEL 4
REMARK VINA RESULT:      -8.0      1.181      2.115
REMARK  Name = 
REMARK  9 active torsions:
REMARK  status: ('A' for Active; 'I' for Inactive)
REMARK    1  A    between atoms: C_1  and  C_2
REMARK    2  A    between atoms: C_2  and  C_3
REMARK    3  A    between atoms: C_2  and  C_4
REMARK    4  A    between atoms: C_4  and  N_5
REMARK    5  A    between atoms: N_5  and  C_6
REMARK    6  A    between atoms: C_6  and  C_7
REMARK    7  A    between atoms: C_19  and  C_21
REMARK    8  A    between atoms: N_24  and  C_25
REMARK    9  A    between atoms: C_25  and  C_26
REMARK                            x       y       z     vdW  Elec       q    Type
REMARK                         _______ _______ _______ _____ _____    ______ ____
ROOT
ATOM      1  N   UNL     1      -0.920  12.269  21.758  0.00  0.00    +0.000 N 
ATOM      2  C   UNL     1      -0.199  11.157  22.189  0.00  0.00    +0.000 C 
ATOM      3  O   UNL     1      -0.217  10.836  23.376  0.00  0.00    +0.000 OA
ENDROOT
BRANCH   2   4
ATOM      4  C   UNL     1       0.562  10.289  21.189  0.00  0.00    +0.000 C 
ATOM      5  C   UNL     1      -0.415   9.347  20.461  0.00  0.00    +0.000 C 
ATOM      6  C   UNL     1      -0.241   8.040  21.212  0.00  0.00    +0.000 C 
ATOM      7  N   UNL     1       1.211   7.958  21.452  0.00  0.00    +0.000 NA
ATOM      8  C   UNL     1       1.571   9.335  21.842  0.00  0.00    +0.000 C 
BRANCH   7   9
ATOM      9  C   UNL     1       1.902   7.534  20.222  0.00  0.00    +0.000 C 
BRANCH   9  10
ATOM     10  C   UNL     1       2.139   6.048  20.091  0.00  0.00    +0.000 A 
ATOM     11  C   UNL     1       1.272   5.131  20.710  0.00  0.00    +0.000 A 
ATOM     12  C   UNL     1       1.281   3.770  20.365  0.00  0.00    +0.000 A 
ATOM     13  C   UNL     1       2.090   3.310  19.330  0.00  0.00    +0.000 A 
ATOM     14  C   UNL     1       2.929   4.218  18.708  0.00  0.00    +0.000 A 
ATOM     15  C   UNL     1       3.038   5.542  19.157  0.00  0.00    +0.000 A 
ATOM     16  C   UNL     1       4.167   6.209  18.429  0.00  0.00    +0.000 C 
ATOM     17  C   UNL     1       4.077   5.473  17.094  0.00  0.00    +0.000 C 
ATOM     18  C   UNL     1       3.741   4.016  17.460  0.00  0.00    +0.000 C 
ENDBRANCH   9  10
ENDBRANCH   7   9
ENDBRANCH   2   4
BRANCH   1  19
ATOM     19  C   UNL     1      -1.695  12.978  22.783  0.00  0.00    +0.000 C 
BRANCH  19  21
ATOM     20  C   UNL     1      -1.717  15.525  22.255  0.00  0.00    +0.000 C 
ATOM     21  C   UNL     1      -1.214  14.400  23.161  0.00  0.00    +0.000 C 
ATOM     22  C   UNL     1      -1.503  14.743  24.620  0.00  0.00    +0.000 C 
ENDBRANCH  19  21
ENDBRANCH   1  19
BRANCH   1  23
ATOM     23  C   UNL     1      -0.976  12.791  20.385  0.00  0.00    +0.000 C 
BRANCH  23  24
ATOM     24  C   UNL     1      -2.134  12.350  19.515  0.00  0.00    +0.000 A 
ATOM     25  C   UNL     1      -1.980  11.825  18.226  0.00  0.00    +0.000 A 
ATOM     26  C   UNL     1      -3.100  11.538  17.433  0.00  0.00    +0.000 A 
ATOM     27 CL   UNL     1      -2.841  10.932  15.839  0.00  0.00    +0.000 Cl
ATOM     28  C   UNL     1      -4.396  11.756  17.927  0.00  0.00    +0.000 A 
ATOM     29  C   UNL     1      -4.563  12.158  19.253  0.00  0.00    +0.000 A 
ATOM     30  C   UNL     1      -3.440  12.459  20.035  0.00  0.00    +0.000 A 
ATOM     31  O   UNL     1      -5.774  12.118  19.889  0.00  0.00    +0.000 OA
ATOM     32  C   UNL     1      -6.731  13.062  19.410  0.00  0.00    +0.000 C 
ATOM     33  C   UNL     1      -7.342  12.698  18.063  0.00  0.00    +0.000 C 
ATOM     34  C   UNL     1      -6.288  12.673  16.971  0.00  0.00    +0.000 C 
ATOM     35  O   UNL     1      -5.464  11.511  17.104  0.00  0.00    +0.000 OA
ENDBRANCH  23  24
ENDBRANCH   1  23
TORSDOF 7
ENDMDL
MODEL 5
REMARK VINA RESULT:      -8.0      3.618      9.853
REMARK  Name = 
REMARK  9 active torsions:
REMARK  status: ('A' for Active; 'I' for Inactive)
REMARK    1  A    between atoms: C_1  and  C_2
REMARK    2  A    between atoms: C_2  and  C_3
REMARK    3  A    between atoms: C_2  and  C_4
REMARK    4  A    between atoms: C_4  and  N_5
REMARK    5  A    between atoms: N_5  and  C_6
REMARK    6  A    between atoms: C_6  and  C_7
REMARK    7  A    between atoms: C_19  and  C_21
REMARK    8  A    between atoms: N_24  and  C_25
REMARK    9  A    between atoms: C_25  and  C_26
REMARK                            x       y       z     vdW  Elec       q    Type
REMARK                         _______ _______ _______ _____ _____    ______ ____
ROOT
ATOM      1  N   UNL     1       2.330   6.970  19.444  0.00  0.00    +0.000 N 
ATOM      2  C   UNL     1       1.531   7.873  20.142  0.00  0.00    +0.000 C 
ATOM      3  O   UNL     1       1.446   7.799  21.367  0.00  0.00    +0.000 OA
ENDROOT
BRANCH   2   4
ATOM      4  C   UNL     1       0.809   9.001  19.407  0.00  0.00    +0.000 C 
ATOM      5  C   UNL     1       1.772  10.181  19.182  0.00  0.00    +0.000 C 
ATOM      6  C   UNL     1       1.401  11.133  20.305  0.00  0.00    +0.000 C 
ATOM      7  N   UNL     1      -0.070  11.059  20.362  0.00  0.00    +0.000 NA
ATOM      8  C   UNL     1      -0.346   9.618  20.206  0.00  0.00    +0.000 C 
BRANCH   7   9
ATOM      9  C   UNL     1      -0.658  11.855  19.271  0.00  0.00    +0.000 C 
BRANCH   9  10
ATOM     10  C   UNL     1      -2.146  11.688  19.075  0.00  0.00    +0.000 A 
ATOM     11  C   UNL     1      -3.055  12.375  19.899  0.00  0.00    +0.000 A 
ATOM     12  C   UNL     1      -4.412  12.481  19.558  0.00  0.00    +0.000 A 
ATOM     13  C   UNL     1      -4.876  11.984  18.342  0.00  0.00    +0.000 A 
ATOM     14  C   UNL     1      -3.976  11.325  17.524  0.00  0.00    +0.000 A 
ATOM     15  C   UNL     1      -2.658  11.078  17.934  0.00  0.00    +0.000 A 
ATOM     16  C   UNL     1      -2.002  10.171  16.935  0.00  0.00    +0.000 C 
ATOM     17  C   UNL     1      -2.725  10.625  15.669  0.00  0.00    +0.000 C 
ATOM     18  C   UNL     1      -4.179  10.877  16.105  0.00  0.00    +0.000 C 
ENDBRANCH   9  10
ENDBRANCH   7   9
ENDBRANCH   2   4
BRANCH   1  19
ATOM     19  C   UNL     1       3.057   5.984  20.254  0.00  0.00    +0.000 C 
BRANCH  19  21
ATOM     20  C   UNL     1       3.793   3.538  19.768  0.00  0.00    +0.000 C 
ATOM     21  C   UNL     1       2.648   4.502  20.081  0.00  0.00    +0.000 C 
ATOM     22  C   UNL     1       1.842   3.979  21.268  0.00  0.00    +0.000 C 
ENDBRANCH  19  21
ENDBRANCH   1  19
BRANCH   1  23
ATOM     23  C   UNL     1       2.512   6.913  17.987  0.00  0.00    +0.000 C 
BRANCH  23  24
ATOM     24  C   UNL     1       3.881   6.529  17.466  0.00  0.00    +0.000 A 
ATOM     25  C   UNL     1       5.046   7.258  17.735  0.00  0.00    +0.000 A 
ATOM     26  C   UNL     1       6.263   6.907  17.134  0.00  0.00    +0.000 A 
ATOM     27 CL   UNL     1       7.653   7.871  17.475  0.00  0.00    +0.000 Cl
ATOM     28  C   UNL     1       6.335   5.809  16.262  0.00  0.00    +0.000 A 
ATOM     29  C   UNL     1       5.211   5.001  16.087  0.00  0.00    +0.000 A 
ATOM     30  C   UNL     1       3.994   5.365  16.679  0.00  0.00    +0.000 A 
ATOM     31  O   UNL     1       5.272   3.770  15.492  0.00  0.00    +0.000 OA
ATOM     32  C   UNL     1       5.558   3.795  14.095  0.00  0.00    +0.000 C 
ATOM     33  C   UNL     1       7.011   4.111  13.763  0.00  0.00    +0.000 C 
ATOM     34  C   UNL     1       7.390   5.505  14.230  0.00  0.00    +0.000 C 
ATOM     35  O   UNL     1       7.531   5.529  15.654  0.00  0.00    +0.000 OA
ENDBRANCH  23  24
ENDBRANCH   1  23
TORSDOF 7
ENDMDL
MODEL 6
REMARK VINA RESULT:      -7.8      1.339      1.791
REMARK  Name = 
REMARK  9 active torsions:
REMARK  status: ('A' for Active; 'I' for Inactive)
REMARK    1  A    between atoms: C_1  and  C_2
REMARK    2  A    between atoms: C_2  and  C_3
REMARK    3  A    between atoms: C_2  and  C_4
REMARK    4  A    between atoms: C_4  and  N_5
REMARK    5  A    between atoms: N_5  and  C_6
REMARK    6  A    between atoms: C_6  and  C_7
REMARK    7  A    between atoms: C_19  and  C_21
REMARK    8  A    between atoms: N_24  and  C_25
REMARK    9  A    between atoms: C_25  and  C_26
REMARK                            x       y       z     vdW  Elec       q    Type
REMARK                         _______ _______ _______ _____ _____    ______ ____
ROOT
ATOM      1  N   UNL     1       0.339  11.890  20.066  0.00  0.00    +0.000 N 
ATOM      2  C   UNL     1       0.677  10.658  20.620  0.00  0.00    +0.000 C 
ATOM      3  O   UNL     1       1.044  10.590  21.792  0.00  0.00    +0.000 OA
ENDROOT
BRANCH   2   4
ATOM      4  C   UNL     1       0.531   9.374  19.805  0.00  0.00    +0.000 C 
ATOM      5  C   UNL     1       0.615   8.150  20.735  0.00  0.00    +0.000 C 
ATOM      6  C   UNL     1       2.053   7.696  20.562  0.00  0.00    +0.000 C 
ATOM      7  N   UNL     1       2.304   7.854  19.118  0.00  0.00    +0.000 NA
ATOM      8  C   UNL     1       1.669   9.148  18.801  0.00  0.00    +0.000 C 
BRANCH   7   9
ATOM      9  C   UNL     1       1.689   6.741  18.374  0.00  0.00    +0.000 C 
BRANCH   9  10
ATOM     10  C   UNL     1       2.487   5.459  18.348  0.00  0.00    +0.000 A 
ATOM     11  C   UNL     1       3.672   5.373  17.597  0.00  0.00    +0.000 A 
ATOM     12  C   UNL     1       4.583   4.321  17.788  0.00  0.00    +0.000 A 
ATOM     13  C   UNL     1       4.376   3.384  18.797  0.00  0.00    +0.000 A 
ATOM     14  C   UNL     1       3.219   3.481  19.549  0.00  0.00    +0.000 A 
ATOM     15  C   UNL     1       2.233   4.434  19.255  0.00  0.00    +0.000 A 
ATOM     16  C   UNL     1       1.023   4.154  20.096  0.00  0.00    +0.000 C 
ATOM     17  C   UNL     1       1.705   3.581  21.335  0.00  0.00    +0.000 C 
ATOM     18  C   UNL     1       2.865   2.725  20.797  0.00  0.00    +0.000 C 
ENDBRANCH   9  10
ENDBRANCH   7   9
ENDBRANCH   2   4
BRANCH   1  19
ATOM     19  C   UNL     1       0.422  13.050  20.963  0.00  0.00    +0.000 C 
BRANCH  19  21
ATOM     20  C   UNL     1       2.573  13.913  19.782  0.00  0.00    +0.000 C 
ATOM     21  C   UNL     1       1.804  13.733  21.093  0.00  0.00    +0.000 C 
ATOM     22  C   UNL     1       1.728  15.065  21.834  0.00  0.00    +0.000 C 
ENDBRANCH  19  21
ENDBRANCH   1  19
BRANCH   1  23
ATOM     23  C   UNL     1      -0.090  12.135  18.682  0.00  0.00    +0.000 C 
BRANCH  23  24
ATOM     24  C   UNL     1      -1.533  11.834  18.332  0.00  0.00    +0.000 A 
ATOM     25  C   UNL     1      -1.932  11.238  17.130  0.00  0.00    +0.000 A 
ATOM     26  C   UNL     1      -3.291  11.086  16.825  0.00  0.00    +0.000 A 
ATOM     27 CL   UNL     1      -3.717  10.382  15.309  0.00  0.00    +0.000 Cl
ATOM     28  C   UNL     1      -4.276  11.516  17.729  0.00  0.00    +0.000 A 
ATOM     29  C   UNL     1      -3.891  11.994  18.982  0.00  0.00    +0.000 A 
ATOM     30  C   UNL     1      -2.530  12.158  19.276  0.00  0.00    +0.000 A 
ATOM     31  O   UNL     1      -4.776  12.162  20.012  0.00  0.00    +0.000 OA
ATOM     32  C   UNL     1      -5.719  13.216  19.823  0.00  0.00    +0.000 C 
ATOM     33  C   UNL     1      -6.824  12.890  18.827  0.00  0.00    +0.000 C 
ATOM     34  C   UNL     1      -6.259  12.663  17.436  0.00  0.00    +0.000 C 
ATOM     35  O   UNL     1      -5.594  11.397  17.372  0.00  0.00    +0.000 OA
ENDBRANCH  23  24
ENDBRANCH   1  23
TORSDOF 7
ENDMDL
MODEL 7
REMARK VINA RESULT:      -7.8      0.600      1.747
REMARK  Name = 
REMARK  9 active torsions:
REMARK  status: ('A' for Active; 'I' for Inactive)
REMARK    1  A    between atoms: C_1  and  C_2
REMARK    2  A    between atoms: C_2  and  C_3
REMARK    3  A    between atoms: C_2  and  C_4
REMARK    4  A    between atoms: C_4  and  N_5
REMARK    5  A    between atoms: N_5  and  C_6
REMARK    6  A    between atoms: C_6  and  C_7
REMARK    7  A    between atoms: C_19  and  C_21
REMARK    8  A    between atoms: N_24  and  C_25
REMARK    9  A    between atoms: C_25  and  C_26
REMARK                            x       y       z     vdW  Elec       q    Type
REMARK                         _______ _______ _______ _____ _____    ______ ____
ROOT
ATOM      1  N   UNL     1       0.231  12.111  20.586  0.00  0.00    +0.000 N 
ATOM      2  C   UNL     1       0.646  10.822  20.912  0.00  0.00    +0.000 C 
ATOM      3  O   UNL     1       1.067  10.579  22.042  0.00  0.00    +0.000 OA
ENDROOT
BRANCH   2   4
ATOM      4  C   UNL     1       0.520   9.686  19.899  0.00  0.00    +0.000 C 
ATOM      5  C   UNL     1       0.466   8.333  20.632  0.00  0.00    +0.000 C 
ATOM      6  C   UNL     1       1.892   7.830  20.512  0.00  0.00    +0.000 C 
ATOM      7  N   UNL     1       2.281   8.189  19.136  0.00  0.00    +0.000 NA
ATOM      8  C   UNL     1       1.735   9.550  18.971  0.00  0.00    +0.000 C 
BRANCH   7   9
ATOM      9  C   UNL     1       1.689   7.237  18.180  0.00  0.00    +0.000 C 
BRANCH   9  10
ATOM     10  C   UNL     1       2.361   5.887  18.108  0.00  0.00    +0.000 A 
ATOM     11  C   UNL     1       1.636   4.714  18.385  0.00  0.00    +0.000 A 
ATOM     12  C   UNL     1       2.134   3.449  18.038  0.00  0.00    +0.000 A 
ATOM     13  C   UNL     1       3.325   3.330  17.326  0.00  0.00    +0.000 A 
ATOM     14  C   UNL     1       4.028   4.485  17.037  0.00  0.00    +0.000 A 
ATOM     15  C   UNL     1       3.614   5.735  17.520  0.00  0.00    +0.000 A 
ATOM     16  C   UNL     1       4.681   6.747  17.225  0.00  0.00    +0.000 C 
ATOM     17  C   UNL     1       5.228   6.164  15.925  0.00  0.00    +0.000 C 
ATOM     18  C   UNL     1       5.215   4.639  16.131  0.00  0.00    +0.000 C 
ENDBRANCH   9  10
ENDBRANCH   7   9
ENDBRANCH   2   4
BRANCH   1  19
ATOM     19  C   UNL     1       0.304  13.109  21.661  0.00  0.00    +0.000 C 
BRANCH  19  21
ATOM     20  C   UNL     1      -1.894  14.360  22.270  0.00  0.00    +0.000 C 
ATOM     21  C   UNL     1      -0.927  13.220  22.593  0.00  0.00    +0.000 C 
ATOM     22  C   UNL     1      -1.695  11.905  22.701  0.00  0.00    +0.000 C 
ENDBRANCH  19  21
ENDBRANCH   1  19
BRANCH   1  23
ATOM     23  C   UNL     1      -0.268  12.561  19.279  0.00  0.00    +0.000 C 
BRANCH  23  24
ATOM     24  C   UNL     1      -1.624  12.055  18.836  0.00  0.00    +0.000 A 
ATOM     25  C   UNL     1      -1.818  11.228  17.722  0.00  0.00    +0.000 A 
ATOM     26  C   UNL     1      -3.111  10.884  17.304  0.00  0.00    +0.000 A 
ATOM     27 CL   UNL     1      -3.282   9.896  15.901  0.00  0.00    +0.000 Cl
ATOM     28  C   UNL     1      -4.233  11.351  18.006  0.00  0.00    +0.000 A 
ATOM     29  C   UNL     1      -4.049  12.069  19.188  0.00  0.00    +0.000 A 
ATOM     30  C   UNL     1      -2.755  12.423  19.593  0.00  0.00    +0.000 A 
ATOM     31  O   UNL     1      -5.067  12.311  20.071  0.00  0.00    +0.000 OA
ATOM     32  C   UNL     1      -6.066  13.212  19.597  0.00  0.00    +0.000 C 
ATOM     33  C   UNL     1      -7.006  12.610  18.562  0.00  0.00    +0.000 C 
ATOM     34  C   UNL     1      -6.256  12.215  17.303  0.00  0.00    +0.000 C 
ATOM     35  O   UNL     1      -5.482  11.035  17.536  0.00  0.00    +0.000 OA
ENDBRANCH  23  24
ENDBRANCH   1  23
TORSDOF 7
ENDMDL
MODEL 8
REMARK VINA RESULT:      -7.8      0.914      1.131
REMARK  Name = 
REMARK  9 active torsions:
REMARK  status: ('A' for Active; 'I' for Inactive)
REMARK    1  A    between atoms: C_1  and  C_2
REMARK    2  A    between atoms: C_2  and  C_3
REMARK    3  A    between atoms: C_2  and  C_4
REMARK    4  A    between atoms: C_4  and  N_5
REMARK    5  A    between atoms: N_5  and  C_6
REMARK    6  A    between atoms: C_6  and  C_7
REMARK    7  A    between atoms: C_19  and  C_21
REMARK    8  A    between atoms: N_24  and  C_25
REMARK    9  A    between atoms: C_25  and  C_26
REMARK                            x       y       z     vdW  Elec       q    Type
REMARK                         _______ _______ _______ _____ _____    ______ ____
ROOT
ATOM      1  N   UNL     1       0.168  12.242  20.221  0.00  0.00    +0.000 N 
ATOM      2  C   UNL     1       0.500  11.047  20.855  0.00  0.00    +0.000 C 
ATOM      3  O   UNL     1       0.824  11.051  22.042  0.00  0.00    +0.000 OA
ENDROOT
BRANCH   2   4
ATOM      4  C   UNL     1       0.400   9.718  20.110  0.00  0.00    +0.000 C 
ATOM      5  C   UNL     1       0.294   8.558  21.117  0.00  0.00    +0.000 C 
ATOM      6  C   UNL     1       1.716   8.033  21.173  0.00  0.00    +0.000 C 
ATOM      7  N   UNL     1       2.168   8.080  19.771  0.00  0.00    +0.000 NA
ATOM      8  C   UNL     1       1.650   9.376  19.289  0.00  0.00    +0.000 C 
BRANCH   7   9
ATOM      9  C   UNL     1       1.603   6.946  19.019  0.00  0.00    +0.000 C 
BRANCH   9  10
ATOM     10  C   UNL     1       2.563   6.240  18.091  0.00  0.00    +0.000 A 
ATOM     11  C   UNL     1       3.753   6.869  17.685  0.00  0.00    +0.000 A 
ATOM     12  C   UNL     1       4.793   6.143  17.083  0.00  0.00    +0.000 A 
ATOM     13  C   UNL     1       4.707   4.759  16.957  0.00  0.00    +0.000 A 
ATOM     14  C   UNL     1       3.543   4.139  17.374  0.00  0.00    +0.000 A 
ATOM     15  C   UNL     1       2.441   4.879  17.828  0.00  0.00    +0.000 A 
ATOM     16  C   UNL     1       1.274   3.953  18.003  0.00  0.00    +0.000 C 
ATOM     17  C   UNL     1       2.019   2.680  18.397  0.00  0.00    +0.000 C 
ATOM     18  C   UNL     1       3.285   2.667  17.521  0.00  0.00    +0.000 C 
ENDBRANCH   9  10
ENDBRANCH   7   9
ENDBRANCH   2   4
BRANCH   1  19
ATOM     19  C   UNL     1       0.204  13.452  21.053  0.00  0.00    +0.000 C 
BRANCH  19  21
ATOM     20  C   UNL     1      -1.678  15.212  21.404  0.00  0.00    +0.000 C 
ATOM     21  C   UNL     1      -0.548  14.692  20.514  0.00  0.00    +0.000 C 
ATOM     22  C   UNL     1       0.398  15.836  20.158  0.00  0.00    +0.000 C 
ENDBRANCH  19  21
ENDBRANCH   1  19
BRANCH   1  23
ATOM     23  C   UNL     1      -0.212  12.403  18.811  0.00  0.00    +0.000 C 
BRANCH  23  24
ATOM     24  C   UNL     1      -1.615  11.995  18.413  0.00  0.00    +0.000 A 
ATOM     25  C   UNL     1      -1.918  11.310  17.230  0.00  0.00    +0.000 A 
ATOM     26  C   UNL     1      -3.249  11.058  16.871  0.00  0.00    +0.000 A 
ATOM     27 CL   UNL     1      -3.556  10.246  15.381  0.00  0.00    +0.000 Cl
ATOM     28  C   UNL     1      -4.301  11.476  17.702  0.00  0.00    +0.000 A 
ATOM     29  C   UNL     1      -4.008  12.046  18.941  0.00  0.00    +0.000 A 
ATOM     30  C   UNL     1      -2.676  12.309  19.288  0.00  0.00    +0.000 A 
ATOM     31  O   UNL     1      -4.952  12.216  19.918  0.00  0.00    +0.000 OA
ATOM     32  C   UNL     1      -5.944  13.198  19.624  0.00  0.00    +0.000 C 
ATOM     33  C   UNL     1      -6.977  12.750  18.598  0.00  0.00    +0.000 C 
ATOM     34  C   UNL     1      -6.331  12.481  17.251  0.00  0.00    +0.000 C 
ATOM     35  O   UNL     1      -5.591  11.257  17.292  0.00  0.00    +0.000 OA
ENDBRANCH  23  24
ENDBRANCH   1  23
TORSDOF 7
ENDMDL
MODEL 9
REMARK VINA RESULT:      -7.6      0.992      1.250
REMARK  Name = 
REMARK  9 active torsions:
REMARK  status: ('A' for Active; 'I' for Inactive)
REMARK    1  A    between atoms: C_1  and  C_2
REMARK    2  A    between atoms: C_2  and  C_3
REMARK    3  A    between atoms: C_2  and  C_4
REMARK    4  A    between atoms: C_4  and  N_5
REMARK    5  A    between atoms: N_5  and  C_6
REMARK    6  A    between atoms: C_6  and  C_7
REMARK    7  A    between atoms: C_19  and  C_21
REMARK    8  A    between atoms: N_24  and  C_25
REMARK    9  A    between atoms: C_25  and  C_26
REMARK                            x       y       z     vdW  Elec       q    Type
REMARK                         _______ _______ _______ _____ _____    ______ ____
ROOT
ATOM      1  N   UNL     1       0.288  11.841  20.618  0.00  0.00    +0.000 N 
ATOM      2  C   UNL     1       0.609  10.559  21.061  0.00  0.00    +0.000 C 
ATOM      3  O   UNL     1       0.949  10.381  22.229  0.00  0.00    +0.000 OA
ENDROOT
BRANCH   2   4
ATOM      4  C   UNL     1       0.478   9.359  20.126  0.00  0.00    +0.000 C 
ATOM      5  C   UNL     1       0.534   8.052  20.940  0.00  0.00    +0.000 C 
ATOM      6  C   UNL     1       1.974   7.607  20.759  0.00  0.00    +0.000 C 
ATOM      7  N   UNL     1       2.260   7.898  19.343  0.00  0.00    +0.000 NA
ATOM      8  C   UNL     1       1.639   9.220  19.133  0.00  0.00    +0.000 C 
BRANCH   7   9
ATOM      9  C   UNL     1       1.659   6.863  18.483  0.00  0.00    +0.000 C 
BRANCH   9  10
ATOM     10  C   UNL     1       2.441   5.576  18.375  0.00  0.00    +0.000 A 
ATOM     11  C   UNL     1       3.604   5.512  17.588  0.00  0.00    +0.000 A 
ATOM     12  C   UNL     1       4.507   4.444  17.704  0.00  0.00    +0.000 A 
ATOM     13  C   UNL     1       4.317   3.462  18.673  0.00  0.00    +0.000 A 
ATOM     14  C   UNL     1       3.182   3.535  19.460  0.00  0.00    +0.000 A 
ATOM     15  C   UNL     1       2.200   4.511  19.239  0.00  0.00    +0.000 A 
ATOM     16  C   UNL     1       1.009   4.205  20.099  0.00  0.00    +0.000 C 
ATOM     17  C   UNL     1       1.718   3.566  21.291  0.00  0.00    +0.000 C 
ATOM     18  C   UNL     1       2.853   2.724  20.680  0.00  0.00    +0.000 C 
ENDBRANCH   9  10
ENDBRANCH   7   9
ENDBRANCH   2   4
BRANCH   1  19
ATOM     19  C   UNL     1       0.355  12.911  21.621  0.00  0.00    +0.000 C 
BRANCH  19  21
ATOM     20  C   UNL     1      -1.751  14.329  22.186  0.00  0.00    +0.000 C 
ATOM     21  C   UNL     1      -0.892  13.106  22.515  0.00  0.00    +0.000 C 
ATOM     22  C   UNL     1      -1.770  11.859  22.570  0.00  0.00    +0.000 C 
ENDBRANCH  19  21
ENDBRANCH   1  19
BRANCH   1  23
ATOM     23  C   UNL     1      -0.108  12.216  19.253  0.00  0.00    +0.000 C 
BRANCH  23  24
ATOM     24  C   UNL     1      -1.490  11.808  18.788  0.00  0.00    +0.000 A 
ATOM     25  C   UNL     1      -1.723  10.974  17.687  0.00  0.00    +0.000 A 
ATOM     26  C   UNL     1      -3.030  10.723  17.246  0.00  0.00    +0.000 A 
ATOM     27 CL   UNL     1      -3.247   9.721  15.859  0.00  0.00    +0.000 Cl
ATOM     28  C   UNL     1      -4.127  11.292  17.911  0.00  0.00    +0.000 A 
ATOM     29  C   UNL     1      -3.914  12.019  19.082  0.00  0.00    +0.000 A 
ATOM     30  C   UNL     1      -2.605  12.280  19.511  0.00  0.00    +0.000 A 
ATOM     31  O   UNL     1      -4.928  12.360  19.936  0.00  0.00    +0.000 OA
ATOM     32  C   UNL     1      -5.843  13.326  19.420  0.00  0.00    +0.000 C 
ATOM     33  C   UNL     1      -6.804  12.776  18.375  0.00  0.00    +0.000 C 
ATOM     34  C   UNL     1      -6.060  12.296  17.142  0.00  0.00    +0.000 C 
ATOM     35  O   UNL     1      -5.386  11.064  17.418  0.00  0.00    +0.000 OA
ENDBRANCH  23  24
ENDBRANCH   1  23
TORSDOF 7
ENDMDL
