MODEL 1
REMARK VINA RESULT:      -5.7      0.000      0.000
REMARK  Name = 
REMARK  5 active torsions:
REMARK  status: ('A' for Active; 'I' for Inactive)
REMARK    1  A    between atoms: C_1  and  O_2
REMARK    2  A    between atoms: O_2  and  C_3
REMARK    3  A    between atoms: C_6  and  O_7
REMARK    4  A    between atoms: O_7  and  C_8
REMARK    5  A    between atoms: C_8  and  C_9
REMARK                            x       y       z     vdW  Elec       q    Type
REMARK                         _______ _______ _______ _____ _____    ______ ____
ROOT
ATOM      1  C   UNL     1       2.235   2.757  19.031  0.00  0.00    +0.000 A 
ATOM      2  C   UNL     1       1.961   4.111  18.834  0.00  0.00    +0.000 A 
ATOM      3  C   UNL     1       2.710   4.864  17.929  0.00  0.00    +0.000 A 
ATOM      4  C   UNL     1       3.773   4.278  17.244  0.00  0.00    +0.000 A 
ATOM      5  C   UNL     1       4.030   2.915  17.417  0.00  0.00    +0.000 A 
ATOM      6  C   UNL     1       3.268   2.158  18.314  0.00  0.00    +0.000 A 
ENDROOT
BRANCH   1   8
ATOM      7  C   UNL     1       1.298   2.862  21.197  0.00  0.00    +0.000 C 
ATOM      8  O   UNL     1       1.461   2.149  19.977  0.00  0.00    +0.000 OA
ENDBRANCH   1   8
BRANCH   4   9
ATOM      9  O   UNL     1       4.621   4.938  16.394  0.00  0.00    +0.000 OA
BRANCH   9  10
ATOM     10  C   UNL     1       5.965   4.451  16.390  0.00  0.00    +0.000 C 
BRANCH  10  11
ATOM     11  C   UNL     1       6.803   5.390  17.191  0.00  0.00    +0.000 A 
ATOM     12  C   UNL     1       7.497   5.190  18.370  0.00  0.00    +0.000 A 
ATOM     13  N   UNL     1       8.118   6.307  18.901  0.00  0.00    +0.000 NA
ATOM     14  C   UNL     1       7.879   7.325  18.113  0.00  0.00    +0.000 A 
ATOM     15 CL   UNL     1       8.457   8.906  18.446  0.00  0.00    +0.000 Cl
ATOM     16  S   UNL     1       6.943   7.041  16.726  0.00  0.00    +0.000 S 
ENDBRANCH  10  11
ENDBRANCH   9  10
ENDBRANCH   4   9
TORSDOF 4
ENDMDL
MODEL 2
REMARK VINA RESULT:      -5.7      3.823      6.386
REMARK  Name = 
REMARK  5 active torsions:
REMARK  status: ('A' for Active; 'I' for Inactive)
REMARK    1  A    between atoms: C_1  and  O_2
REMARK    2  A    between atoms: O_2  and  C_3
REMARK    3  A    between atoms: C_6  and  O_7
REMARK    4  A    between atoms: O_7  and  C_8
REMARK    5  A    between atoms: C_8  and  C_9
REMARK                            x       y       z     vdW  Elec       q    Type
REMARK                         _______ _______ _______ _____ _____    ______ ____
ROOT
ATOM      1  C   UNL     1       7.755   7.214  18.201  0.00  0.00    +0.000 A 
ATOM      2  C   UNL     1       7.801   6.054  18.974  0.00  0.00    +0.000 A 
ATOM      3  C   UNL     1       6.925   4.997  18.724  0.00  0.00    +0.000 A 
ATOM      4  C   UNL     1       5.962   5.110  17.724  0.00  0.00    +0.000 A 
ATOM      5  C   UNL     1       5.933   6.258  16.927  0.00  0.00    +0.000 A 
ATOM      6  C   UNL     1       6.823   7.311  17.169  0.00  0.00    +0.000 A 
ENDROOT
BRANCH   1   8
ATOM      7  C   UNL     1       8.374   9.489  18.064  0.00  0.00    +0.000 C 
ATOM      8  O   UNL     1       8.633   8.189  18.579  0.00  0.00    +0.000 OA
ENDBRANCH   1   8
BRANCH   4   9
ATOM      9  O   UNL     1       5.004   4.171  17.444  0.00  0.00    +0.000 OA
BRANCH   9  10
ATOM     10  C   UNL     1       3.677   4.687  17.318  0.00  0.00    +0.000 C 
BRANCH  10  11
ATOM     11  C   UNL     1       2.979   4.500  18.622  0.00  0.00    +0.000 A 
ATOM     12  C   UNL     1       2.523   5.431  19.538  0.00  0.00    +0.000 A 
ATOM     13  N   UNL     1       1.982   4.917  20.703  0.00  0.00    +0.000 NA
ATOM     14  C   UNL     1       2.042   3.610  20.644  0.00  0.00    +0.000 A 
ATOM     15 CL   UNL     1       1.495   2.601  21.919  0.00  0.00    +0.000 Cl
ATOM     16  S   UNL     1       2.710   2.918  19.245  0.00  0.00    +0.000 S 
ENDBRANCH  10  11
ENDBRANCH   9  10
ENDBRANCH   4   9
TORSDOF 4
ENDMDL
MODEL 3
REMARK VINA RESULT:      -5.7      3.935      6.556
REMARK  Name = 
REMARK  5 active torsions:
REMARK  status: ('A' for Active; 'I' for Inactive)
REMARK    1  A    between atoms: C_1  and  O_2
REMARK    2  A    between atoms: O_2  and  C_3
REMARK    3  A    between atoms: C_6  and  O_7
REMARK    4  A    between atoms: O_7  and  C_8
REMARK    5  A    between atoms: C_8  and  C_9
REMARK                            x       y       z     vdW  Elec       q    Type
REMARK                         _______ _______ _______ _____ _____    ______ ____
ROOT
ATOM      1  C   UNL     1       7.660   7.737  17.828  0.00  0.00    +0.000 A 
ATOM      2  C   UNL     1       6.521   7.408  17.092  0.00  0.00    +0.000 A 
ATOM      3  C   UNL     1       5.876   6.186  17.288  0.00  0.00    +0.000 A 
ATOM      4  C   UNL     1       6.392   5.262  18.194  0.00  0.00    +0.000 A 
ATOM      5  C   UNL     1       7.514   5.601  18.955  0.00  0.00    +0.000 A 
ATOM      6  C   UNL     1       8.151   6.834  18.768  0.00  0.00    +0.000 A 
ENDROOT
BRANCH   1   8
ATOM      7  C   UNL     1       8.813   9.655  18.583  0.00  0.00    +0.000 C 
ATOM      8  O   UNL     1       8.220   8.941  17.506  0.00  0.00    +0.000 OA
ENDBRANCH   1   8
BRANCH   4   9
ATOM      9  O   UNL     1       5.888   4.006  18.411  0.00  0.00    +0.000 OA
BRANCH   9  10
ATOM     10  C   UNL     1       4.746   3.675  17.617  0.00  0.00    +0.000 C 
BRANCH  10  11
ATOM     11  C   UNL     1       3.558   3.605  18.516  0.00  0.00    +0.000 A 
ATOM     12  C   UNL     1       2.364   4.302  18.484  0.00  0.00    +0.000 A 
ATOM     13  N   UNL     1       1.491   4.054  19.528  0.00  0.00    +0.000 NA
ATOM     14  C   UNL     1       2.043   3.176  20.327  0.00  0.00    +0.000 A 
ATOM     15 CL   UNL     1       1.283   2.627  21.764  0.00  0.00    +0.000 Cl
ATOM     16  S   UNL     1       3.581   2.591  19.907  0.00  0.00    +0.000 S 
ENDBRANCH  10  11
ENDBRANCH   9  10
ENDBRANCH   4   9
TORSDOF 4
ENDMDL
MODEL 4
REMARK VINA RESULT:      -5.7      4.001      6.227
REMARK  Name = 
REMARK  5 active torsions:
REMARK  status: ('A' for Active; 'I' for Inactive)
REMARK    1  A    between atoms: C_1  and  O_2
REMARK    2  A    between atoms: O_2  and  C_3
REMARK    3  A    between atoms: C_6  and  O_7
REMARK    4  A    between atoms: O_7  and  C_8
REMARK    5  A    between atoms: C_8  and  C_9
REMARK                            x       y       z     vdW  Elec       q    Type
REMARK                         _______ _______ _______ _____ _____    ______ ____
ROOT
ATOM      1  C   UNL     1       6.898   5.980  16.640  0.00  0.00    +0.000 A 
ATOM      2  C   UNL     1       5.918   6.184  17.612  0.00  0.00    +0.000 A 
ATOM      3  C   UNL     1       4.919   5.234  17.826  0.00  0.00    +0.000 A 
ATOM      4  C   UNL     1       4.865   4.088  17.035  0.00  0.00    +0.000 A 
ATOM      5  C   UNL     1       5.862   3.865  16.082  0.00  0.00    +0.000 A 
ATOM      6  C   UNL     1       6.873   4.813  15.879  0.00  0.00    +0.000 A 
ENDROOT
BRANCH   1   8
ATOM      7  C   UNL     1       7.756   7.996  17.521  0.00  0.00    +0.000 C 
ATOM      8  O   UNL     1       7.788   7.006  16.500  0.00  0.00    +0.000 OA
ENDBRANCH   1   8
BRANCH   4   9
ATOM      9  O   UNL     1       3.888   3.129  17.105  0.00  0.00    +0.000 OA
BRANCH   9  10
ATOM     10  C   UNL     1       2.551   3.635  17.098  0.00  0.00    +0.000 C 
BRANCH  10  11
ATOM     11  C   UNL     1       2.050   3.648  18.502  0.00  0.00    +0.000 A 
ATOM     12  C   UNL     1       1.651   4.703  19.304  0.00  0.00    +0.000 A 
ATOM     13  N   UNL     1       1.312   4.377  20.605  0.00  0.00    +0.000 NA
ATOM     14  C   UNL     1       1.462   3.085  20.759  0.00  0.00    +0.000 A 
ATOM     15 CL   UNL     1       1.168   2.292  22.252  0.00  0.00    +0.000 Cl
ATOM     16  S   UNL     1       1.986   2.191  19.415  0.00  0.00    +0.000 S 
ENDBRANCH  10  11
ENDBRANCH   9  10
ENDBRANCH   4   9
TORSDOF 4
ENDMDL
MODEL 5
REMARK VINA RESULT:      -5.6      4.246      6.405
REMARK  Name = 
REMARK  5 active torsions:
REMARK  status: ('A' for Active; 'I' for Inactive)
REMARK    1  A    between atoms: C_1  and  O_2
REMARK    2  A    between atoms: O_2  and  C_3
REMARK    3  A    between atoms: C_6  and  O_7
REMARK    4  A    between atoms: O_7  and  C_8
REMARK    5  A    between atoms: C_8  and  C_9
REMARK                            x       y       z     vdW  Elec       q    Type
REMARK                         _______ _______ _______ _____ _____    ______ ____
ROOT
ATOM      1  C   UNL     1       6.711   5.360  15.747  0.00  0.00    +0.000 A 
ATOM      2  C   UNL     1       7.187   4.626  16.834  0.00  0.00    +0.000 A 
ATOM      3  C   UNL     1       6.560   4.709  18.078  0.00  0.00    +0.000 A 
ATOM      4  C   UNL     1       5.473   5.562  18.256  0.00  0.00    +0.000 A 
ATOM      5  C   UNL     1       4.974   6.274  17.162  0.00  0.00    +0.000 A 
ATOM      6  C   UNL     1       5.596   6.179  15.912  0.00  0.00    +0.000 A 
ENDROOT
BRANCH   1   8
ATOM      7  C   UNL     1       6.814   4.510  13.546  0.00  0.00    +0.000 C 
ATOM      8  O   UNL     1       7.442   5.226  14.602  0.00  0.00    +0.000 OA
ENDBRANCH   1   8
BRANCH   4   9
ATOM      9  O   UNL     1       4.831   5.779  19.448  0.00  0.00    +0.000 OA
BRANCH   9  10
ATOM     10  C   UNL     1       3.502   6.294  19.327  0.00  0.00    +0.000 C 
BRANCH  10  11
ATOM     11  C   UNL     1       2.546   5.175  19.566  0.00  0.00    +0.000 A 
ATOM     12  C   UNL     1       2.002   4.694  20.744  0.00  0.00    +0.000 A 
ATOM     13  N   UNL     1       1.198   3.575  20.624  0.00  0.00    +0.000 NA
ATOM     14  C   UNL     1       1.151   3.234  19.361  0.00  0.00    +0.000 A 
ATOM     15 CL   UNL     1       0.273   1.868  18.804  0.00  0.00    +0.000 Cl
ATOM     16  S   UNL     1       2.018   4.190  18.258  0.00  0.00    +0.000 S 
ENDBRANCH  10  11
ENDBRANCH   9  10
ENDBRANCH   4   9
TORSDOF 4
ENDMDL
MODEL 6
REMARK VINA RESULT:      -5.6      3.502      5.771
REMARK  Name = 
REMARK  5 active torsions:
REMARK  status: ('A' for Active; 'I' for Inactive)
REMARK    1  A    between atoms: C_1  and  O_2
REMARK    2  A    between atoms: O_2  and  C_3
REMARK    3  A    between atoms: C_6  and  O_7
REMARK    4  A    between atoms: O_7  and  C_8
REMARK    5  A    between atoms: C_8  and  C_9
REMARK                            x       y       z     vdW  Elec       q    Type
REMARK                         _______ _______ _______ _____ _____    ______ ____
ROOT
ATOM      1  C   UNL     1       6.878   4.974  15.736  0.00  0.00    +0.000 A 
ATOM      2  C   UNL     1       5.607   4.513  15.392  0.00  0.00    +0.000 A 
ATOM      3  C   UNL     1       4.694   4.142  16.380  0.00  0.00    +0.000 A 
ATOM      4  C   UNL     1       5.061   4.188  17.724  0.00  0.00    +0.000 A 
ATOM      5  C   UNL     1       6.322   4.679  18.072  0.00  0.00    +0.000 A 
ATOM      6  C   UNL     1       7.232   5.065  17.081  0.00  0.00    +0.000 A 
ENDROOT
BRANCH   1   8
ATOM      7  C   UNL     1       7.239   4.793  13.409  0.00  0.00    +0.000 C 
ATOM      8  O   UNL     1       7.690   5.258  14.675  0.00  0.00    +0.000 OA
ENDBRANCH   1   8
BRANCH   4   9
ATOM      9  O   UNL     1       4.275   3.777  18.769  0.00  0.00    +0.000 OA
BRANCH   9  10
ATOM     10  C   UNL     1       2.871   3.951  18.567  0.00  0.00    +0.000 C 
BRANCH  10  11
ATOM     11  C   UNL     1       2.501   5.321  19.026  0.00  0.00    +0.000 A 
ATOM     12  C   UNL     1       2.667   6.549  18.412  0.00  0.00    +0.000 A 
ATOM     13  N   UNL     1       2.281   7.651  19.154  0.00  0.00    +0.000 NA
ATOM     14  C   UNL     1       1.832   7.233  20.311  0.00  0.00    +0.000 A 
ATOM     15 CL   UNL     1       1.282   8.307  21.532  0.00  0.00    +0.000 Cl
ATOM     16  S   UNL     1       1.824   5.559  20.590  0.00  0.00    +0.000 S 
ENDBRANCH  10  11
ENDBRANCH   9  10
ENDBRANCH   4   9
TORSDOF 4
ENDMDL
MODEL 7
REMARK VINA RESULT:      -5.6      3.368      3.887
REMARK  Name = 
REMARK  5 active torsions:
REMARK  status: ('A' for Active; 'I' for Inactive)
REMARK    1  A    between atoms: C_1  and  O_2
REMARK    2  A    between atoms: O_2  and  C_3
REMARK    3  A    between atoms: C_6  and  O_7
REMARK    4  A    between atoms: O_7  and  C_8
REMARK    5  A    between atoms: C_8  and  C_9
REMARK                            x       y       z     vdW  Elec       q    Type
REMARK                         _______ _______ _______ _____ _____    ______ ____
ROOT
ATOM      1  C   UNL     1       1.698   6.283  20.528  0.00  0.00    +0.000 A 
ATOM      2  C   UNL     1       2.467   6.910  19.546  0.00  0.00    +0.000 A 
ATOM      3  C   UNL     1       3.443   6.200  18.847  0.00  0.00    +0.000 A 
ATOM      4  C   UNL     1       3.690   4.864  19.155  0.00  0.00    +0.000 A 
ATOM      5  C   UNL     1       2.902   4.225  20.116  0.00  0.00    +0.000 A 
ATOM      6  C   UNL     1       1.912   4.935  20.806  0.00  0.00    +0.000 A 
ENDROOT
BRANCH   1   8
ATOM      7  C   UNL     1       1.131   8.486  21.162  0.00  0.00    +0.000 C 
ATOM      8  O   UNL     1       0.811   7.101  21.169  0.00  0.00    +0.000 OA
ENDBRANCH   1   8
BRANCH   4   9
ATOM      9  O   UNL     1       4.673   4.094  18.589  0.00  0.00    +0.000 OA
BRANCH   9  10
ATOM     10  C   UNL     1       5.949   4.732  18.486  0.00  0.00    +0.000 C 
BRANCH  10  11
ATOM     11  C   UNL     1       6.354   4.736  17.051  0.00  0.00    +0.000 A 
ATOM     12  C   UNL     1       7.256   5.537  16.374  0.00  0.00    +0.000 A 
ATOM     13  N   UNL     1       7.340   5.330  15.009  0.00  0.00    +0.000 NA
ATOM     14  C   UNL     1       6.500   4.380  14.683  0.00  0.00    +0.000 A 
ATOM     15 CL   UNL     1       6.286   3.850  13.065  0.00  0.00    +0.000 Cl
ATOM     16  S   UNL     1       5.589   3.676  15.930  0.00  0.00    +0.000 S 
ENDBRANCH  10  11
ENDBRANCH   9  10
ENDBRANCH   4   9
TORSDOF 4
ENDMDL
MODEL 8
REMARK VINA RESULT:      -5.5      4.045      6.062
REMARK  Name = 
REMARK  5 active torsions:
REMARK  status: ('A' for Active; 'I' for Inactive)
REMARK    1  A    between atoms: C_1  and  O_2
REMARK    2  A    between atoms: O_2  and  C_3
REMARK    3  A    between atoms: C_6  and  O_7
REMARK    4  A    between atoms: O_7  and  C_8
REMARK    5  A    between atoms: C_8  and  C_9
REMARK                            x       y       z     vdW  Elec       q    Type
REMARK                         _______ _______ _______ _____ _____    ______ ____
ROOT
ATOM      1  C   UNL     1       6.583   4.811  14.693  0.00  0.00    +0.000 A 
ATOM      2  C   UNL     1       5.547   5.714  14.939  0.00  0.00    +0.000 A 
ATOM      3  C   UNL     1       5.260   6.130  16.239  0.00  0.00    +0.000 A 
ATOM      4  C   UNL     1       5.979   5.611  17.314  0.00  0.00    +0.000 A 
ATOM      5  C   UNL     1       7.036   4.730  17.069  0.00  0.00    +0.000 A 
ATOM      6  C   UNL     1       7.334   4.326  15.762  0.00  0.00    +0.000 A 
ENDROOT
BRANCH   1   8
ATOM      7  C   UNL     1       5.797   3.493  12.899  0.00  0.00    +0.000 C 
ATOM      8  O   UNL     1       6.729   4.451  13.384  0.00  0.00    +0.000 OA
ENDBRANCH   1   8
BRANCH   4   9
ATOM      9  O   UNL     1       5.732   5.888  18.633  0.00  0.00    +0.000 OA
BRANCH   9  10
ATOM     10  C   UNL     1       5.432   4.746  19.439  0.00  0.00    +0.000 C 
BRANCH  10  11
ATOM     11  C   UNL     1       3.978   4.445  19.296  0.00  0.00    +0.000 A 
ATOM     12  C   UNL     1       2.869   5.244  19.511  0.00  0.00    +0.000 A 
ATOM     13  N   UNL     1       1.641   4.624  19.363  0.00  0.00    +0.000 NA
ATOM     14  C   UNL     1       1.847   3.372  19.042  0.00  0.00    +0.000 A 
ATOM     15 CL   UNL     1       0.566   2.257  18.799  0.00  0.00    +0.000 Cl
ATOM     16  S   UNL     1       3.457   2.857  18.884  0.00  0.00    +0.000 S 
ENDBRANCH  10  11
ENDBRANCH   9  10
ENDBRANCH   4   9
TORSDOF 4
ENDMDL
MODEL 9
REMARK VINA RESULT:      -5.4      4.196      5.794
REMARK  Name = 
REMARK  5 active torsions:
REMARK  status: ('A' for Active; 'I' for Inactive)
REMARK    1  A    between atoms: C_1  and  O_2
REMARK    2  A    between atoms: O_2  and  C_3
REMARK    3  A    between atoms: C_6  and  O_7
REMARK    4  A    between atoms: O_7  and  C_8
REMARK    5  A    between atoms: C_8  and  C_9
REMARK                            x       y       z     vdW  Elec       q    Type
REMARK                         _______ _______ _______ _____ _____    ______ ____
ROOT
ATOM      1  C   UNL     1       6.208   5.253  17.149  0.00  0.00    +0.000 A 
ATOM      2  C   UNL     1       7.065   4.890  18.189  0.00  0.00    +0.000 A 
ATOM      3  C   UNL     1       7.886   5.840  18.799  0.00  0.00    +0.000 A 
ATOM      4  C   UNL     1       7.889   7.156  18.342  0.00  0.00    +0.000 A 
ATOM      5  C   UNL     1       7.010   7.529  17.322  0.00  0.00    +0.000 A 
ATOM      6  C   UNL     1       6.176   6.578  16.721  0.00  0.00    +0.000 A 
ENDROOT
BRANCH   1   8
ATOM      7  C   UNL     1       5.957   3.740  15.353  0.00  0.00    +0.000 C 
ATOM      8  O   UNL     1       5.495   4.221  16.609  0.00  0.00    +0.000 OA
ENDBRANCH   1   8
BRANCH   4   9
ATOM      9  O   UNL     1       8.707   8.150  18.813  0.00  0.00    +0.000 OA
BRANCH   9  10
ATOM     10  C   UNL     1       8.478   9.438  18.236  0.00  0.00    +0.000 C 
BRANCH  10  11
ATOM     11  C   UNL     1       9.295  10.436  18.985  0.00  0.00    +0.000 A 
ATOM     12  C   UNL     1       9.362  10.707  20.340  0.00  0.00    +0.000 A 
ATOM     13  N   UNL     1      10.173  11.767  20.703  0.00  0.00    +0.000 NA
ATOM     14  C   UNL     1      10.701  12.274  19.618  0.00  0.00    +0.000 A 
ATOM     15 CL   UNL     1      11.750  13.632  19.647  0.00  0.00    +0.000 Cl
ATOM     16  S   UNL     1      10.297  11.549  18.137  0.00  0.00    +0.000 S 
ENDBRANCH  10  11
ENDBRANCH   9  10
ENDBRANCH   4   9
TORSDOF 4
ENDMDL
