MODEL 1
REMARK VINA RESULT:      -8.2      0.000      0.000
REMARK  Name = 
REMARK  5 active torsions:
REMARK  status: ('A' for Active; 'I' for Inactive)
REMARK    1  A    between atoms: C_2  and  C_3
REMARK    2  A    between atoms: C_3  and  N_4
REMARK    3  A    between atoms: N_7  and  C_8
REMARK    4  A    between atoms: C_8  and  C_9
REMARK    5  A    between atoms: N_14  and  C_15
REMARK                            x       y       z     vdW  Elec       q    Type
REMARK                         _______ _______ _______ _____ _____    ______ ____
ROOT
ATOM      1  O   UNL     1       4.331   6.373  16.603  0.00  0.00    +0.000 OA
ATOM      2  C   UNL     1       5.243   5.995  17.344  0.00  0.00    +0.000 C 
ATOM      3  N   UNL     1       5.084   5.431  18.602  0.00  0.00    +0.000 N 
ATOM      4  H   UNL     1       5.897   5.363  19.209  0.00  0.00    +0.000 HD
ENDROOT
BRANCH   3   5
ATOM      5  C   UNL     1       3.867   5.012  19.188  0.00  0.00    +0.000 A 
ATOM      6  C   UNL     1       3.039   5.857  19.936  0.00  0.00    +0.000 A 
ATOM      7  C   UNL     1       1.813   5.397  20.461  0.00  0.00    +0.000 A 
ATOM      8  C   UNL     1       1.398   4.084  20.251  0.00  0.00    +0.000 A 
ATOM      9  C   UNL     1       2.227   3.264  19.518  0.00  0.00    +0.000 A 
ATOM     10  C   UNL     1       3.422   3.712  18.995  0.00  0.00    +0.000 A 
ATOM     11  O   UNL     1       4.074   2.724  18.310  0.00  0.00    +0.000 OA
ATOM     12  C   UNL     1       3.163   1.614  18.490  0.00  0.00    +0.000 C 
ATOM     13  O   UNL     1       1.978   1.958  19.232  0.00  0.00    +0.000 OA
ENDBRANCH   3   5
BRANCH   2  14
ATOM     14  C   UNL     1       6.709   6.153  16.928  0.00  0.00    +0.000 C 
BRANCH  14  15
ATOM     15  N   UNL     1       7.133   7.544  16.937  0.00  0.00    +0.000 N 
ATOM     16  C   UNL     1       7.941   8.001  17.943  0.00  0.00    +0.000 C 
ATOM     17  O   UNL     1       8.402   7.274  18.812  0.00  0.00    +0.000 OA
ATOM     18  N   UNL     1       8.164   9.350  17.869  0.00  0.00    +0.000 N 
ATOM     19  H   UNL     1       6.534   8.205  16.459  0.00  0.00    +0.000 HD
ATOM     20  H   UNL     1       7.987   9.798  16.982  0.00  0.00    +0.000 HD
BRANCH  18  21
ATOM     21  C   UNL     1       9.016  10.034  18.826  0.00  0.00    +0.000 C 
BRANCH  21  22
ATOM     22  C   UNL     1       9.942  11.062  18.173  0.00  0.00    +0.000 C 
ATOM     23  C   UNL     1       9.241  12.361  17.778  0.00  0.00    +0.000 C 
ATOM     24  C   UNL     1      10.391  13.339  17.566  0.00  0.00    +0.000 C 
ATOM     25  C   UNL     1      11.497  12.892  18.522  0.00  0.00    +0.000 C 
ATOM     26  C   UNL     1      11.032  11.565  19.121  0.00  0.00    +0.000 C 
ENDBRANCH  21  22
ENDBRANCH  18  21
ENDBRANCH  14  15
ENDBRANCH   2  14
TORSDOF 5
ENDMDL
MODEL 2
REMARK VINA RESULT:      -8.2      1.326      1.619
REMARK  Name = 
REMARK  5 active torsions:
REMARK  status: ('A' for Active; 'I' for Inactive)
REMARK    1  A    between atoms: C_2  and  C_3
REMARK    2  A    between atoms: C_3  and  N_4
REMARK    3  A    between atoms: N_7  and  C_8
REMARK    4  A    between atoms: C_8  and  C_9
REMARK    5  A    between atoms: N_14  and  C_15
REMARK                            x       y       z     vdW  Elec       q    Type
REMARK                         _______ _______ _______ _____ _____    ______ ____
ROOT
ATOM      1  O   UNL     1       6.663   5.088  20.088  0.00  0.00    +0.000 OA
ATOM      2  C   UNL     1       6.384   5.390  18.925  0.00  0.00    +0.000 C 
ATOM      3  N   UNL     1       5.133   5.274  18.336  0.00  0.00    +0.000 N 
ATOM      4  H   UNL     1       5.065   5.339  17.323  0.00  0.00    +0.000 HD
ENDROOT
BRANCH   3   5
ATOM      5  C   UNL     1       3.918   4.975  18.995  0.00  0.00    +0.000 A 
ATOM      6  C   UNL     1       3.172   5.921  19.708  0.00  0.00    +0.000 A 
ATOM      7  C   UNL     1       1.944   5.578  20.310  0.00  0.00    +0.000 A 
ATOM      8  C   UNL     1       1.442   4.282  20.212  0.00  0.00    +0.000 A 
ATOM      9  C   UNL     1       2.190   3.361  19.512  0.00  0.00    +0.000 A 
ATOM     10  C   UNL     1       3.388   3.694  18.914  0.00  0.00    +0.000 A 
ATOM     11  O   UNL     1       3.951   2.622  18.281  0.00  0.00    +0.000 OA
ATOM     12  C   UNL     1       2.983   1.587  18.575  0.00  0.00    +0.000 C 
ATOM     13  O   UNL     1       1.852   2.056  19.333  0.00  0.00    +0.000 OA
ENDBRANCH   3   5
BRANCH   2  14
ATOM     14  C   UNL     1       7.459   5.919  17.970  0.00  0.00    +0.000 C 
BRANCH  14  15
ATOM     15  N   UNL     1       8.137   7.090  18.505  0.00  0.00    +0.000 N 
ATOM     16  C   UNL     1       7.946   8.312  17.919  0.00  0.00    +0.000 C 
ATOM     17  O   UNL     1       7.161   8.495  16.999  0.00  0.00    +0.000 OA
ATOM     18  N   UNL     1       8.731   9.289  18.468  0.00  0.00    +0.000 N 
ATOM     19  H   UNL     1       8.997   6.925  19.012  0.00  0.00    +0.000 HD
ATOM     20  H   UNL     1       9.118   9.110  19.383  0.00  0.00    +0.000 HD
BRANCH  18  21
ATOM     21  C   UNL     1       8.665  10.666  18.010  0.00  0.00    +0.000 C 
BRANCH  21  22
ATOM     22  C   UNL     1       9.602  11.597  18.780  0.00  0.00    +0.000 C 
ATOM     23  C   UNL     1       9.695  11.284  20.272  0.00  0.00    +0.000 C 
ATOM     24  C   UNL     1      10.953  12.021  20.717  0.00  0.00    +0.000 C 
ATOM     25  C   UNL     1      11.878  12.032  19.500  0.00  0.00    +0.000 C 
ATOM     26  C   UNL     1      11.061  11.470  18.338  0.00  0.00    +0.000 C 
ENDBRANCH  21  22
ENDBRANCH  18  21
ENDBRANCH  14  15
ENDBRANCH   2  14
TORSDOF 5
ENDMDL
MODEL 3
REMARK VINA RESULT:      -8.1      3.574      6.271
REMARK  Name = 
REMARK  5 active torsions:
REMARK  status: ('A' for Active; 'I' for Inactive)
REMARK    1  A    between atoms: C_2  and  C_3
REMARK    2  A    between atoms: C_3  and  N_4
REMARK    3  A    between atoms: N_7  and  C_8
REMARK    4  A    between atoms: C_8  and  C_9
REMARK    5  A    between atoms: N_14  and  C_15
REMARK                            x       y       z     vdW  Elec       q    Type
REMARK                         _______ _______ _______ _____ _____    ______ ____
ROOT
ATOM      1  O   UNL     1       6.540   4.927  19.922  0.00  0.00    +0.000 OA
ATOM      2  C   UNL     1       6.139   5.563  18.943  0.00  0.00    +0.000 C 
ATOM      3  N   UNL     1       4.829   5.612  18.490  0.00  0.00    +0.000 N 
ATOM      4  H   UNL     1       4.651   5.980  17.559  0.00  0.00    +0.000 HD
ENDROOT
BRANCH   3   5
ATOM      5  C   UNL     1       3.688   5.109  19.158  0.00  0.00    +0.000 A 
ATOM      6  C   UNL     1       2.869   5.890  19.983  0.00  0.00    +0.000 A 
ATOM      7  C   UNL     1       1.718   5.346  20.591  0.00  0.00    +0.000 A 
ATOM      8  C   UNL     1       1.369   4.013  20.388  0.00  0.00    +0.000 A 
ATOM      9  C   UNL     1       2.189   3.257  19.579  0.00  0.00    +0.000 A 
ATOM     10  C   UNL     1       3.310   3.786  18.975  0.00  0.00    +0.000 A 
ATOM     11  O   UNL     1       3.968   2.851  18.225  0.00  0.00    +0.000 OA
ATOM     12  C   UNL     1       3.144   1.684  18.452  0.00  0.00    +0.000 C 
ATOM     13  O   UNL     1       2.000   1.942  19.288  0.00  0.00    +0.000 OA
ENDBRANCH   3   5
BRANCH   2  14
ATOM     14  C   UNL     1       7.113   6.373  18.080  0.00  0.00    +0.000 C 
BRANCH  14  15
ATOM     15  N   UNL     1       7.521   5.645  16.888  0.00  0.00    +0.000 N 
ATOM     16  C   UNL     1       6.775   5.741  15.745  0.00  0.00    +0.000 C 
ATOM     17  O   UNL     1       5.806   6.481  15.640  0.00  0.00    +0.000 OA
ATOM     18  N   UNL     1       7.228   4.919  14.749  0.00  0.00    +0.000 N 
ATOM     19  H   UNL     1       8.082   4.815  17.033  0.00  0.00    +0.000 HD
ATOM     20  H   UNL     1       8.173   4.576  14.828  0.00  0.00    +0.000 HD
BRANCH  18  21
ATOM     21  C   UNL     1       6.593   4.885  13.443  0.00  0.00    +0.000 C 
BRANCH  21  22
ATOM     22  C   UNL     1       6.400   3.465  12.909  0.00  0.00    +0.000 C 
ATOM     23  C   UNL     1       5.122   3.281  12.093  0.00  0.00    +0.000 C 
ATOM     24  C   UNL     1       5.360   1.976  11.342  0.00  0.00    +0.000 C 
ATOM     25  C   UNL     1       6.870   1.896  11.119  0.00  0.00    +0.000 C 
ATOM     26  C   UNL     1       7.479   3.056  11.905  0.00  0.00    +0.000 C 
ENDBRANCH  21  22
ENDBRANCH  18  21
ENDBRANCH  14  15
ENDBRANCH   2  14
TORSDOF 5
ENDMDL
MODEL 4
REMARK VINA RESULT:      -8.0      3.789      6.229
REMARK  Name = 
REMARK  5 active torsions:
REMARK  status: ('A' for Active; 'I' for Inactive)
REMARK    1  A    between atoms: C_2  and  C_3
REMARK    2  A    between atoms: C_3  and  N_4
REMARK    3  A    between atoms: N_7  and  C_8
REMARK    4  A    between atoms: C_8  and  C_9
REMARK    5  A    between atoms: N_14  and  C_15
REMARK                            x       y       z     vdW  Elec       q    Type
REMARK                         _______ _______ _______ _____ _____    ______ ____
ROOT
ATOM      1  O   UNL     1       6.129   4.588  19.415  0.00  0.00    +0.000 OA
ATOM      2  C   UNL     1       5.704   5.444  18.635  0.00  0.00    +0.000 C 
ATOM      3  N   UNL     1       4.368   5.692  18.354  0.00  0.00    +0.000 N 
ATOM      4  H   UNL     1       4.141   6.259  17.541  0.00  0.00    +0.000 HD
ENDROOT
BRANCH   3   5
ATOM      5  C   UNL     1       3.252   5.154  19.035  0.00  0.00    +0.000 A 
ATOM      6  C   UNL     1       2.557   5.837  20.041  0.00  0.00    +0.000 A 
ATOM      7  C   UNL     1       1.423   5.269  20.657  0.00  0.00    +0.000 A 
ATOM      8  C   UNL     1       0.965   4.008  20.281  0.00  0.00    +0.000 A 
ATOM      9  C   UNL     1       1.663   3.347  19.294  0.00  0.00    +0.000 A 
ATOM     10  C   UNL     1       2.768   3.902  18.682  0.00  0.00    +0.000 A 
ATOM     11  O   UNL     1       3.296   3.064  17.740  0.00  0.00    +0.000 OA
ATOM     12  C   UNL     1       2.412   1.924  17.855  0.00  0.00    +0.000 C 
ATOM     13  O   UNL     1       1.359   2.109  18.820  0.00  0.00    +0.000 OA
ENDBRANCH   3   5
BRANCH   2  14
ATOM     14  C   UNL     1       6.668   6.335  17.845  0.00  0.00    +0.000 C 
BRANCH  14  15
ATOM     15  N   UNL     1       6.456   6.231  16.409  0.00  0.00    +0.000 N 
ATOM     16  C   UNL     1       7.135   5.287  15.689  0.00  0.00    +0.000 C 
ATOM     17  O   UNL     1       7.868   4.454  16.203  0.00  0.00    +0.000 OA
ATOM     18  N   UNL     1       6.907   5.386  14.343  0.00  0.00    +0.000 N 
ATOM     19  H   UNL     1       6.140   7.068  15.935  0.00  0.00    +0.000 HD
ATOM     20  H   UNL     1       6.089   5.898  14.050  0.00  0.00    +0.000 HD
BRANCH  18  21
ATOM     21  C   UNL     1       7.511   4.462  13.398  0.00  0.00    +0.000 C 
BRANCH  21  22
ATOM     22  C   UNL     1       6.541   4.003  12.308  0.00  0.00    +0.000 C 
ATOM     23  C   UNL     1       6.693   2.532  11.926  0.00  0.00    +0.000 C 
ATOM     24  C   UNL     1       5.399   2.219  11.183  0.00  0.00    +0.000 C 
ATOM     25  C   UNL     1       4.336   3.127  11.800  0.00  0.00    +0.000 C 
ATOM     26  C   UNL     1       5.078   4.068  12.749  0.00  0.00    +0.000 C 
ENDBRANCH  21  22
ENDBRANCH  18  21
ENDBRANCH  14  15
ENDBRANCH   2  14
TORSDOF 5
ENDMDL
MODEL 5
REMARK VINA RESULT:      -8.0      1.310      2.068
REMARK  Name = 
REMARK  5 active torsions:
REMARK  status: ('A' for Active; 'I' for Inactive)
REMARK    1  A    between atoms: C_2  and  C_3
REMARK    2  A    between atoms: C_3  and  N_4
REMARK    3  A    between atoms: N_7  and  C_8
REMARK    4  A    between atoms: C_8  and  C_9
REMARK    5  A    between atoms: N_14  and  C_15
REMARK                            x       y       z     vdW  Elec       q    Type
REMARK                         _______ _______ _______ _____ _____    ______ ____
ROOT
ATOM      1  O   UNL     1       4.916   5.187  15.954  0.00  0.00    +0.000 OA
ATOM      2  C   UNL     1       5.693   4.804  16.833  0.00  0.00    +0.000 C 
ATOM      3  N   UNL     1       5.336   4.134  17.994  0.00  0.00    +0.000 N 
ATOM      4  H   UNL     1       6.019   4.065  18.744  0.00  0.00    +0.000 HD
ENDROOT
BRANCH   3   5
ATOM      5  C   UNL     1       4.062   3.601  18.300  0.00  0.00    +0.000 A 
ATOM      6  C   UNL     1       3.625   2.344  17.863  0.00  0.00    +0.000 A 
ATOM      7  C   UNL     1       2.360   1.844  18.235  0.00  0.00    +0.000 A 
ATOM      8  C   UNL     1       1.509   2.592  19.045  0.00  0.00    +0.000 A 
ATOM      9  C   UNL     1       1.951   3.829  19.461  0.00  0.00    +0.000 A 
ATOM     10  C   UNL     1       3.191   4.319  19.108  0.00  0.00    +0.000 A 
ATOM     11  O   UNL     1       3.409   5.562  19.632  0.00  0.00    +0.000 OA
ATOM     12  C   UNL     1       2.160   5.794  20.325  0.00  0.00    +0.000 C 
ATOM     13  O   UNL     1       1.243   4.688  20.242  0.00  0.00    +0.000 OA
ENDBRANCH   3   5
BRANCH   2  14
ATOM     14  C   UNL     1       7.196   5.077  16.725  0.00  0.00    +0.000 C 
BRANCH  14  15
ATOM     15  N   UNL     1       7.486   6.497  16.598  0.00  0.00    +0.000 N 
ATOM     16  C   UNL     1       7.851   7.218  17.702  0.00  0.00    +0.000 C 
ATOM     17  O   UNL     1       8.027   6.711  18.802  0.00  0.00    +0.000 OA
ATOM     18  N   UNL     1       7.985   8.554  17.439  0.00  0.00    +0.000 N 
ATOM     19  H   UNL     1       7.047   6.982  15.825  0.00  0.00    +0.000 HD
ATOM     20  H   UNL     1       8.101   8.825  16.474  0.00  0.00    +0.000 HD
BRANCH  18  21
ATOM     21  C   UNL     1       8.392   9.495  18.469  0.00  0.00    +0.000 C 
BRANCH  21  22
ATOM     22  C   UNL     1       9.293  10.610  17.936  0.00  0.00    +0.000 C 
ATOM     23  C   UNL     1       8.577  11.947  17.749  0.00  0.00    +0.000 C 
ATOM     24  C   UNL     1       9.717  12.952  17.639  0.00  0.00    +0.000 C 
ATOM     25  C   UNL     1      10.855  12.384  18.487  0.00  0.00    +0.000 C 
ATOM     26  C   UNL     1      10.413  10.984  18.910  0.00  0.00    +0.000 C 
ENDBRANCH  21  22
ENDBRANCH  18  21
ENDBRANCH  14  15
ENDBRANCH   2  14
TORSDOF 5
ENDMDL
MODEL 6
REMARK VINA RESULT:      -8.0      1.666      2.414
REMARK  Name = 
REMARK  5 active torsions:
REMARK  status: ('A' for Active; 'I' for Inactive)
REMARK    1  A    between atoms: C_2  and  C_3
REMARK    2  A    between atoms: C_3  and  N_4
REMARK    3  A    between atoms: N_7  and  C_8
REMARK    4  A    between atoms: C_8  and  C_9
REMARK    5  A    between atoms: N_14  and  C_15
REMARK                            x       y       z     vdW  Elec       q    Type
REMARK                         _______ _______ _______ _____ _____    ______ ____
ROOT
ATOM      1  O   UNL     1       4.773   4.908  16.652  0.00  0.00    +0.000 OA
ATOM      2  C   UNL     1       5.544   4.577  17.557  0.00  0.00    +0.000 C 
ATOM      3  N   UNL     1       5.170   4.109  18.809  0.00  0.00    +0.000 N 
ATOM      4  H   UNL     1       5.871   4.080  19.545  0.00  0.00    +0.000 HD
ENDROOT
BRANCH   3   5
ATOM      5  C   UNL     1       3.865   3.745  19.216  0.00  0.00    +0.000 A 
ATOM      6  C   UNL     1       3.379   2.433  19.166  0.00  0.00    +0.000 A 
ATOM      7  C   UNL     1       2.083   2.119  19.626  0.00  0.00    +0.000 A 
ATOM      8  C   UNL     1       1.251   3.112  20.139  0.00  0.00    +0.000 A 
ATOM      9  C   UNL     1       1.742   4.398  20.175  0.00  0.00    +0.000 A 
ATOM     10  C   UNL     1       3.012   4.709  19.735  0.00  0.00    +0.000 A 
ATOM     11  O   UNL     1       3.278   6.043  19.864  0.00  0.00    +0.000 OA
ATOM     12  C   UNL     1       2.026   6.524  20.407  0.00  0.00    +0.000 C 
ATOM     13  O   UNL     1       1.058   5.482  20.631  0.00  0.00    +0.000 OA
ENDBRANCH   3   5
BRANCH   2  14
ATOM     14  C   UNL     1       7.061   4.691  17.378  0.00  0.00    +0.000 C 
BRANCH  14  15
ATOM     15  N   UNL     1       7.627   5.767  18.177  0.00  0.00    +0.000 N 
ATOM     16  C   UNL     1       7.610   7.049  17.699  0.00  0.00    +0.000 C 
ATOM     17  O   UNL     1       7.065   7.364  16.650  0.00  0.00    +0.000 OA
ATOM     18  N   UNL     1       8.271   7.926  18.516  0.00  0.00    +0.000 N 
ATOM     19  H   UNL     1       8.341   5.508  18.846  0.00  0.00    +0.000 HD
ATOM     20  H   UNL     1       8.430   7.637  19.470  0.00  0.00    +0.000 HD
BRANCH  18  21
ATOM     21  C   UNL     1       8.351   9.343  18.207  0.00  0.00    +0.000 C 
BRANCH  21  22
ATOM     22  C   UNL     1       9.547  10.031  18.865  0.00  0.00    +0.000 C 
ATOM     23  C   UNL     1      10.051  11.256  18.103  0.00  0.00    +0.000 C 
ATOM     24  C   UNL     1      10.913  11.986  19.126  0.00  0.00    +0.000 C 
ATOM     25  C   UNL     1      10.294  11.674  20.489  0.00  0.00    +0.000 C 
ATOM     26  C   UNL     1       9.211  10.626  20.235  0.00  0.00    +0.000 C 
ENDBRANCH  21  22
ENDBRANCH  18  21
ENDBRANCH  14  15
ENDBRANCH   2  14
TORSDOF 5
ENDMDL
MODEL 7
REMARK VINA RESULT:      -7.9      1.703      2.479
REMARK  Name = 
REMARK  5 active torsions:
REMARK  status: ('A' for Active; 'I' for Inactive)
REMARK    1  A    between atoms: C_2  and  C_3
REMARK    2  A    between atoms: C_3  and  N_4
REMARK    3  A    between atoms: N_7  and  C_8
REMARK    4  A    between atoms: C_8  and  C_9
REMARK    5  A    between atoms: N_14  and  C_15
REMARK                            x       y       z     vdW  Elec       q    Type
REMARK                         _______ _______ _______ _____ _____    ______ ____
ROOT
ATOM      1  O   UNL     1       6.273   4.582  19.779  0.00  0.00    +0.000 OA
ATOM      2  C   UNL     1       6.131   4.724  18.562  0.00  0.00    +0.000 C 
ATOM      3  N   UNL     1       5.058   4.264  17.812  0.00  0.00    +0.000 N 
ATOM      4  H   UNL     1       5.148   4.240  16.799  0.00  0.00    +0.000 HD
ENDROOT
BRANCH   3   5
ATOM      5  C   UNL     1       3.851   3.724  18.314  0.00  0.00    +0.000 A 
ATOM      6  C   UNL     1       3.437   2.407  18.079  0.00  0.00    +0.000 A 
ATOM      7  C   UNL     1       2.245   1.907  18.641  0.00  0.00    +0.000 A 
ATOM      8  C   UNL     1       1.443   2.716  19.444  0.00  0.00    +0.000 A 
ATOM      9  C   UNL     1       1.861   4.011  19.660  0.00  0.00    +0.000 A 
ATOM     10  C   UNL     1       3.031   4.502  19.120  0.00  0.00    +0.000 A 
ATOM     11  O   UNL     1       3.237   5.808  19.466  0.00  0.00    +0.000 OA
ATOM     12  C   UNL     1       2.055   6.075  20.257  0.00  0.00    +0.000 C 
ATOM     13  O   UNL     1       1.192   4.932  20.405  0.00  0.00    +0.000 OA
ENDBRANCH   3   5
BRANCH   2  14
ATOM     14  C   UNL     1       7.201   5.431  17.724  0.00  0.00    +0.000 C 
BRANCH  14  15
ATOM     15  N   UNL     1       7.894   6.463  18.480  0.00  0.00    +0.000 N 
ATOM     16  C   UNL     1       7.922   7.747  18.007  0.00  0.00    +0.000 C 
ATOM     17  O   UNL     1       7.321   8.103  17.004  0.00  0.00    +0.000 OA
ATOM     18  N   UNL     1       8.699   8.574  18.774  0.00  0.00    +0.000 N 
ATOM     19  H   UNL     1       8.638   6.155  19.092  0.00  0.00    +0.000 HD
ATOM     20  H   UNL     1       8.911   8.269  19.712  0.00  0.00    +0.000 HD
BRANCH  18  21
ATOM     21  C   UNL     1       8.845   9.985  18.463  0.00  0.00    +0.000 C 
BRANCH  21  22
ATOM     22  C   UNL     1       9.947  10.666  19.277  0.00  0.00    +0.000 C 
ATOM     23  C   UNL     1      10.663  11.789  18.530  0.00  0.00    +0.000 C 
ATOM     24  C   UNL     1      11.372  12.561  19.636  0.00  0.00    +0.000 C 
ATOM     25  C   UNL     1      10.497  12.404  20.879  0.00  0.00    +0.000 C 
ATOM     26  C   UNL     1       9.408  11.397  20.509  0.00  0.00    +0.000 C 
ENDBRANCH  21  22
ENDBRANCH  18  21
ENDBRANCH  14  15
ENDBRANCH   2  14
TORSDOF 5
ENDMDL
MODEL 8
REMARK VINA RESULT:      -7.9      1.606      1.669
REMARK  Name = 
REMARK  5 active torsions:
REMARK  status: ('A' for Active; 'I' for Inactive)
REMARK    1  A    between atoms: C_2  and  C_3
REMARK    2  A    between atoms: C_3  and  N_4
REMARK    3  A    between atoms: N_7  and  C_8
REMARK    4  A    between atoms: C_8  and  C_9
REMARK    5  A    between atoms: N_14  and  C_15
REMARK                            x       y       z     vdW  Elec       q    Type
REMARK                         _______ _______ _______ _____ _____    ______ ____
ROOT
ATOM      1  O   UNL     1       6.214   5.172  19.968  0.00  0.00    +0.000 OA
ATOM      2  C   UNL     1       6.425   5.310  18.760  0.00  0.00    +0.000 C 
ATOM      3  N   UNL     1       5.503   5.086  17.746  0.00  0.00    +0.000 N 
ATOM      4  H   UNL     1       5.842   5.014  16.790  0.00  0.00    +0.000 HD
ENDROOT
BRANCH   3   5
ATOM      5  C   UNL     1       4.118   4.849  17.906  0.00  0.00    +0.000 A 
ATOM      6  C   UNL     1       3.149   5.857  17.835  0.00  0.00    +0.000 A 
ATOM      7  C   UNL     1       1.776   5.557  17.959  0.00  0.00    +0.000 A 
ATOM      8  C   UNL     1       1.350   4.246  18.159  0.00  0.00    +0.000 A 
ATOM      9  C   UNL     1       2.317   3.267  18.232  0.00  0.00    +0.000 A 
ATOM     10  C   UNL     1       3.660   3.554  18.103  0.00  0.00    +0.000 A 
ATOM     11  O   UNL     1       4.428   2.429  18.213  0.00  0.00    +0.000 OA
ATOM     12  C   UNL     1       3.416   1.423  18.448  0.00  0.00    +0.000 C 
ATOM     13  O   UNL     1       2.074   1.944  18.435  0.00  0.00    +0.000 OA
ENDBRANCH   3   5
BRANCH   2  14
ATOM     14  C   UNL     1       7.805   5.731  18.246  0.00  0.00    +0.000 C 
BRANCH  14  15
ATOM     15  N   UNL     1       8.299   6.922  18.921  0.00  0.00    +0.000 N 
ATOM     16  C   UNL     1       8.276   8.128  18.273  0.00  0.00    +0.000 C 
ATOM     17  O   UNL     1       7.783   8.281  17.164  0.00  0.00    +0.000 OA
ATOM     18  N   UNL     1       8.870   9.126  18.997  0.00  0.00    +0.000 N 
ATOM     19  H   UNL     1       8.981   6.779  19.654  0.00  0.00    +0.000 HD
ATOM     20  H   UNL     1       8.983   8.973  19.988  0.00  0.00    +0.000 HD
BRANCH  18  21
ATOM     21  C   UNL     1       8.931  10.491  18.504  0.00  0.00    +0.000 C 
BRANCH  21  22
ATOM     22  C   UNL     1      10.336  11.091  18.579  0.00  0.00    +0.000 C 
ATOM     23  C   UNL     1      10.504  12.371  17.762  0.00  0.00    +0.000 C 
ATOM     24  C   UNL     1      11.784  12.985  18.318  0.00  0.00    +0.000 C 
ATOM     25  C   UNL     1      11.846  12.559  19.784  0.00  0.00    +0.000 C 
ATOM     26  C   UNL     1      10.705  11.562  19.987  0.00  0.00    +0.000 C 
ENDBRANCH  21  22
ENDBRANCH  18  21
ENDBRANCH  14  15
ENDBRANCH   2  14
TORSDOF 5
ENDMDL
MODEL 9
REMARK VINA RESULT:      -7.8      3.925      6.592
REMARK  Name = 
REMARK  5 active torsions:
REMARK  status: ('A' for Active; 'I' for Inactive)
REMARK    1  A    between atoms: C_2  and  C_3
REMARK    2  A    between atoms: C_3  and  N_4
REMARK    3  A    between atoms: N_7  and  C_8
REMARK    4  A    between atoms: C_8  and  C_9
REMARK    5  A    between atoms: N_14  and  C_15
REMARK                            x       y       z     vdW  Elec       q    Type
REMARK                         _______ _______ _______ _____ _____    ______ ____
ROOT
ATOM      1  O   UNL     1       6.191   4.981  19.810  0.00  0.00    +0.000 OA
ATOM      2  C   UNL     1       5.891   5.266  18.648  0.00  0.00    +0.000 C 
ATOM      3  N   UNL     1       4.816   4.749  17.938  0.00  0.00    +0.000 N 
ATOM      4  H   UNL     1       4.792   4.880  16.930  0.00  0.00    +0.000 HD
ENDROOT
BRANCH   3   5
ATOM      5  C   UNL     1       3.766   3.958  18.460  0.00  0.00    +0.000 A 
ATOM      6  C   UNL     1       3.605   2.598  18.169  0.00  0.00    +0.000 A 
ATOM      7  C   UNL     1       2.564   1.847  18.752  0.00  0.00    +0.000 A 
ATOM      8  C   UNL     1       1.665   2.442  19.633  0.00  0.00    +0.000 A 
ATOM      9  C   UNL     1       1.833   3.782  19.905  0.00  0.00    +0.000 A 
ATOM     10  C   UNL     1       2.855   4.519  19.344  0.00  0.00    +0.000 A 
ATOM     11  O   UNL     1       2.821   5.823  19.755  0.00  0.00    +0.000 OA
ATOM     12  C   UNL     1       1.654   5.814  20.610  0.00  0.00    +0.000 C 
ATOM     13  O   UNL     1       1.039   4.517  20.730  0.00  0.00    +0.000 OA
ENDBRANCH   3   5
BRANCH   2  14
ATOM     14  C   UNL     1       6.743   6.245  17.834  0.00  0.00    +0.000 C 
BRANCH  14  15
ATOM     15  N   UNL     1       6.410   6.213  16.418  0.00  0.00    +0.000 N 
ATOM     16  C   UNL     1       7.018   5.302  15.598  0.00  0.00    +0.000 C 
ATOM     17  O   UNL     1       7.785   4.442  16.008  0.00  0.00    +0.000 OA
ATOM     18  N   UNL     1       6.680   5.468  14.282  0.00  0.00    +0.000 N 
ATOM     19  H   UNL     1       6.063   7.074  16.014  0.00  0.00    +0.000 HD
ATOM     20  H   UNL     1       5.844   5.999  14.084  0.00  0.00    +0.000 HD
BRANCH  18  21
ATOM     21  C   UNL     1       7.194   4.589  13.246  0.00  0.00    +0.000 C 
BRANCH  21  22
ATOM     22  C   UNL     1       6.199   3.503  12.836  0.00  0.00    +0.000 C 
ATOM     23  C   UNL     1       4.982   4.034  12.081  0.00  0.00    +0.000 C 
ATOM     24  C   UNL     1       4.392   2.789  11.430  0.00  0.00    +0.000 C 
ATOM     25  C   UNL     1       5.575   1.860  11.163  0.00  0.00    +0.000 C 
ATOM     26  C   UNL     1       6.786   2.509  11.832  0.00  0.00    +0.000 C 
ENDBRANCH  21  22
ENDBRANCH  18  21
ENDBRANCH  14  15
ENDBRANCH   2  14
TORSDOF 5
ENDMDL
