MODEL 1
REMARK VINA RESULT:      -7.4      0.000      0.000
REMARK  Name = 
REMARK  3 active torsions:
REMARK  status: ('A' for Active; 'I' for Inactive)
REMARK    1  A    between atoms: C_4  and  C_5
REMARK    2  A    between atoms: C_5  and  N_6
REMARK    3  A    between atoms: C_9  and  C_10
REMARK                            x       y       z     vdW  Elec       q    Type
REMARK                         _______ _______ _______ _____ _____    ______ ____
ROOT
ATOM      1  N   UNL     1       4.161   5.853  18.066  0.00  0.00    +0.000 N 
ATOM      2  C   UNL     1       5.355   5.358  17.513  0.00  0.00    +0.000 A 
ATOM      3  C   UNL     1       5.401   5.179  16.147  0.00  0.00    +0.000 A 
ATOM      4  C   UNL     1       6.590   4.732  15.610  0.00  0.00    +0.000 A 
ATOM      5  N   UNL     1       7.687   4.520  16.361  0.00  0.00    +0.000 NA
ATOM      6  C   UNL     1       7.548   4.753  17.671  0.00  0.00    +0.000 A 
ATOM      7  N   UNL     1       6.427   5.151  18.290  0.00  0.00    +0.000 NA
ATOM      8  H   UNL     1       4.139   6.856  17.903  0.00  0.00    +0.000 HD
ENDROOT
BRANCH   4   9
ATOM      9  C   UNL     1       6.713   4.464  14.184  0.00  0.00    +0.000 A 
ATOM     10  C   UNL     1       5.997   3.573  13.335  0.00  0.00    +0.000 A 
ATOM     11  C   UNL     1       6.523   3.722  12.073  0.00  0.00    +0.000 A 
ATOM     12  O   UNL     1       7.521   4.642  12.083  0.00  0.00    +0.000 OA
ATOM     13  C   UNL     1       7.633   5.086  13.362  0.00  0.00    +0.000 A 
ENDBRANCH   4   9
BRANCH   1  14
ATOM     14  C   UNL     1       3.990   5.564  19.486  0.00  0.00    +0.000 C 
BRANCH  14  18
ATOM     15  C   UNL     1       0.986   3.524  20.587  0.00  0.00    +0.000 A 
ATOM     16  C   UNL     1       1.416   2.594  19.672  0.00  0.00    +0.000 A 
ATOM     17  S   UNL     1       2.844   3.094  18.872  0.00  0.00    +0.000 S 
ATOM     18  C   UNL     1       2.887   4.572  19.740  0.00  0.00    +0.000 A 
ATOM     19  C   UNL     1       1.835   4.667  20.632  0.00  0.00    +0.000 A 
ENDBRANCH  14  18
ENDBRANCH   1  14
TORSDOF 3
ENDMDL
MODEL 2
REMARK VINA RESULT:      -7.2      0.879      1.259
REMARK  Name = 
REMARK  3 active torsions:
REMARK  status: ('A' for Active; 'I' for Inactive)
REMARK    1  A    between atoms: C_4  and  C_5
REMARK    2  A    between atoms: C_5  and  N_6
REMARK    3  A    between atoms: C_9  and  C_10
REMARK                            x       y       z     vdW  Elec       q    Type
REMARK                         _______ _______ _______ _____ _____    ______ ____
ROOT
ATOM      1  N   UNL     1       4.062   5.885  17.966  0.00  0.00    +0.000 N 
ATOM      2  C   UNL     1       5.271   5.384  17.454  0.00  0.00    +0.000 A 
ATOM      3  C   UNL     1       5.378   5.244  16.086  0.00  0.00    +0.000 A 
ATOM      4  C   UNL     1       6.582   4.790  15.592  0.00  0.00    +0.000 A 
ATOM      5  N   UNL     1       7.639   4.536  16.386  0.00  0.00    +0.000 NA
ATOM      6  C   UNL     1       7.443   4.732  17.695  0.00  0.00    +0.000 A 
ATOM      7  N   UNL     1       6.301   5.133  18.273  0.00  0.00    +0.000 NA
ATOM      8  H   UNL     1       4.065   6.892  17.833  0.00  0.00    +0.000 HD
ENDROOT
BRANCH   4   9
ATOM      9  C   UNL     1       6.768   4.563  14.166  0.00  0.00    +0.000 A 
ATOM     10  C   UNL     1       7.680   5.143  13.238  0.00  0.00    +0.000 A 
ATOM     11  C   UNL     1       7.421   4.565  12.017  0.00  0.00    +0.000 A 
ATOM     12  O   UNL     1       6.407   3.670  12.124  0.00  0.00    +0.000 OA
ATOM     13  C   UNL     1       6.014   3.673  13.424  0.00  0.00    +0.000 A 
ENDBRANCH   4   9
BRANCH   1  14
ATOM     14  C   UNL     1       3.819   5.556  19.367  0.00  0.00    +0.000 C 
BRANCH  14  18
ATOM     15  C   UNL     1       1.018   3.009  19.106  0.00  0.00    +0.000 A 
ATOM     16  C   UNL     1       1.040   3.003  20.479  0.00  0.00    +0.000 A 
ATOM     17  S   UNL     1       2.216   4.076  21.107  0.00  0.00    +0.000 S 
ATOM     18  C   UNL     1       2.715   4.547  19.536  0.00  0.00    +0.000 A 
ATOM     19  C   UNL     1       1.982   3.904  18.557  0.00  0.00    +0.000 A 
ENDBRANCH  14  18
ENDBRANCH   1  14
TORSDOF 3
ENDMDL
MODEL 3
REMARK VINA RESULT:      -7.1      0.851      1.124
REMARK  Name = 
REMARK  3 active torsions:
REMARK  status: ('A' for Active; 'I' for Inactive)
REMARK    1  A    between atoms: C_4  and  C_5
REMARK    2  A    between atoms: C_5  and  N_6
REMARK    3  A    between atoms: C_9  and  C_10
REMARK                            x       y       z     vdW  Elec       q    Type
REMARK                         _______ _______ _______ _____ _____    ______ ____
ROOT
ATOM      1  N   UNL     1       3.746   5.593  17.845  0.00  0.00    +0.000 N 
ATOM      2  C   UNL     1       5.023   5.638  17.258  0.00  0.00    +0.000 A 
ATOM      3  C   UNL     1       5.151   5.163  15.970  0.00  0.00    +0.000 A 
ATOM      4  C   UNL     1       6.398   5.249  15.389  0.00  0.00    +0.000 A 
ATOM      5  N   UNL     1       7.449   5.813  16.014  0.00  0.00    +0.000 NA
ATOM      6  C   UNL     1       7.213   6.271  17.249  0.00  0.00    +0.000 A 
ATOM      7  N   UNL     1       6.049   6.199  17.911  0.00  0.00    +0.000 NA
ATOM      8  H   UNL     1       3.208   6.371  17.473  0.00  0.00    +0.000 HD
ENDROOT
BRANCH   4   9
ATOM      9  C   UNL     1       6.638   4.726  14.052  0.00  0.00    +0.000 A 
ATOM     10  C   UNL     1       7.592   5.096  13.060  0.00  0.00    +0.000 A 
ATOM     11  C   UNL     1       7.377   4.273  11.980  0.00  0.00    +0.000 A 
ATOM     12  O   UNL     1       6.351   3.421  12.232  0.00  0.00    +0.000 OA
ATOM     13  C   UNL     1       5.907   3.699  13.485  0.00  0.00    +0.000 A 
ENDBRANCH   4   9
BRANCH   1  14
ATOM     14  C   UNL     1       3.753   5.630  19.304  0.00  0.00    +0.000 C 
BRANCH  14  18
ATOM     15  C   UNL     1       1.527   3.316  21.327  0.00  0.00    +0.000 A 
ATOM     16  C   UNL     1       1.779   2.390  20.344  0.00  0.00    +0.000 A 
ATOM     17  S   UNL     1       2.816   3.007  19.131  0.00  0.00    +0.000 S 
ATOM     18  C   UNL     1       2.922   4.530  19.910  0.00  0.00    +0.000 A 
ATOM     19  C   UNL     1       2.189   4.553  21.082  0.00  0.00    +0.000 A 
ENDBRANCH  14  18
ENDBRANCH   1  14
TORSDOF 3
ENDMDL
MODEL 4
REMARK VINA RESULT:      -6.9      1.312      1.409
REMARK  Name = 
REMARK  3 active torsions:
REMARK  status: ('A' for Active; 'I' for Inactive)
REMARK    1  A    between atoms: C_4  and  C_5
REMARK    2  A    between atoms: C_5  and  N_6
REMARK    3  A    between atoms: C_9  and  C_10
REMARK                            x       y       z     vdW  Elec       q    Type
REMARK                         _______ _______ _______ _____ _____    ______ ____
ROOT
ATOM      1  N   UNL     1       4.394   3.311  17.886  0.00  0.00    +0.000 N 
ATOM      2  C   UNL     1       5.373   4.081  17.233  0.00  0.00    +0.000 A 
ATOM      3  C   UNL     1       5.553   3.873  15.882  0.00  0.00    +0.000 A 
ATOM      4  C   UNL     1       6.486   4.661  15.243  0.00  0.00    +0.000 A 
ATOM      5  N   UNL     1       7.169   5.632  15.878  0.00  0.00    +0.000 NA
ATOM      6  C   UNL     1       6.898   5.774  17.181  0.00  0.00    +0.000 A 
ATOM      7  N   UNL     1       6.039   5.034  17.897  0.00  0.00    +0.000 NA
ATOM      8  H   UNL     1       3.488   3.718  17.671  0.00  0.00    +0.000 HD
ENDROOT
BRANCH   4   9
ATOM      9  C   UNL     1       6.780   4.476  13.829  0.00  0.00    +0.000 A 
ATOM     10  C   UNL     1       6.265   3.545  12.881  0.00  0.00    +0.000 A 
ATOM     11  C   UNL     1       6.889   3.814  11.686  0.00  0.00    +0.000 A 
ATOM     12  O   UNL     1       7.761   4.844  11.829  0.00  0.00    +0.000 OA
ATOM     13  C   UNL     1       7.692   5.240  13.127  0.00  0.00    +0.000 A 
ENDBRANCH   4   9
BRANCH   1  14
ATOM     14  C   UNL     1       4.577   3.205  19.330  0.00  0.00    +0.000 C 
BRANCH  14  18
ATOM     15  C   UNL     1       1.599   2.827  21.653  0.00  0.00    +0.000 A 
ATOM     16  C   UNL     1       0.947   3.660  20.777  0.00  0.00    +0.000 A 
ATOM     17  S   UNL     1       1.945   4.124  19.467  0.00  0.00    +0.000 S 
ATOM     18  C   UNL     1       3.269   3.221  20.075  0.00  0.00    +0.000 A 
ATOM     19  C   UNL     1       2.941   2.568  21.248  0.00  0.00    +0.000 A 
ENDBRANCH  14  18
ENDBRANCH   1  14
TORSDOF 3
ENDMDL
MODEL 5
REMARK VINA RESULT:      -6.8      1.502      1.893
REMARK  Name = 
REMARK  3 active torsions:
REMARK  status: ('A' for Active; 'I' for Inactive)
REMARK    1  A    between atoms: C_4  and  C_5
REMARK    2  A    between atoms: C_5  and  N_6
REMARK    3  A    between atoms: C_9  and  C_10
REMARK                            x       y       z     vdW  Elec       q    Type
REMARK                         _______ _______ _______ _____ _____    ______ ____
ROOT
ATOM      1  N   UNL     1       4.596   3.112  18.114  0.00  0.00    +0.000 N 
ATOM      2  C   UNL     1       4.956   4.147  17.233  0.00  0.00    +0.000 A 
ATOM      3  C   UNL     1       5.471   3.791  16.005  0.00  0.00    +0.000 A 
ATOM      4  C   UNL     1       5.783   4.812  15.133  0.00  0.00    +0.000 A 
ATOM      5  N   UNL     1       5.555   6.107  15.425  0.00  0.00    +0.000 NA
ATOM      6  C   UNL     1       5.023   6.344  16.630  0.00  0.00    +0.000 A 
ATOM      7  N   UNL     1       4.723   5.425  17.559  0.00  0.00    +0.000 NA
ATOM      8  H   UNL     1       3.698   2.746  17.809  0.00  0.00    +0.000 HD
ENDROOT
BRANCH   4   9
ATOM      9  C   UNL     1       6.381   4.532  13.835  0.00  0.00    +0.000 A 
ATOM     10  C   UNL     1       7.467   5.152  13.153  0.00  0.00    +0.000 A 
ATOM     11  C   UNL     1       7.611   4.489  11.957  0.00  0.00    +0.000 A 
ATOM     12  O   UNL     1       6.685   3.504  11.848  0.00  0.00    +0.000 OA
ATOM     13  C   UNL     1       5.943   3.535  12.986  0.00  0.00    +0.000 A 
ENDBRANCH   4   9
BRANCH   1  14
ATOM     14  C   UNL     1       4.535   3.510  19.516  0.00  0.00    +0.000 C 
BRANCH  14  18
ATOM     15  C   UNL     1       1.408   2.742  21.526  0.00  0.00    +0.000 A 
ATOM     16  C   UNL     1       0.726   3.327  20.487  0.00  0.00    +0.000 A 
ATOM     17  S   UNL     1       1.779   3.860  19.247  0.00  0.00    +0.000 S 
ATOM     18  C   UNL     1       3.162   3.322  20.105  0.00  0.00    +0.000 A 
ATOM     19  C   UNL     1       2.816   2.733  21.307  0.00  0.00    +0.000 A 
ENDBRANCH  14  18
ENDBRANCH   1  14
TORSDOF 3
ENDMDL
MODEL 6
REMARK VINA RESULT:      -6.8      1.492      1.685
REMARK  Name = 
REMARK  3 active torsions:
REMARK  status: ('A' for Active; 'I' for Inactive)
REMARK    1  A    between atoms: C_4  and  C_5
REMARK    2  A    between atoms: C_5  and  N_6
REMARK    3  A    between atoms: C_9  and  C_10
REMARK                            x       y       z     vdW  Elec       q    Type
REMARK                         _______ _______ _______ _____ _____    ______ ____
ROOT
ATOM      1  N   UNL     1       4.694   3.243  18.122  0.00  0.00    +0.000 N 
ATOM      2  C   UNL     1       4.993   4.236  17.173  0.00  0.00    +0.000 A 
ATOM      3  C   UNL     1       5.501   3.827  15.958  0.00  0.00    +0.000 A 
ATOM      4  C   UNL     1       5.753   4.805  15.020  0.00  0.00    +0.000 A 
ATOM      5  N   UNL     1       5.477   6.105  15.239  0.00  0.00    +0.000 NA
ATOM      6  C   UNL     1       4.957   6.393  16.438  0.00  0.00    +0.000 A 
ATOM      7  N   UNL     1       4.713   5.521  17.426  0.00  0.00    +0.000 NA
ATOM      8  H   UNL     1       3.807   2.822  17.859  0.00  0.00    +0.000 HD
ENDROOT
BRANCH   4   9
ATOM      9  C   UNL     1       6.339   4.471  13.730  0.00  0.00    +0.000 A 
ATOM     10  C   UNL     1       5.977   3.487  12.766  0.00  0.00    +0.000 A 
ATOM     11  C   UNL     1       6.870   3.606  11.727  0.00  0.00    +0.000 A 
ATOM     12  O   UNL     1       7.765   4.593  11.984  0.00  0.00    +0.000 OA
ATOM     13  C   UNL     1       7.441   5.112  13.196  0.00  0.00    +0.000 A 
ENDBRANCH   4   9
BRANCH   1  14
ATOM     14  C   UNL     1       4.641   3.723  19.499  0.00  0.00    +0.000 C 
BRANCH  14  18
ATOM     15  C   UNL     1       1.015   4.075  20.563  0.00  0.00    +0.000 A 
ATOM     16  C   UNL     1       1.258   2.990  21.369  0.00  0.00    +0.000 A 
ATOM     17  S   UNL     1       2.872   2.439  21.235  0.00  0.00    +0.000 S 
ATOM     18  C   UNL     1       3.254   3.647  20.080  0.00  0.00    +0.000 A 
ATOM     19  C   UNL     1       2.168   4.461  19.819  0.00  0.00    +0.000 A 
ENDBRANCH  14  18
ENDBRANCH   1  14
TORSDOF 3
ENDMDL
MODEL 7
REMARK VINA RESULT:      -6.6      1.042      1.103
REMARK  Name = 
REMARK  3 active torsions:
REMARK  status: ('A' for Active; 'I' for Inactive)
REMARK    1  A    between atoms: C_4  and  C_5
REMARK    2  A    between atoms: C_5  and  N_6
REMARK    3  A    between atoms: C_9  and  C_10
REMARK                            x       y       z     vdW  Elec       q    Type
REMARK                         _______ _______ _______ _____ _____    ______ ____
ROOT
ATOM      1  N   UNL     1       3.089   6.266  18.316  0.00  0.00    +0.000 N 
ATOM      2  C   UNL     1       4.343   5.722  17.988  0.00  0.00    +0.000 A 
ATOM      3  C   UNL     1       4.597   5.459  16.658  0.00  0.00    +0.000 A 
ATOM      4  C   UNL     1       5.844   4.964  16.342  0.00  0.00    +0.000 A 
ATOM      5  N   UNL     1       6.807   4.784  17.267  0.00  0.00    +0.000 NA
ATOM      6  C   UNL     1       6.470   5.099  18.523  0.00  0.00    +0.000 A 
ATOM      7  N   UNL     1       5.275   5.549  18.934  0.00  0.00    +0.000 NA
ATOM      8  H   UNL     1       3.115   7.257  18.094  0.00  0.00    +0.000 HD
ENDROOT
BRANCH   4   9
ATOM      9  C   UNL     1       6.183   4.609  14.971  0.00  0.00    +0.000 A 
ATOM     10  C   UNL     1       5.565   3.704  14.061  0.00  0.00    +0.000 A 
ATOM     11  C   UNL     1       6.297   3.755  12.897  0.00  0.00    +0.000 A 
ATOM     12  O   UNL     1       7.329   4.626  13.026  0.00  0.00    +0.000 OA
ATOM     13  C   UNL     1       7.257   5.138  14.282  0.00  0.00    +0.000 A 
ENDBRANCH   4   9
BRANCH   1  14
ATOM     14  C   UNL     1       2.692   6.066  19.706  0.00  0.00    +0.000 C 
BRANCH  14  18
ATOM     15  C   UNL     1       1.339   2.744  20.948  0.00  0.00    +0.000 A 
ATOM     16  C   UNL     1       0.971   2.528  19.643  0.00  0.00    +0.000 A 
ATOM     17  S   UNL     1       1.409   3.834  18.628  0.00  0.00    +0.000 S 
ATOM     18  C   UNL     1       2.083   4.708  19.939  0.00  0.00    +0.000 A 
ATOM     19  C   UNL     1       1.987   4.002  21.123  0.00  0.00    +0.000 A 
ENDBRANCH  14  18
ENDBRANCH   1  14
TORSDOF 3
ENDMDL
MODEL 8
REMARK VINA RESULT:      -6.6      4.619      8.106
REMARK  Name = 
REMARK  3 active torsions:
REMARK  status: ('A' for Active; 'I' for Inactive)
REMARK    1  A    between atoms: C_4  and  C_5
REMARK    2  A    between atoms: C_5  and  N_6
REMARK    3  A    between atoms: C_9  and  C_10
REMARK                            x       y       z     vdW  Elec       q    Type
REMARK                         _______ _______ _______ _____ _____    ______ ____
ROOT
ATOM      1  N   UNL     1       3.273   5.292  19.013  0.00  0.00    +0.000 N 
ATOM      2  C   UNL     1       2.646   6.550  19.022  0.00  0.00    +0.000 A 
ATOM      3  C   UNL     1       2.098   6.982  20.211  0.00  0.00    +0.000 A 
ATOM      4  C   UNL     1       1.521   8.234  20.220  0.00  0.00    +0.000 A 
ATOM      5  N   UNL     1       1.525   9.039  19.141  0.00  0.00    +0.000 NA
ATOM      6  C   UNL     1       2.108   8.539  18.046  0.00  0.00    +0.000 A 
ATOM      7  N   UNL     1       2.661   7.322  17.928  0.00  0.00    +0.000 NA
ATOM      8  H   UNL     1       4.192   5.403  19.431  0.00  0.00    +0.000 HD
ENDROOT
BRANCH   4   9
ATOM      9  C   UNL     1       0.872   8.751  21.417  0.00  0.00    +0.000 A 
ATOM     10  C   UNL     1      -0.506   8.853  21.763  0.00  0.00    +0.000 A 
ATOM     11  C   UNL     1      -0.557   9.419  23.015  0.00  0.00    +0.000 A 
ATOM     12  O   UNL     1       0.696   9.679  23.468  0.00  0.00    +0.000 OA
ATOM     13  C   UNL     1       1.556   9.274  22.497  0.00  0.00    +0.000 A 
ENDBRANCH   4   9
BRANCH   1  14
ATOM     14  C   UNL     1       3.384   4.685  17.690  0.00  0.00    +0.000 C 
BRANCH  14  18
ATOM     15  C   UNL     1       6.699   4.387  15.867  0.00  0.00    +0.000 A 
ATOM     16  C   UNL     1       7.272   4.603  17.096  0.00  0.00    +0.000 A 
ATOM     17  S   UNL     1       6.099   4.800  18.326  0.00  0.00    +0.000 S 
ATOM     18  C   UNL     1       4.810   4.610  17.212  0.00  0.00    +0.000 A 
ATOM     19  C   UNL     1       5.276   4.386  15.930  0.00  0.00    +0.000 A 
ENDBRANCH  14  18
ENDBRANCH   1  14
TORSDOF 3
ENDMDL
MODEL 9
REMARK VINA RESULT:      -6.5      5.482      8.345
REMARK  Name = 
REMARK  3 active torsions:
REMARK  status: ('A' for Active; 'I' for Inactive)
REMARK    1  A    between atoms: C_4  and  C_5
REMARK    2  A    between atoms: C_5  and  N_6
REMARK    3  A    between atoms: C_9  and  C_10
REMARK                            x       y       z     vdW  Elec       q    Type
REMARK                         _______ _______ _______ _____ _____    ______ ____
ROOT
ATOM      1  N   UNL     1       2.935   6.438  19.827  0.00  0.00    +0.000 N 
ATOM      2  C   UNL     1       2.174   7.595  19.584  0.00  0.00    +0.000 A 
ATOM      3  C   UNL     1       1.545   8.183  20.661  0.00  0.00    +0.000 A 
ATOM      4  C   UNL     1       0.834   9.340  20.419  0.00  0.00    +0.000 A 
ATOM      5  N   UNL     1       0.784   9.917  19.204  0.00  0.00    +0.000 NA
ATOM      6  C   UNL     1       1.454   9.284  18.233  0.00  0.00    +0.000 A 
ATOM      7  N   UNL     1       2.140   8.139  18.361  0.00  0.00    +0.000 NA
ATOM      8  H   UNL     1       3.823   6.731  20.225  0.00  0.00    +0.000 HD
ENDROOT
BRANCH   4   9
ATOM      9  C   UNL     1       0.095  10.000  21.486  0.00  0.00    +0.000 A 
ATOM     10  C   UNL     1      -0.725  11.165  21.472  0.00  0.00    +0.000 A 
ATOM     11  C   UNL     1      -1.179  11.342  22.758  0.00  0.00    +0.000 A 
ATOM     12  O   UNL     1      -0.692  10.370  23.570  0.00  0.00    +0.000 OA
ATOM     13  C   UNL     1       0.078   9.562  22.796  0.00  0.00    +0.000 A 
ENDBRANCH   4   9
BRANCH   1  14
ATOM     14  C   UNL     1       3.155   5.605  18.649  0.00  0.00    +0.000 C 
BRANCH  14  18
ATOM     15  C   UNL     1       0.896   2.616  19.253  0.00  0.00    +0.000 A 
ATOM     16  C   UNL     1       1.819   1.906  18.524  0.00  0.00    +0.000 A 
ATOM     17  S   UNL     1       3.119   2.889  18.004  0.00  0.00    +0.000 S 
ATOM     18  C   UNL     1       2.444   4.281  18.743  0.00  0.00    +0.000 A 
ATOM     19  C   UNL     1       1.256   3.988  19.386  0.00  0.00    +0.000 A 
ENDBRANCH  14  18
ENDBRANCH   1  14
TORSDOF 3
ENDMDL
