MODEL 1
REMARK VINA RESULT:      -7.7      0.000      0.000
REMARK  Name = 
REMARK  10 active torsions:
REMARK  status: ('A' for Active; 'I' for Inactive)
REMARK    1  A    between atoms: C_1  and  O_2
REMARK    2  A    between atoms: O_2  and  C_3
REMARK    3  A    between atoms: C_5  and  C_6
REMARK    4  A    between atoms: C_6  and  N_7
REMARK    5  A    between atoms: C_9  and  C_10
REMARK    6  A    between atoms: C_10  and  C_12
REMARK    7  A    between atoms: C_12  and  C_13
REMARK    8  A    between atoms: C_16  and  N_17
REMARK    9  A    between atoms: C_25  and  O_26
REMARK   10  A    between atoms: O_26  and  C_27
REMARK                            x       y       z     vdW  Elec       q    Type
REMARK                         _______ _______ _______ _____ _____    ______ ____
ROOT
ATOM      1  N   UNL     1       1.239   9.396  19.784  0.00  0.00    +0.000 N 
ATOM      2  C   UNL     1       1.870   8.367  19.142  0.00  0.00    +0.000 A 
ATOM      3  C   UNL     1       1.782   7.309  20.027  0.00  0.00    +0.000 A 
ATOM      4  N   UNL     1       1.134   7.740  21.158  0.00  0.00    +0.000 NA
ATOM      5  N   UNL     1       0.775   9.004  20.983  0.00  0.00    +0.000 NA
ENDROOT
BRANCH   3   6
ATOM      6  C   UNL     1       2.220   5.931  19.849  0.00  0.00    +0.000 C 
ATOM      7  O   UNL     1       2.692   5.272  20.779  0.00  0.00    +0.000 OA
BRANCH   6   8
ATOM      8  C   UNL     1       2.040   5.293  18.484  0.00  0.00    +0.000 C 
BRANCH   8   9
ATOM      9  C   UNL     1       3.309   5.198  17.671  0.00  0.00    +0.000 A 
ATOM     10  C   UNL     1       4.077   6.345  17.415  0.00  0.00    +0.000 A 
ATOM     11  C   UNL     1       5.273   6.255  16.699  0.00  0.00    +0.000 A 
ATOM     12  C   UNL     1       5.708   5.009  16.234  0.00  0.00    +0.000 A 
ATOM     13  C   UNL     1       4.951   3.855  16.480  0.00  0.00    +0.000 A 
ATOM     14  C   UNL     1       3.759   3.954  17.201  0.00  0.00    +0.000 A 
BRANCH  12  15
ATOM     15  N   UNL     1       6.970   4.905  15.493  0.00  0.00    +0.000 N 
ATOM     16  O   UNL     1       6.996   5.337  14.333  0.00  0.00    +0.000 OA
ATOM     17  O   UNL     1       7.937   4.392  16.075  0.00  0.00    +0.000 OA
ENDBRANCH  12  15
ENDBRANCH   8   9
ENDBRANCH   6   8
ENDBRANCH   3   6
BRANCH   1  18
ATOM     18  C   UNL     1       0.865  10.687  19.234  0.00  0.00    +0.000 C 
BRANCH  18  21
ATOM     19  C   UNL     1      -2.794  11.748  19.026  0.00  0.00    +0.000 A 
ATOM     20  C   UNL     1      -1.489  11.570  19.494  0.00  0.00    +0.000 A 
ATOM     21  C   UNL     1      -0.575  10.763  18.799  0.00  0.00    +0.000 A 
ATOM     22  C   UNL     1      -1.010  10.116  17.632  0.00  0.00    +0.000 A 
ATOM     23  C   UNL     1      -2.307  10.302  17.146  0.00  0.00    +0.000 A 
ATOM     24  C   UNL     1      -3.196  11.117  17.847  0.00  0.00    +0.000 A 
BRANCH  19  26
ATOM     25  C   UNL     1      -4.965  12.606  19.492  0.00  0.00    +0.000 C 
ATOM     26  O   UNL     1      -3.571  12.580  19.789  0.00  0.00    +0.000 OA
ENDBRANCH  19  26
BRANCH  23  27
ATOM     27  O   UNL     1      -2.578   9.654  15.971  0.00  0.00    +0.000 OA
ATOM     28  C   UNL     1      -3.252  10.399  14.965  0.00  0.00    +0.000 C 
ENDBRANCH  23  27
ENDBRANCH  18  21
ENDBRANCH   1  18
TORSDOF 8
ENDMDL
MODEL 2
REMARK VINA RESULT:      -7.4      1.242      2.695
REMARK  Name = 
REMARK  10 active torsions:
REMARK  status: ('A' for Active; 'I' for Inactive)
REMARK    1  A    between atoms: C_1  and  O_2
REMARK    2  A    between atoms: O_2  and  C_3
REMARK    3  A    between atoms: C_5  and  C_6
REMARK    4  A    between atoms: C_6  and  N_7
REMARK    5  A    between atoms: C_9  and  C_10
REMARK    6  A    between atoms: C_10  and  C_12
REMARK    7  A    between atoms: C_12  and  C_13
REMARK    8  A    between atoms: C_16  and  N_17
REMARK    9  A    between atoms: C_25  and  O_26
REMARK   10  A    between atoms: O_26  and  C_27
REMARK                            x       y       z     vdW  Elec       q    Type
REMARK                         _______ _______ _______ _____ _____    ______ ____
ROOT
ATOM      1  N   UNL     1       1.561   9.176  19.086  0.00  0.00    +0.000 N 
ATOM      2  C   UNL     1       1.625   8.035  19.835  0.00  0.00    +0.000 A 
ATOM      3  C   UNL     1       2.382   7.168  19.069  0.00  0.00    +0.000 A 
ATOM      4  N   UNL     1       2.718   7.801  17.898  0.00  0.00    +0.000 NA
ATOM      5  N   UNL     1       2.243   9.038  17.936  0.00  0.00    +0.000 NA
ENDROOT
BRANCH   3   6
ATOM      6  C   UNL     1       2.839   5.823  19.394  0.00  0.00    +0.000 C 
ATOM      7  O   UNL     1       2.048   4.896  19.588  0.00  0.00    +0.000 OA
BRANCH   6   8
ATOM      8  C   UNL     1       4.334   5.568  19.446  0.00  0.00    +0.000 C 
BRANCH   8   9
ATOM      9  C   UNL     1       4.980   5.386  18.094  0.00  0.00    +0.000 A 
ATOM     10  C   UNL     1       6.115   6.135  17.743  0.00  0.00    +0.000 A 
ATOM     11  C   UNL     1       6.741   5.940  16.509  0.00  0.00    +0.000 A 
ATOM     12  C   UNL     1       6.231   4.989  15.618  0.00  0.00    +0.000 A 
ATOM     13  C   UNL     1       5.099   4.235  15.953  0.00  0.00    +0.000 A 
ATOM     14  C   UNL     1       4.482   4.433  17.191  0.00  0.00    +0.000 A 
BRANCH  12  15
ATOM     15  N   UNL     1       6.893   4.769  14.326  0.00  0.00    +0.000 N 
ATOM     16  O   UNL     1       6.396   3.934  13.558  0.00  0.00    +0.000 OA
ATOM     17  O   UNL     1       7.908   5.436  14.080  0.00  0.00    +0.000 OA
ENDBRANCH  12  15
ENDBRANCH   8   9
ENDBRANCH   6   8
ENDBRANCH   3   6
BRANCH   1  18
ATOM     18  C   UNL     1       1.058  10.477  19.494  0.00  0.00    +0.000 C 
BRANCH  18  21
ATOM     19  C   UNL     1      -2.099  10.338  17.356  0.00  0.00    +0.000 A 
ATOM     20  C   UNL     1      -0.785  10.151  17.796  0.00  0.00    +0.000 A 
ATOM     21  C   UNL     1      -0.311  10.791  18.951  0.00  0.00    +0.000 A 
ATOM     22  C   UNL     1      -1.182  11.645  19.646  0.00  0.00    +0.000 A 
ATOM     23  C   UNL     1      -2.502  11.825  19.225  0.00  0.00    +0.000 A 
ATOM     24  C   UNL     1      -2.956  11.170  18.078  0.00  0.00    +0.000 A 
BRANCH  19  26
ATOM     25  C   UNL     1      -3.080  10.364  15.188  0.00  0.00    +0.000 C 
ATOM     26  O   UNL     1      -2.434   9.635  16.229  0.00  0.00    +0.000 OA
ENDBRANCH  19  26
BRANCH  23  27
ATOM     27  O   UNL     1      -3.254  12.642  20.025  0.00  0.00    +0.000 OA
ATOM     28  C   UNL     1      -2.646  13.108  21.223  0.00  0.00    +0.000 C 
ENDBRANCH  23  27
ENDBRANCH  18  21
ENDBRANCH   1  18
TORSDOF 8
ENDMDL
MODEL 3
REMARK VINA RESULT:      -7.3      1.646      2.814
REMARK  Name = 
REMARK  10 active torsions:
REMARK  status: ('A' for Active; 'I' for Inactive)
REMARK    1  A    between atoms: C_1  and  O_2
REMARK    2  A    between atoms: O_2  and  C_3
REMARK    3  A    between atoms: C_5  and  C_6
REMARK    4  A    between atoms: C_6  and  N_7
REMARK    5  A    between atoms: C_9  and  C_10
REMARK    6  A    between atoms: C_10  and  C_12
REMARK    7  A    between atoms: C_12  and  C_13
REMARK    8  A    between atoms: C_16  and  N_17
REMARK    9  A    between atoms: C_25  and  O_26
REMARK   10  A    between atoms: O_26  and  C_27
REMARK                            x       y       z     vdW  Elec       q    Type
REMARK                         _______ _______ _______ _____ _____    ______ ____
ROOT
ATOM      1  N   UNL     1       2.197   8.022  18.705  0.00  0.00    +0.000 N 
ATOM      2  C   UNL     1       2.521   6.775  18.250  0.00  0.00    +0.000 A 
ATOM      3  C   UNL     1       2.381   5.961  19.359  0.00  0.00    +0.000 A 
ATOM      4  N   UNL     1       2.008   6.739  20.426  0.00  0.00    +0.000 NA
ATOM      5  N   UNL     1       1.862   7.989  20.007  0.00  0.00    +0.000 NA
ENDROOT
BRANCH   3   6
ATOM      6  C   UNL     1       2.528   4.514  19.454  0.00  0.00    +0.000 C 
ATOM      7  O   UNL     1       1.551   3.761  19.480  0.00  0.00    +0.000 OA
BRANCH   6   8
ATOM      8  C   UNL     1       3.931   3.937  19.473  0.00  0.00    +0.000 C 
BRANCH   8   9
ATOM      9  C   UNL     1       4.711   4.157  18.199  0.00  0.00    +0.000 A 
ATOM     10  C   UNL     1       5.980   4.757  18.238  0.00  0.00    +0.000 A 
ATOM     11  C   UNL     1       6.723   4.925  17.067  0.00  0.00    +0.000 A 
ATOM     12  C   UNL     1       6.195   4.490  15.846  0.00  0.00    +0.000 A 
ATOM     13  C   UNL     1       4.930   3.891  15.791  0.00  0.00    +0.000 A 
ATOM     14  C   UNL     1       4.196   3.723  16.968  0.00  0.00    +0.000 A 
BRANCH  12  15
ATOM     15  N   UNL     1       6.977   4.650  14.613  0.00  0.00    +0.000 N 
ATOM     16  O   UNL     1       6.665   3.954  13.638  0.00  0.00    +0.000 OA
ATOM     17  O   UNL     1       7.901   5.476  14.623  0.00  0.00    +0.000 OA
ENDBRANCH  12  15
ENDBRANCH   8   9
ENDBRANCH   6   8
ENDBRANCH   3   6
BRANCH   1  18
ATOM     18  C   UNL     1       1.982   9.225  17.920  0.00  0.00    +0.000 C 
BRANCH  18  21
ATOM     19  C   UNL     1      -1.619  10.395  18.392  0.00  0.00    +0.000 A 
ATOM     20  C   UNL     1      -0.493   9.737  17.888  0.00  0.00    +0.000 A 
ATOM     21  C   UNL     1       0.793  10.033  18.367  0.00  0.00    +0.000 A 
ATOM     22  C   UNL     1       0.926  11.025  19.350  0.00  0.00    +0.000 A 
ATOM     23  C   UNL     1      -0.195  11.676  19.874  0.00  0.00    +0.000 A 
ATOM     24  C   UNL     1      -1.466  11.359  19.390  0.00  0.00    +0.000 A 
BRANCH  19  26
ATOM     25  C   UNL     1      -2.866   9.877  16.432  0.00  0.00    +0.000 C 
ATOM     26  O   UNL     1      -2.811   9.991  17.851  0.00  0.00    +0.000 OA
ENDBRANCH  19  26
BRANCH  23  27
ATOM     27  O   UNL     1       0.076  12.582  20.863  0.00  0.00    +0.000 OA
ATOM     28  C   UNL     1      -0.448  13.893  20.697  0.00  0.00    +0.000 C 
ENDBRANCH  23  27
ENDBRANCH  18  21
ENDBRANCH   1  18
TORSDOF 8
ENDMDL
MODEL 4
REMARK VINA RESULT:      -7.3      1.642      2.853
REMARK  Name = 
REMARK  10 active torsions:
REMARK  status: ('A' for Active; 'I' for Inactive)
REMARK    1  A    between atoms: C_1  and  O_2
REMARK    2  A    between atoms: O_2  and  C_3
REMARK    3  A    between atoms: C_5  and  C_6
REMARK    4  A    between atoms: C_6  and  N_7
REMARK    5  A    between atoms: C_9  and  C_10
REMARK    6  A    between atoms: C_10  and  C_12
REMARK    7  A    between atoms: C_12  and  C_13
REMARK    8  A    between atoms: C_16  and  N_17
REMARK    9  A    between atoms: C_25  and  O_26
REMARK   10  A    between atoms: O_26  and  C_27
REMARK                            x       y       z     vdW  Elec       q    Type
REMARK                         _______ _______ _______ _____ _____    ______ ____
ROOT
ATOM      1  N   UNL     1       2.215   7.990  18.771  0.00  0.00    +0.000 N 
ATOM      2  C   UNL     1       2.466   6.725  18.320  0.00  0.00    +0.000 A 
ATOM      3  C   UNL     1       2.275   5.924  19.431  0.00  0.00    +0.000 A 
ATOM      4  N   UNL     1       1.946   6.726  20.495  0.00  0.00    +0.000 NA
ATOM      5  N   UNL     1       1.875   7.981  20.072  0.00  0.00    +0.000 NA
ENDROOT
BRANCH   3   6
ATOM      6  C   UNL     1       2.336   4.472  19.530  0.00  0.00    +0.000 C 
ATOM      7  O   UNL     1       1.317   3.775  19.517  0.00  0.00    +0.000 OA
BRANCH   6   8
ATOM      8  C   UNL     1       3.702   3.816  19.606  0.00  0.00    +0.000 C 
BRANCH   8   9
ATOM      9  C   UNL     1       4.555   4.014  18.376  0.00  0.00    +0.000 A 
ATOM     10  C   UNL     1       4.078   3.633  17.112  0.00  0.00    +0.000 A 
ATOM     11  C   UNL     1       4.846   3.853  15.966  0.00  0.00    +0.000 A 
ATOM     12  C   UNL     1       6.102   4.460  16.083  0.00  0.00    +0.000 A 
ATOM     13  C   UNL     1       6.593   4.844  17.338  0.00  0.00    +0.000 A 
ATOM     14  C   UNL     1       5.815   4.624  18.477  0.00  0.00    +0.000 A 
BRANCH  12  15
ATOM     15  N   UNL     1       6.909   4.706  14.881  0.00  0.00    +0.000 N 
ATOM     16  O   UNL     1       7.783   5.582  14.943  0.00  0.00    +0.000 OA
ATOM     17  O   UNL     1       6.668   4.021  13.877  0.00  0.00    +0.000 OA
ENDBRANCH  12  15
ENDBRANCH   8   9
ENDBRANCH   6   8
ENDBRANCH   3   6
BRANCH   1  18
ATOM     18  C   UNL     1       2.074   9.201  17.981  0.00  0.00    +0.000 C 
BRANCH  18  21
ATOM     19  C   UNL     1      -1.583  10.254  18.260  0.00  0.00    +0.000 A 
ATOM     20  C   UNL     1      -0.419   9.596  17.851  0.00  0.00    +0.000 A 
ATOM     21  C   UNL     1       0.842  10.000  18.316  0.00  0.00    +0.000 A 
ATOM     22  C   UNL     1       0.911  11.099  19.186  0.00  0.00    +0.000 A 
ATOM     23  C   UNL     1      -0.248  11.752  19.615  0.00  0.00    +0.000 A 
ATOM     24  C   UNL     1      -1.493  11.327  19.148  0.00  0.00    +0.000 A 
BRANCH  19  26
ATOM     25  C   UNL     1      -3.483  10.581  16.864  0.00  0.00    +0.000 C 
ATOM     26  O   UNL     1      -2.745   9.740  17.747  0.00  0.00    +0.000 OA
ENDBRANCH  19  26
BRANCH  23  27
ATOM     27  O   UNL     1      -0.037  12.772  20.503  0.00  0.00    +0.000 OA
ATOM     28  C   UNL     1       0.832  13.819  20.088  0.00  0.00    +0.000 C 
ENDBRANCH  23  27
ENDBRANCH  18  21
ENDBRANCH   1  18
TORSDOF 8
ENDMDL
MODEL 5
REMARK VINA RESULT:      -7.2      1.751      2.444
REMARK  Name = 
REMARK  10 active torsions:
REMARK  status: ('A' for Active; 'I' for Inactive)
REMARK    1  A    between atoms: C_1  and  O_2
REMARK    2  A    between atoms: O_2  and  C_3
REMARK    3  A    between atoms: C_5  and  C_6
REMARK    4  A    between atoms: C_6  and  N_7
REMARK    5  A    between atoms: C_9  and  C_10
REMARK    6  A    between atoms: C_10  and  C_12
REMARK    7  A    between atoms: C_12  and  C_13
REMARK    8  A    between atoms: C_16  and  N_17
REMARK    9  A    between atoms: C_25  and  O_26
REMARK   10  A    between atoms: O_26  and  C_27
REMARK                            x       y       z     vdW  Elec       q    Type
REMARK                         _______ _______ _______ _____ _____    ______ ____
ROOT
ATOM      1  N   UNL     1       2.102   7.867  19.173  0.00  0.00    +0.000 N 
ATOM      2  C   UNL     1       2.500   6.681  18.623  0.00  0.00    +0.000 A 
ATOM      3  C   UNL     1       2.305   5.755  19.632  0.00  0.00    +0.000 A 
ATOM      4  N   UNL     1       1.828   6.412  20.739  0.00  0.00    +0.000 NA
ATOM      5  N   UNL     1       1.673   7.693  20.435  0.00  0.00    +0.000 NA
ENDROOT
BRANCH   3   6
ATOM      6  C   UNL     1       2.491   4.311  19.594  0.00  0.00    +0.000 C 
ATOM      7  O   UNL     1       1.537   3.532  19.518  0.00  0.00    +0.000 OA
BRANCH   6   8
ATOM      8  C   UNL     1       3.910   3.772  19.605  0.00  0.00    +0.000 C 
BRANCH   8   9
ATOM      9  C   UNL     1       4.686   4.042  18.339  0.00  0.00    +0.000 A 
ATOM     10  C   UNL     1       5.999   4.536  18.403  0.00  0.00    +0.000 A 
ATOM     11  C   UNL     1       6.736   4.748  17.235  0.00  0.00    +0.000 A 
ATOM     12  C   UNL     1       6.158   4.464  15.992  0.00  0.00    +0.000 A 
ATOM     13  C   UNL     1       4.849   3.972  15.912  0.00  0.00    +0.000 A 
ATOM     14  C   UNL     1       4.121   3.759  17.086  0.00  0.00    +0.000 A 
BRANCH  12  15
ATOM     15  N   UNL     1       6.932   4.671  14.762  0.00  0.00    +0.000 N 
ATOM     16  O   UNL     1       7.823   5.531  14.779  0.00  0.00    +0.000 OA
ATOM     17  O   UNL     1       6.648   3.970  13.780  0.00  0.00    +0.000 OA
ENDBRANCH  12  15
ENDBRANCH   8   9
ENDBRANCH   6   8
ENDBRANCH   3   6
BRANCH   1  18
ATOM     18  C   UNL     1       1.907   9.137  18.496  0.00  0.00    +0.000 C 
BRANCH  18  21
ATOM     19  C   UNL     1       0.220  11.767  20.686  0.00  0.00    +0.000 A 
ATOM     20  C   UNL     1       1.166  10.870  20.180  0.00  0.00    +0.000 A 
ATOM     21  C   UNL     1       0.845   9.999  19.126  0.00  0.00    +0.000 A 
ATOM     22  C   UNL     1      -0.457  10.033  18.606  0.00  0.00    +0.000 A 
ATOM     23  C   UNL     1      -1.405  10.937  19.093  0.00  0.00    +0.000 A 
ATOM     24  C   UNL     1      -1.062  11.801  20.135  0.00  0.00    +0.000 A 
BRANCH  19  26
ATOM     25  C   UNL     1      -0.159  13.668  22.066  0.00  0.00    +0.000 C 
ATOM     26  O   UNL     1       0.674  12.572  21.697  0.00  0.00    +0.000 OA
ENDBRANCH  19  26
BRANCH  23  27
ATOM     27  O   UNL     1      -2.617  10.897  18.460  0.00  0.00    +0.000 OA
ATOM     28  C   UNL     1      -2.821   9.844  17.525  0.00  0.00    +0.000 C 
ENDBRANCH  23  27
ENDBRANCH  18  21
ENDBRANCH   1  18
TORSDOF 8
ENDMDL
MODEL 6
REMARK VINA RESULT:      -7.2      2.608      9.452
REMARK  Name = 
REMARK  10 active torsions:
REMARK  status: ('A' for Active; 'I' for Inactive)
REMARK    1  A    between atoms: C_1  and  O_2
REMARK    2  A    between atoms: O_2  and  C_3
REMARK    3  A    between atoms: C_5  and  C_6
REMARK    4  A    between atoms: C_6  and  N_7
REMARK    5  A    between atoms: C_9  and  C_10
REMARK    6  A    between atoms: C_10  and  C_12
REMARK    7  A    between atoms: C_12  and  C_13
REMARK    8  A    between atoms: C_16  and  N_17
REMARK    9  A    between atoms: C_25  and  O_26
REMARK   10  A    between atoms: O_26  and  C_27
REMARK                            x       y       z     vdW  Elec       q    Type
REMARK                         _______ _______ _______ _____ _____    ______ ____
ROOT
ATOM      1  N   UNL     1       2.045   8.487  18.589  0.00  0.00    +0.000 N 
ATOM      2  C   UNL     1       1.383   9.650  18.313  0.00  0.00    +0.000 A 
ATOM      3  C   UNL     1       0.774   9.986  19.509  0.00  0.00    +0.000 A 
ATOM      4  N   UNL     1       1.068   9.016  20.435  0.00  0.00    +0.000 NA
ATOM      5  N   UNL     1       1.875   8.126  19.872  0.00  0.00    +0.000 NA
ENDROOT
BRANCH   3   6
ATOM      6  C   UNL     1      -0.010  11.170  19.833  0.00  0.00    +0.000 C 
ATOM      7  O   UNL     1      -0.080  11.610  20.984  0.00  0.00    +0.000 OA
BRANCH   6   8
ATOM      8  C   UNL     1      -0.716  11.893  18.701  0.00  0.00    +0.000 C 
BRANCH   8   9
ATOM      9  C   UNL     1      -2.201  11.634  18.629  0.00  0.00    +0.000 A 
ATOM     10  C   UNL     1      -3.087  12.346  19.454  0.00  0.00    +0.000 A 
ATOM     11  C   UNL     1      -4.465  12.140  19.362  0.00  0.00    +0.000 A 
ATOM     12  C   UNL     1      -4.966  11.215  18.438  0.00  0.00    +0.000 A 
ATOM     13  C   UNL     1      -4.094  10.496  17.609  0.00  0.00    +0.000 A 
ATOM     14  C   UNL     1      -2.717  10.712  17.705  0.00  0.00    +0.000 A 
BRANCH  12  15
ATOM     15  N   UNL     1      -6.414  11.004  18.326  0.00  0.00    +0.000 N 
ATOM     16  O   UNL     1      -7.079  11.864  17.731  0.00  0.00    +0.000 OA
ATOM     17  O   UNL     1      -6.885   9.975  18.832  0.00  0.00    +0.000 OA
ENDBRANCH  12  15
ENDBRANCH   8   9
ENDBRANCH   6   8
ENDBRANCH   3   6
BRANCH   1  18
ATOM     18  C   UNL     1       3.011   7.798  17.751  0.00  0.00    +0.000 C 
BRANCH  18  21
ATOM     19  C   UNL     1       2.296   4.074  18.178  0.00  0.00    +0.000 A 
ATOM     20  C   UNL     1       2.114   5.446  17.978  0.00  0.00    +0.000 A 
ATOM     21  C   UNL     1       3.185   6.344  18.103  0.00  0.00    +0.000 A 
ATOM     22  C   UNL     1       4.444   5.835  18.458  0.00  0.00    +0.000 A 
ATOM     23  C   UNL     1       4.641   4.464  18.643  0.00  0.00    +0.000 A 
ATOM     24  C   UNL     1       3.563   3.587  18.504  0.00  0.00    +0.000 A 
BRANCH  19  26
ATOM     25  C   UNL     1       1.132   2.060  18.682  0.00  0.00    +0.000 C 
ATOM     26  O   UNL     1       1.172   3.312  18.001  0.00  0.00    +0.000 OA
ENDBRANCH  19  26
BRANCH  23  27
ATOM     27  O   UNL     1       5.928   4.103  18.935  0.00  0.00    +0.000 OA
ATOM     28  C   UNL     1       6.964   4.887  18.357  0.00  0.00    +0.000 C 
ENDBRANCH  23  27
ENDBRANCH  18  21
ENDBRANCH   1  18
TORSDOF 8
ENDMDL
MODEL 7
REMARK VINA RESULT:      -7.2      1.694      2.827
REMARK  Name = 
REMARK  10 active torsions:
REMARK  status: ('A' for Active; 'I' for Inactive)
REMARK    1  A    between atoms: C_1  and  O_2
REMARK    2  A    between atoms: O_2  and  C_3
REMARK    3  A    between atoms: C_5  and  C_6
REMARK    4  A    between atoms: C_6  and  N_7
REMARK    5  A    between atoms: C_9  and  C_10
REMARK    6  A    between atoms: C_10  and  C_12
REMARK    7  A    between atoms: C_12  and  C_13
REMARK    8  A    between atoms: C_16  and  N_17
REMARK    9  A    between atoms: C_25  and  O_26
REMARK   10  A    between atoms: O_26  and  C_27
REMARK                            x       y       z     vdW  Elec       q    Type
REMARK                         _______ _______ _______ _____ _____    ______ ____
ROOT
ATOM      1  N   UNL     1       2.027   8.509  18.803  0.00  0.00    +0.000 N 
ATOM      2  C   UNL     1       2.655   7.401  18.307  0.00  0.00    +0.000 A 
ATOM      3  C   UNL     1       2.543   6.466  19.319  0.00  0.00    +0.000 A 
ATOM      4  N   UNL     1       1.886   7.044  20.376  0.00  0.00    +0.000 NA
ATOM      5  N   UNL     1       1.543   8.278  20.035  0.00  0.00    +0.000 NA
ENDROOT
BRANCH   3   6
ATOM      6  C   UNL     1       2.969   5.072  19.325  0.00  0.00    +0.000 C 
ATOM      7  O   UNL     1       2.158   4.143  19.274  0.00  0.00    +0.000 OA
BRANCH   6   8
ATOM      8  C   UNL     1       4.457   4.778  19.348  0.00  0.00    +0.000 C 
BRANCH   8   9
ATOM      9  C   UNL     1       5.121   4.822  17.993  0.00  0.00    +0.000 A 
ATOM     10  C   UNL     1       6.416   5.346  17.852  0.00  0.00    +0.000 A 
ATOM     11  C   UNL     1       7.049   5.351  16.608  0.00  0.00    +0.000 A 
ATOM     12  C   UNL     1       6.385   4.827  15.492  0.00  0.00    +0.000 A 
ATOM     13  C   UNL     1       5.092   4.303  15.616  0.00  0.00    +0.000 A 
ATOM     14  C   UNL     1       4.468   4.298  16.866  0.00  0.00    +0.000 A 
BRANCH  12  15
ATOM     15  N   UNL     1       7.051   4.816  14.184  0.00  0.00    +0.000 N 
ATOM     16  O   UNL     1       6.625   4.031  13.326  0.00  0.00    +0.000 OA
ATOM     17  O   UNL     1       8.000   5.596  14.015  0.00  0.00    +0.000 OA
ENDBRANCH  12  15
ENDBRANCH   8   9
ENDBRANCH   6   8
ENDBRANCH   3   6
BRANCH   1  18
ATOM     18  C   UNL     1       1.674   9.723  18.087  0.00  0.00    +0.000 C 
BRANCH  18  21
ATOM     19  C   UNL     1      -1.764  11.144  18.937  0.00  0.00    +0.000 A 
ATOM     20  C   UNL     1      -0.721  10.510  18.252  0.00  0.00    +0.000 A 
ATOM     21  C   UNL     1       0.588  10.523  18.757  0.00  0.00    +0.000 A 
ATOM     22  C   UNL     1       0.834  11.209  19.955  0.00  0.00    +0.000 A 
ATOM     23  C   UNL     1      -0.203  11.831  20.656  0.00  0.00    +0.000 A 
ATOM     24  C   UNL     1      -1.500  11.798  20.142  0.00  0.00    +0.000 A 
BRANCH  19  26
ATOM     25  C   UNL     1      -4.030  11.865  18.858  0.00  0.00    +0.000 C 
ATOM     26  O   UNL     1      -2.993  11.033  18.343  0.00  0.00    +0.000 OA
ENDBRANCH  19  26
BRANCH  23  27
ATOM     27  O   UNL     1       0.171  12.417  21.835  0.00  0.00    +0.000 OA
ATOM     28  C   UNL     1      -0.872  12.878  22.685  0.00  0.00    +0.000 C 
ENDBRANCH  23  27
ENDBRANCH  18  21
ENDBRANCH   1  18
TORSDOF 8
ENDMDL
MODEL 8
REMARK VINA RESULT:      -7.1      1.661      2.881
REMARK  Name = 
REMARK  10 active torsions:
REMARK  status: ('A' for Active; 'I' for Inactive)
REMARK    1  A    between atoms: C_1  and  O_2
REMARK    2  A    between atoms: O_2  and  C_3
REMARK    3  A    between atoms: C_5  and  C_6
REMARK    4  A    between atoms: C_6  and  N_7
REMARK    5  A    between atoms: C_9  and  C_10
REMARK    6  A    between atoms: C_10  and  C_12
REMARK    7  A    between atoms: C_12  and  C_13
REMARK    8  A    between atoms: C_16  and  N_17
REMARK    9  A    between atoms: C_25  and  O_26
REMARK   10  A    between atoms: O_26  and  C_27
REMARK                            x       y       z     vdW  Elec       q    Type
REMARK                         _______ _______ _______ _____ _____    ______ ____
ROOT
ATOM      1  N   UNL     1       1.457   9.885  18.709  0.00  0.00    +0.000 N 
ATOM      2  C   UNL     1       1.326   8.963  19.709  0.00  0.00    +0.000 A 
ATOM      3  C   UNL     1       1.841   7.799  19.169  0.00  0.00    +0.000 A 
ATOM      4  N   UNL     1       2.233   8.054  17.878  0.00  0.00    +0.000 NA
ATOM      5  N   UNL     1       2.028   9.339  17.621  0.00  0.00    +0.000 NA
ENDROOT
BRANCH   3   6
ATOM      6  C   UNL     1       2.026   6.501  19.804  0.00  0.00    +0.000 C 
ATOM      7  O   UNL     1       2.031   6.371  21.031  0.00  0.00    +0.000 OA
BRANCH   6   8
ATOM      8  C   UNL     1       2.171   5.282  18.913  0.00  0.00    +0.000 C 
BRANCH   8   9
ATOM      9  C   UNL     1       3.580   5.024  18.436  0.00  0.00    +0.000 A 
ATOM     10  C   UNL     1       3.823   4.663  17.101  0.00  0.00    +0.000 A 
ATOM     11  C   UNL     1       5.128   4.464  16.646  0.00  0.00    +0.000 A 
ATOM     12  C   UNL     1       6.201   4.627  17.530  0.00  0.00    +0.000 A 
ATOM     13  C   UNL     1       5.974   4.985  18.865  0.00  0.00    +0.000 A 
ATOM     14  C   UNL     1       4.665   5.187  19.311  0.00  0.00    +0.000 A 
BRANCH  12  15
ATOM     15  N   UNL     1       7.577   4.433  17.054  0.00  0.00    +0.000 N 
ATOM     16  O   UNL     1       7.792   4.564  15.841  0.00  0.00    +0.000 OA
ATOM     17  O   UNL     1       8.441   4.152  17.896  0.00  0.00    +0.000 OA
ENDBRANCH  12  15
ENDBRANCH   8   9
ENDBRANCH   6   8
ENDBRANCH   3   6
BRANCH   1  18
ATOM     18  C   UNL     1       1.260  11.321  18.796  0.00  0.00    +0.000 C 
BRANCH  18  21
ATOM     19  C   UNL     1      -2.509  11.821  18.467  0.00  0.00    +0.000 A 
ATOM     20  C   UNL     1      -1.169  11.579  18.146  0.00  0.00    +0.000 A 
ATOM     21  C   UNL     1      -0.159  11.717  19.111  0.00  0.00    +0.000 A 
ATOM     22  C   UNL     1      -0.521  12.128  20.402  0.00  0.00    +0.000 A 
ATOM     23  C   UNL     1      -1.859  12.355  20.738  0.00  0.00    +0.000 A 
ATOM     24  C   UNL     1      -2.849  12.202  19.766  0.00  0.00    +0.000 A 
BRANCH  19  26
ATOM     25  C   UNL     1      -4.644  11.034  17.770  0.00  0.00    +0.000 C 
ATOM     26  O   UNL     1      -3.391  11.626  17.437  0.00  0.00    +0.000 OA
ENDBRANCH  19  26
BRANCH  23  27
ATOM     27  O   UNL     1      -2.073  12.700  22.045  0.00  0.00    +0.000 OA
ATOM     28  C   UNL     1      -1.412  11.920  23.033  0.00  0.00    +0.000 C 
ENDBRANCH  23  27
ENDBRANCH  18  21
ENDBRANCH   1  18
TORSDOF 8
ENDMDL
MODEL 9
REMARK VINA RESULT:      -7.0      2.644      9.132
REMARK  Name = 
REMARK  10 active torsions:
REMARK  status: ('A' for Active; 'I' for Inactive)
REMARK    1  A    between atoms: C_1  and  O_2
REMARK    2  A    between atoms: O_2  and  C_3
REMARK    3  A    between atoms: C_5  and  C_6
REMARK    4  A    between atoms: C_6  and  N_7
REMARK    5  A    between atoms: C_9  and  C_10
REMARK    6  A    between atoms: C_10  and  C_12
REMARK    7  A    between atoms: C_12  and  C_13
REMARK    8  A    between atoms: C_16  and  N_17
REMARK    9  A    between atoms: C_25  and  O_26
REMARK   10  A    between atoms: O_26  and  C_27
REMARK                            x       y       z     vdW  Elec       q    Type
REMARK                         _______ _______ _______ _____ _____    ______ ____
ROOT
ATOM      1  N   UNL     1       3.432   4.565  18.106  0.00  0.00    +0.000 N 
ATOM      2  C   UNL     1       2.788   5.722  17.765  0.00  0.00    +0.000 A 
ATOM      3  C   UNL     1       2.644   6.396  18.964  0.00  0.00    +0.000 A 
ATOM      4  N   UNL     1       3.175   5.622  19.966  0.00  0.00    +0.000 NA
ATOM      5  N   UNL     1       3.686   4.524  19.425  0.00  0.00    +0.000 NA
ENDROOT
BRANCH   3   6
ATOM      6  C   UNL     1       2.091   7.723  19.205  0.00  0.00    +0.000 C 
ATOM      7  O   UNL     1       1.831   8.123  20.342  0.00  0.00    +0.000 OA
BRANCH   6   8
ATOM      8  C   UNL     1       1.880   8.637  18.012  0.00  0.00    +0.000 C 
BRANCH   8   9
ATOM      9  C   UNL     1       1.224   9.954  18.348  0.00  0.00    +0.000 A 
ATOM     10  C   UNL     1       1.986  11.132  18.411  0.00  0.00    +0.000 A 
ATOM     11  C   UNL     1       1.376  12.359  18.681  0.00  0.00    +0.000 A 
ATOM     12  C   UNL     1      -0.007  12.413  18.888  0.00  0.00    +0.000 A 
ATOM     13  C   UNL     1      -0.780  11.246  18.829  0.00  0.00    +0.000 A 
ATOM     14  C   UNL     1      -0.163  10.024  18.555  0.00  0.00    +0.000 A 
BRANCH  12  15
ATOM     15  N   UNL     1      -0.656  13.702  19.158  0.00  0.00    +0.000 N 
ATOM     16  O   UNL     1      -1.629  13.709  19.924  0.00  0.00    +0.000 OA
ATOM     17  O   UNL     1      -0.189  14.707  18.603  0.00  0.00    +0.000 OA
ENDBRANCH  12  15
ENDBRANCH   8   9
ENDBRANCH   6   8
ENDBRANCH   3   6
BRANCH   1  18
ATOM     18  C   UNL     1       4.011   3.577  17.212  0.00  0.00    +0.000 C 
BRANCH  18  21
ATOM     19  C   UNL     1       6.967   5.587  15.878  0.00  0.00    +0.000 A 
ATOM     20  C   UNL     1       5.928   5.143  16.701  0.00  0.00    +0.000 A 
ATOM     21  C   UNL     1       5.039   4.146  16.270  0.00  0.00    +0.000 A 
ATOM     22  C   UNL     1       5.203   3.619  14.980  0.00  0.00    +0.000 A 
ATOM     23  C   UNL     1       6.250   4.042  14.156  0.00  0.00    +0.000 A 
ATOM     24  C   UNL     1       7.128   5.028  14.609  0.00  0.00    +0.000 A 
BRANCH  19  26
ATOM     25  C   UNL     1       7.236   7.273  17.536  0.00  0.00    +0.000 C 
ATOM     26  O   UNL     1       7.772   6.546  16.433  0.00  0.00    +0.000 OA
ENDBRANCH  19  26
BRANCH  23  27
ATOM     27  O   UNL     1       6.322   3.406  12.946  0.00  0.00    +0.000 OA
ATOM     28  C   UNL     1       5.130   3.358  12.171  0.00  0.00    +0.000 C 
ENDBRANCH  23  27
ENDBRANCH  18  21
ENDBRANCH   1  18
TORSDOF 8
ENDMDL
