MODEL 1
REMARK VINA RESULT:      -6.9      0.000      0.000
REMARK  Name = 
REMARK  2 active torsions:
REMARK  status: ('A' for Active; 'I' for Inactive)
REMARK    1  A    between atoms: C_1  and  N_2
REMARK    2  A    between atoms: N_2  and  C_3
REMARK                            x       y       z     vdW  Elec       q    Type
REMARK                         _______ _______ _______ _____ _____    ______ ____
ROOT
ATOM      1  C   UNL     1      -5.763  11.240  19.575  0.00  0.00    +0.000 A 
ATOM      2  N   UNL     1      -5.747  11.825  20.802  0.00  0.00    +0.000 NA
ATOM      3  C   UNL     1      -4.659  12.638  21.105  0.00  0.00    +0.000 A 
ATOM      4  N   UNL     1      -3.581  12.852  20.321  0.00  0.00    +0.000 NA
ATOM      5  C   UNL     1      -3.641  12.233  19.138  0.00  0.00    +0.000 A 
ATOM      6  C   UNL     1      -4.738  11.508  18.713  0.00  0.00    +0.000 A 
ATOM      7  N   UNL     1      -4.517  10.999  17.443  0.00  0.00    +0.000 N 
ATOM      8  C   UNL     1      -3.202  11.283  17.101  0.00  0.00    +0.000 A 
ATOM      9  O   UNL     1      -2.638  10.877  16.100  0.00  0.00    +0.000 OA
ATOM     10  N   UNL     1      -2.657  12.045  18.144  0.00  0.00    +0.000 N 
ATOM     11  C   UNL     1      -1.236  12.158  18.332  0.00  0.00    +0.000 C 
ATOM     12  C   UNL     1      -0.786  11.483  19.605  0.00  0.00    +0.000 A 
ATOM     13  C   UNL     1      -0.735  10.097  19.779  0.00  0.00    +0.000 A 
ATOM     14  C   UNL     1      -0.558   9.561  21.063  0.00  0.00    +0.000 A 
ATOM     15  C   UNL     1      -0.467  10.402  22.176  0.00  0.00    +0.000 A 
ATOM     16  C   UNL     1      -0.499  11.781  22.003  0.00  0.00    +0.000 A 
ATOM     17  C   UNL     1      -0.594  12.304  20.713  0.00  0.00    +0.000 A 
ATOM     18  O   UNL     1      -0.497  12.562  23.135  0.00  0.00    +0.000 OA
ATOM     19  C   UNL     1      -0.991  13.874  22.868  0.00  0.00    +0.000 C 
ATOM     20  C   UNL     1      -1.406  14.592  24.130  0.00  0.00    +0.000 C 
ATOM     21  C   UNL     1      -2.425  15.673  23.763  0.00  0.00    +0.000 C 
ATOM     22  C   UNL     1      -3.899  15.192  23.782  0.00  0.00    +0.000 C 
ATOM     23  C   UNL     1      -4.547  14.560  22.502  0.00  0.00    +0.000 C 
ATOM     24  O   UNL     1      -4.528  13.116  22.422  0.00  0.00    +0.000 OA
ATOM     25  H   UNL     1      -5.135  10.423  16.896  0.00  0.00    +0.000 HD
ENDROOT
BRANCH   1  27
ATOM     26  C   UNL     1      -7.143   9.068  19.565  0.00  0.00    +0.000 C 
ATOM     27  N   UNL     1      -6.682  10.320  19.028  0.00  0.00    +0.000 N 
ATOM     28  H   UNL     1      -6.405  10.175  18.057  0.00  0.00    +0.000 HD
ENDBRANCH   1  27
TORSDOF 1
ENDMDL
MODEL 2
REMARK VINA RESULT:      -6.8      2.245      3.479
REMARK  Name = 
REMARK  2 active torsions:
REMARK  status: ('A' for Active; 'I' for Inactive)
REMARK    1  A    between atoms: C_1  and  N_2
REMARK    2  A    between atoms: N_2  and  C_3
REMARK                            x       y       z     vdW  Elec       q    Type
REMARK                         _______ _______ _______ _____ _____    ______ ____
ROOT
ATOM      1  C   UNL     1      -2.602  11.517  17.544  0.00  0.00    +0.000 A 
ATOM      2  N   UNL     1      -3.773  11.427  18.230  0.00  0.00    +0.000 NA
ATOM      3  C   UNL     1      -3.880  12.161  19.407  0.00  0.00    +0.000 A 
ATOM      4  N   UNL     1      -2.908  12.908  19.972  0.00  0.00    +0.000 NA
ATOM      5  C   UNL     1      -1.772  12.941  19.267  0.00  0.00    +0.000 A 
ATOM      6  C   UNL     1      -1.626  12.340  18.031  0.00  0.00    +0.000 A 
ATOM      7  N   UNL     1      -0.349  12.557  17.538  0.00  0.00    +0.000 N 
ATOM      8  C   UNL     1       0.383  13.189  18.534  0.00  0.00    +0.000 A 
ATOM      9  O   UNL     1       1.578  13.422  18.481  0.00  0.00    +0.000 OA
ATOM     10  N   UNL     1      -0.492  13.429  19.603  0.00  0.00    +0.000 N 
ATOM     11  C   UNL     1      -0.005  13.676  20.934  0.00  0.00    +0.000 C 
ATOM     12  C   UNL     1      -0.370  12.554  21.878  0.00  0.00    +0.000 A 
ATOM     13  C   UNL     1       0.225  11.289  21.856  0.00  0.00    +0.000 A 
ATOM     14  C   UNL     1      -0.346  10.237  22.584  0.00  0.00    +0.000 A 
ATOM     15  C   UNL     1      -1.528  10.433  23.306  0.00  0.00    +0.000 A 
ATOM     16  C   UNL     1      -2.111  11.695  23.343  0.00  0.00    +0.000 A 
ATOM     17  C   UNL     1      -1.489  12.753  22.681  0.00  0.00    +0.000 A 
ATOM     18  O   UNL     1      -3.319  11.816  23.990  0.00  0.00    +0.000 OA
ATOM     19  C   UNL     1      -4.022  12.986  23.576  0.00  0.00    +0.000 C 
ATOM     20  C   UNL     1      -5.490  12.919  23.921  0.00  0.00    +0.000 C 
ATOM     21  C   UNL     1      -6.255  13.853  22.979  0.00  0.00    +0.000 C 
ATOM     22  C   UNL     1      -6.731  13.181  21.665  0.00  0.00    +0.000 C 
ATOM     23  C   UNL     1      -5.799  13.151  20.404  0.00  0.00    +0.000 C 
ATOM     24  O   UNL     1      -5.007  11.954  20.223  0.00  0.00    +0.000 OA
ATOM     25  H   UNL     1       0.040  12.224  16.672  0.00  0.00    +0.000 HD
ENDROOT
BRANCH   1  27
ATOM     26  C   UNL     1      -2.923  10.550  15.182  0.00  0.00    +0.000 C 
ATOM     27  N   UNL     1      -2.184  10.838  16.381  0.00  0.00    +0.000 N 
ATOM     28  H   UNL     1      -1.724   9.983  16.693  0.00  0.00    +0.000 HD
ENDBRANCH   1  27
TORSDOF 1
ENDMDL
MODEL 3
REMARK VINA RESULT:      -6.6      2.408      5.170
REMARK  Name = 
REMARK  2 active torsions:
REMARK  status: ('A' for Active; 'I' for Inactive)
REMARK    1  A    between atoms: C_1  and  N_2
REMARK    2  A    between atoms: N_2  and  C_3
REMARK                            x       y       z     vdW  Elec       q    Type
REMARK                         _______ _______ _______ _____ _____    ______ ____
ROOT
ATOM      1  C   UNL     1      -0.396  10.537  17.993  0.00  0.00    +0.000 A 
ATOM      2  N   UNL     1      -1.672  10.071  18.033  0.00  0.00    +0.000 NA
ATOM      3  C   UNL     1      -2.666  10.968  18.413  0.00  0.00    +0.000 A 
ATOM      4  N   UNL     1      -2.477  12.245  18.810  0.00  0.00    +0.000 NA
ATOM      5  C   UNL     1      -1.201  12.640  18.772  0.00  0.00    +0.000 A 
ATOM      6  C   UNL     1      -0.173  11.851  18.293  0.00  0.00    +0.000 A 
ATOM      7  N   UNL     1       1.032  12.532  18.363  0.00  0.00    +0.000 N 
ATOM      8  C   UNL     1       0.797  13.729  19.029  0.00  0.00    +0.000 A 
ATOM      9  O   UNL     1       1.661  14.519  19.368  0.00  0.00    +0.000 OA
ATOM     10  N   UNL     1      -0.579  13.800  19.283  0.00  0.00    +0.000 N 
ATOM     11  C   UNL     1      -1.114  14.667  20.298  0.00  0.00    +0.000 C 
ATOM     12  C   UNL     1      -1.713  13.884  21.442  0.00  0.00    +0.000 A 
ATOM     13  C   UNL     1      -0.959  13.183  22.388  0.00  0.00    +0.000 A 
ATOM     14  C   UNL     1      -1.592  12.279  23.252  0.00  0.00    +0.000 A 
ATOM     15  C   UNL     1      -2.967  12.046  23.153  0.00  0.00    +0.000 A 
ATOM     16  C   UNL     1      -3.721  12.756  22.226  0.00  0.00    +0.000 A 
ATOM     17  C   UNL     1      -3.094  13.712  21.426  0.00  0.00    +0.000 A 
ATOM     18  O   UNL     1      -5.051  12.427  22.104  0.00  0.00    +0.000 OA
ATOM     19  C   UNL     1      -5.588  12.861  20.856  0.00  0.00    +0.000 C 
ATOM     20  C   UNL     1      -6.877  12.152  20.515  0.00  0.00    +0.000 C 
ATOM     21  C   UNL     1      -7.071  12.199  18.997  0.00  0.00    +0.000 C 
ATOM     22  C   UNL     1      -6.438  11.005  18.237  0.00  0.00    +0.000 C 
ATOM     23  C   UNL     1      -4.948  11.069  17.753  0.00  0.00    +0.000 C 
ATOM     24  O   UNL     1      -3.965  10.474  18.631  0.00  0.00    +0.000 OA
ATOM     25  H   UNL     1       1.942  12.198  18.099  0.00  0.00    +0.000 HD
ENDROOT
BRANCH   1  27
ATOM     26  C   UNL     1       1.592   9.018  18.594  0.00  0.00    +0.000 C 
ATOM     27  N   UNL     1       0.807   9.849  17.723  0.00  0.00    +0.000 N 
ATOM     28  H   UNL     1       1.426  10.517  17.264  0.00  0.00    +0.000 HD
ENDBRANCH   1  27
TORSDOF 1
ENDMDL
MODEL 4
REMARK VINA RESULT:      -6.6     11.047     13.513
REMARK  Name = 
REMARK  2 active torsions:
REMARK  status: ('A' for Active; 'I' for Inactive)
REMARK    1  A    between atoms: C_1  and  N_2
REMARK    2  A    between atoms: N_2  and  C_3
REMARK                            x       y       z     vdW  Elec       q    Type
REMARK                         _______ _______ _______ _____ _____    ______ ____
ROOT
ATOM      1  C   UNL     1       9.666  11.053  19.284  0.00  0.00    +0.000 A 
ATOM      2  N   UNL     1      10.151  11.859  18.303  0.00  0.00    +0.000 NA
ATOM      3  C   UNL     1      10.421  13.181  18.641  0.00  0.00    +0.000 A 
ATOM      4  N   UNL     1      10.188  13.762  19.837  0.00  0.00    +0.000 NA
ATOM      5  C   UNL     1       9.690  12.928  20.756  0.00  0.00    +0.000 A 
ATOM      6  C   UNL     1       9.507  11.576  20.537  0.00  0.00    +0.000 A 
ATOM      7  N   UNL     1       8.992  10.969  21.671  0.00  0.00    +0.000 N 
ATOM      8  C   UNL     1       8.708  11.971  22.590  0.00  0.00    +0.000 A 
ATOM      9  O   UNL     1       8.135  11.802  23.652  0.00  0.00    +0.000 OA
ATOM     10  N   UNL     1       9.138  13.182  22.029  0.00  0.00    +0.000 N 
ATOM     11  C   UNL     1       8.637  14.447  22.495  0.00  0.00    +0.000 C 
ATOM     12  C   UNL     1       7.795  15.135  21.447  0.00  0.00    +0.000 A 
ATOM     13  C   UNL     1       6.511  14.720  21.081  0.00  0.00    +0.000 A 
ATOM     14  C   UNL     1       5.910  15.248  19.930  0.00  0.00    +0.000 A 
ATOM     15  C   UNL     1       6.598  16.160  19.124  0.00  0.00    +0.000 A 
ATOM     16  C   UNL     1       7.868  16.586  19.496  0.00  0.00    +0.000 A 
ATOM     17  C   UNL     1       8.424  16.117  20.686  0.00  0.00    +0.000 A 
ATOM     18  O   UNL     1       8.540  17.413  18.626  0.00  0.00    +0.000 OA
ATOM     19  C   UNL     1       9.946  17.402  18.870  0.00  0.00    +0.000 C 
ATOM     20  C   UNL     1      10.731  17.931  17.693  0.00  0.00    +0.000 C 
ATOM     21  C   UNL     1      12.151  17.365  17.761  0.00  0.00    +0.000 C 
ATOM     22  C   UNL     1      12.333  16.011  17.027  0.00  0.00    +0.000 C 
ATOM     23  C   UNL     1      12.073  14.658  17.776  0.00  0.00    +0.000 C 
ATOM     24  O   UNL     1      10.758  14.079  17.612  0.00  0.00    +0.000 OA
ATOM     25  H   UNL     1       8.747  10.001  21.792  0.00  0.00    +0.000 HD
ENDROOT
BRANCH   1  27
ATOM     26  C   UNL     1       8.395   9.074  18.240  0.00  0.00    +0.000 C 
ATOM     27  N   UNL     1       9.235   9.711  19.218  0.00  0.00    +0.000 N 
ATOM     28  H   UNL     1       8.892   9.470  20.148  0.00  0.00    +0.000 HD
ENDBRANCH   1  27
TORSDOF 1
ENDMDL
MODEL 5
REMARK VINA RESULT:      -6.5      2.409      5.293
REMARK  Name = 
REMARK  2 active torsions:
REMARK  status: ('A' for Active; 'I' for Inactive)
REMARK    1  A    between atoms: C_1  and  N_2
REMARK    2  A    between atoms: N_2  and  C_3
REMARK                            x       y       z     vdW  Elec       q    Type
REMARK                         _______ _______ _______ _____ _____    ______ ____
ROOT
ATOM      1  C   UNL     1      -1.472  13.679  19.336  0.00  0.00    +0.000 A 
ATOM      2  N   UNL     1      -2.041  14.059  20.511  0.00  0.00    +0.000 NA
ATOM      3  C   UNL     1      -3.153  13.343  20.941  0.00  0.00    +0.000 A 
ATOM      4  N   UNL     1      -3.766  12.344  20.271  0.00  0.00    +0.000 NA
ATOM      5  C   UNL     1      -3.179  12.029  19.112  0.00  0.00    +0.000 A 
ATOM      6  C   UNL     1      -2.004  12.609  18.673  0.00  0.00    +0.000 A 
ATOM      7  N   UNL     1      -1.629  12.072  17.451  0.00  0.00    +0.000 N 
ATOM      8  C   UNL     1      -2.653  11.234  17.030  0.00  0.00    +0.000 A 
ATOM      9  O   UNL     1      -2.706  10.691  15.941  0.00  0.00    +0.000 OA
ATOM     10  N   UNL     1      -3.612  11.204  18.052  0.00  0.00    +0.000 N 
ATOM     11  C   UNL     1      -4.967  10.793  17.803  0.00  0.00    +0.000 C 
ATOM     12  C   UNL     1      -5.936  11.940  17.963  0.00  0.00    +0.000 A 
ATOM     13  C   UNL     1      -6.052  12.998  17.057  0.00  0.00    +0.000 A 
ATOM     14  C   UNL     1      -6.783  14.141  17.409  0.00  0.00    +0.000 A 
ATOM     15  C   UNL     1      -7.368  14.247  18.675  0.00  0.00    +0.000 A 
ATOM     16  C   UNL     1      -7.269  13.188  19.570  0.00  0.00    +0.000 A 
ATOM     17  C   UNL     1      -6.609  12.024  19.179  0.00  0.00    +0.000 A 
ATOM     18  O   UNL     1      -7.782  13.376  20.833  0.00  0.00    +0.000 OA
ATOM     19  C   UNL     1      -7.229  12.451  21.768  0.00  0.00    +0.000 C 
ATOM     20  C   UNL     1      -7.428  12.900  23.196  0.00  0.00    +0.000 C 
ATOM     21  C   UNL     1      -6.358  12.238  24.068  0.00  0.00    +0.000 C 
ATOM     22  C   UNL     1      -5.046  13.055  24.197  0.00  0.00    +0.000 C 
ATOM     23  C   UNL     1      -3.890  12.874  23.154  0.00  0.00    +0.000 C 
ATOM     24  O   UNL     1      -3.863  13.819  22.058  0.00  0.00    +0.000 OA
ATOM     25  H   UNL     1      -0.829  12.316  16.893  0.00  0.00    +0.000 HD
ENDROOT
BRANCH   1  27
ATOM     26  C   UNL     1       0.431  15.374  18.983  0.00  0.00    +0.000 C 
ATOM     27  N   UNL     1      -0.401  14.258  18.624  0.00  0.00    +0.000 N 
ATOM     28  H   UNL     1      -0.725  14.389  17.666  0.00  0.00    +0.000 HD
ENDBRANCH   1  27
TORSDOF 1
ENDMDL
MODEL 6
REMARK VINA RESULT:      -6.5      2.652      5.612
REMARK  Name = 
REMARK  2 active torsions:
REMARK  status: ('A' for Active; 'I' for Inactive)
REMARK    1  A    between atoms: C_1  and  N_2
REMARK    2  A    between atoms: N_2  and  C_3
REMARK                            x       y       z     vdW  Elec       q    Type
REMARK                         _______ _______ _______ _____ _____    ______ ____
ROOT
ATOM      1  C   UNL     1       0.647  10.550  18.330  0.00  0.00    +0.000 A 
ATOM      2  N   UNL     1      -0.632  10.149  18.100  0.00  0.00    +0.000 NA
ATOM      3  C   UNL     1      -1.636  11.096  18.270  0.00  0.00    +0.000 A 
ATOM      4  N   UNL     1      -1.472  12.363  18.706  0.00  0.00    +0.000 NA
ATOM      5  C   UNL     1      -0.198  12.694  18.939  0.00  0.00    +0.000 A 
ATOM      6  C   UNL     1       0.867  11.853  18.679  0.00  0.00    +0.000 A 
ATOM      7  N   UNL     1       2.063  12.473  19.004  0.00  0.00    +0.000 N 
ATOM      8  C   UNL     1       1.754  13.682  19.614  0.00  0.00    +0.000 A 
ATOM      9  O   UNL     1       2.566  14.429  20.131  0.00  0.00    +0.000 OA
ATOM     10  N   UNL     1       0.360  13.823  19.575  0.00  0.00    +0.000 N 
ATOM     11  C   UNL     1      -0.332  14.720  20.462  0.00  0.00    +0.000 C 
ATOM     12  C   UNL     1      -1.194  13.972  21.451  0.00  0.00    +0.000 A 
ATOM     13  C   UNL     1      -0.690  13.237  22.528  0.00  0.00    +0.000 A 
ATOM     14  C   UNL     1      -1.534  12.369  23.236  0.00  0.00    +0.000 A 
ATOM     15  C   UNL     1      -2.868  12.206  22.850  0.00  0.00    +0.000 A 
ATOM     16  C   UNL     1      -3.375  12.949  21.790  0.00  0.00    +0.000 A 
ATOM     17  C   UNL     1      -2.548  13.869  21.146  0.00  0.00    +0.000 A 
ATOM     18  O   UNL     1      -4.665  12.686  21.391  0.00  0.00    +0.000 OA
ATOM     19  C   UNL     1      -4.907  13.142  20.061  0.00  0.00    +0.000 C 
ATOM     20  C   UNL     1      -6.130  12.497  19.454  0.00  0.00    +0.000 C 
ATOM     21  C   UNL     1      -6.000  12.547  17.929  0.00  0.00    +0.000 C 
ATOM     22  C   UNL     1      -5.282  11.320  17.310  0.00  0.00    +0.000 C 
ATOM     23  C   UNL     1      -3.723  11.308  17.148  0.00  0.00    +0.000 C 
ATOM     24  O   UNL     1      -2.975  10.668  18.209  0.00  0.00    +0.000 OA
ATOM     25  H   UNL     1       2.991  12.093  18.934  0.00  0.00    +0.000 HD
ENDROOT
BRANCH   1  27
ATOM     26  C   UNL     1       2.073   8.467  17.832  0.00  0.00    +0.000 C 
ATOM     27  N   UNL     1       1.843   9.802  18.313  0.00  0.00    +0.000 N 
ATOM     28  H   UNL     1       2.253   9.888  19.243  0.00  0.00    +0.000 HD
ENDBRANCH   1  27
TORSDOF 1
ENDMDL
MODEL 7
REMARK VINA RESULT:      -6.2      2.500      6.568
REMARK  Name = 
REMARK  2 active torsions:
REMARK  status: ('A' for Active; 'I' for Inactive)
REMARK    1  A    between atoms: C_1  and  N_2
REMARK    2  A    between atoms: N_2  and  C_3
REMARK                            x       y       z     vdW  Elec       q    Type
REMARK                         _______ _______ _______ _____ _____    ______ ____
ROOT
ATOM      1  C   UNL     1      -3.506  13.909  23.543  0.00  0.00    +0.000 A 
ATOM      2  N   UNL     1      -2.776  13.029  22.808  0.00  0.00    +0.000 NA
ATOM      3  C   UNL     1      -3.076  12.927  21.453  0.00  0.00    +0.000 A 
ATOM      4  N   UNL     1      -4.069  13.573  20.806  0.00  0.00    +0.000 NA
ATOM      5  C   UNL     1      -4.768  14.407  21.582  0.00  0.00    +0.000 A 
ATOM      6  C   UNL     1      -4.458  14.655  22.905  0.00  0.00    +0.000 A 
ATOM      7  N   UNL     1      -5.346  15.572  23.446  0.00  0.00    +0.000 N 
ATOM      8  C   UNL     1      -6.329  15.812  22.495  0.00  0.00    +0.000 A 
ATOM      9  O   UNL     1      -7.332  16.478  22.682  0.00  0.00    +0.000 OA
ATOM     10  N   UNL     1      -5.977  15.095  21.343  0.00  0.00    +0.000 N 
ATOM     11  C   UNL     1      -6.945  14.772  20.330  0.00  0.00    +0.000 C 
ATOM     12  C   UNL     1      -7.202  13.286  20.257  0.00  0.00    +0.000 A 
ATOM     13  C   UNL     1      -7.916  12.567  21.221  0.00  0.00    +0.000 A 
ATOM     14  C   UNL     1      -7.885  11.166  21.212  0.00  0.00    +0.000 A 
ATOM     15  C   UNL     1      -7.116  10.480  20.266  0.00  0.00    +0.000 A 
ATOM     16  C   UNL     1      -6.419  11.192  19.297  0.00  0.00    +0.000 A 
ATOM     17  C   UNL     1      -6.523  12.582  19.266  0.00  0.00    +0.000 A 
ATOM     18  O   UNL     1      -5.607  10.478  18.447  0.00  0.00    +0.000 OA
ATOM     19  C   UNL     1      -4.623  11.312  17.836  0.00  0.00    +0.000 C 
ATOM     20  C   UNL     1      -3.478  10.513  17.263  0.00  0.00    +0.000 C 
ATOM     21  C   UNL     1      -2.248  11.419  17.174  0.00  0.00    +0.000 C 
ATOM     22  C   UNL     1      -1.361  11.415  18.447  0.00  0.00    +0.000 C 
ATOM     23  C   UNL     1      -1.649  12.414  19.621  0.00  0.00    +0.000 C 
ATOM     24  O   UNL     1      -2.459  11.907  20.707  0.00  0.00    +0.000 OA
ATOM     25  H   UNL     1      -5.369  15.923  24.387  0.00  0.00    +0.000 HD
ENDROOT
BRANCH   1  27
ATOM     26  C   UNL     1      -2.597  15.018  25.679  0.00  0.00    +0.000 C 
ATOM     27  N   UNL     1      -3.480  14.166  24.930  0.00  0.00    +0.000 N 
ATOM     28  H   UNL     1      -3.529  13.259  25.394  0.00  0.00    +0.000 HD
ENDBRANCH   1  27
TORSDOF 1
ENDMDL
MODEL 8
REMARK VINA RESULT:      -6.1      2.398      5.671
REMARK  Name = 
REMARK  2 active torsions:
REMARK  status: ('A' for Active; 'I' for Inactive)
REMARK    1  A    between atoms: C_1  and  N_2
REMARK    2  A    between atoms: N_2  and  C_3
REMARK                            x       y       z     vdW  Elec       q    Type
REMARK                         _______ _______ _______ _____ _____    ______ ____
ROOT
ATOM      1  C   UNL     1       0.011  10.394  19.517  0.00  0.00    +0.000 A 
ATOM      2  N   UNL     1      -1.197  10.108  18.964  0.00  0.00    +0.000 NA
ATOM      3  C   UNL     1      -2.112  11.150  18.858  0.00  0.00    +0.000 A 
ATOM      4  N   UNL     1      -1.942  12.410  19.312  0.00  0.00    +0.000 NA
ATOM      5  C   UNL     1      -0.746  12.627  19.868  0.00  0.00    +0.000 A 
ATOM      6  C   UNL     1       0.261  11.682  19.902  0.00  0.00    +0.000 A 
ATOM      7  N   UNL     1       1.387  12.198  20.524  0.00  0.00    +0.000 N 
ATOM      8  C   UNL     1       1.052  13.450  21.023  0.00  0.00    +0.000 A 
ATOM      9  O   UNL     1       1.771  14.134  21.729  0.00  0.00    +0.000 OA
ATOM     10  N   UNL     1      -0.263  13.720  20.620  0.00  0.00    +0.000 N 
ATOM     11  C   UNL     1      -1.069  14.706  21.288  0.00  0.00    +0.000 C 
ATOM     12  C   UNL     1      -2.228  14.075  22.022  0.00  0.00    +0.000 A 
ATOM     13  C   UNL     1      -2.097  13.333  23.199  0.00  0.00    +0.000 A 
ATOM     14  C   UNL     1      -3.177  12.571  23.667  0.00  0.00    +0.000 A 
ATOM     15  C   UNL     1      -4.375  12.521  22.947  0.00  0.00    +0.000 A 
ATOM     16  C   UNL     1      -4.513  13.273  21.786  0.00  0.00    +0.000 A 
ATOM     17  C   UNL     1      -3.460  14.090  21.373  0.00  0.00    +0.000 A 
ATOM     18  O   UNL     1      -5.674  13.120  21.065  0.00  0.00    +0.000 OA
ATOM     19  C   UNL     1      -5.516  13.551  19.715  0.00  0.00    +0.000 C 
ATOM     20  C   UNL     1      -6.597  13.004  18.813  0.00  0.00    +0.000 C 
ATOM     21  C   UNL     1      -6.071  12.992  17.375  0.00  0.00    +0.000 C 
ATOM     22  C   UNL     1      -5.343  11.683  16.975  0.00  0.00    +0.000 C 
ATOM     23  C   UNL     1      -3.804  11.520  17.227  0.00  0.00    +0.000 C 
ATOM     24  O   UNL     1      -3.425  10.848  18.451  0.00  0.00    +0.000 OA
ATOM     25  H   UNL     1       2.259  11.730  20.702  0.00  0.00    +0.000 HD
ENDROOT
BRANCH   1  27
ATOM     26  C   UNL     1       1.186   8.518  20.828  0.00  0.00    +0.000 C 
ATOM     27  N   UNL     1       1.091   9.538  19.820  0.00  0.00    +0.000 N 
ATOM     28  H   UNL     1       1.922  10.126  19.872  0.00  0.00    +0.000 HD
ENDBRANCH   1  27
TORSDOF 1
ENDMDL
MODEL 9
REMARK VINA RESULT:      -6.1     10.605     12.915
REMARK  Name = 
REMARK  2 active torsions:
REMARK  status: ('A' for Active; 'I' for Inactive)
REMARK    1  A    between atoms: C_1  and  N_2
REMARK    2  A    between atoms: N_2  and  C_3
REMARK                            x       y       z     vdW  Elec       q    Type
REMARK                         _______ _______ _______ _____ _____    ______ ____
ROOT
ATOM      1  C   UNL     1       5.521  14.875  17.923  0.00  0.00    +0.000 A 
ATOM      2  N   UNL     1       6.365  13.922  17.446  0.00  0.00    +0.000 NA
ATOM      3  C   UNL     1       7.589  13.775  18.091  0.00  0.00    +0.000 A 
ATOM      4  N   UNL     1       8.050  14.533  19.109  0.00  0.00    +0.000 NA
ATOM      5  C   UNL     1       7.188  15.469  19.520  0.00  0.00    +0.000 A 
ATOM      6  C   UNL     1       5.909  15.600  19.014  0.00  0.00    +0.000 A 
ATOM      7  N   UNL     1       5.246  16.643  19.642  0.00  0.00    +0.000 N 
ATOM      8  C   UNL     1       6.162  17.283  20.468  0.00  0.00    +0.000 A 
ATOM      9  O   UNL     1       5.947  18.315  21.079  0.00  0.00    +0.000 OA
ATOM     10  N   UNL     1       7.361  16.562  20.396  0.00  0.00    +0.000 N 
ATOM     11  C   UNL     1       8.618  17.150  20.773  0.00  0.00    +0.000 C 
ATOM     12  C   UNL     1       9.533  17.321  19.583  0.00  0.00    +0.000 A 
ATOM     13  C   UNL     1       9.343  18.280  18.583  0.00  0.00    +0.000 A 
ATOM     14  C   UNL     1      10.080  18.201  17.393  0.00  0.00    +0.000 A 
ATOM     15  C   UNL     1      10.979  17.151  17.183  0.00  0.00    +0.000 A 
ATOM     16  C   UNL     1      11.182  16.208  18.184  0.00  0.00    +0.000 A 
ATOM     17  C   UNL     1      10.504  16.342  19.395  0.00  0.00    +0.000 A 
ATOM     18  O   UNL     1      12.007  15.145  17.896  0.00  0.00    +0.000 OA
ATOM     19  C   UNL     1      11.777  14.047  18.777  0.00  0.00    +0.000 C 
ATOM     20  C   UNL     1      12.331  12.754  18.229  0.00  0.00    +0.000 C 
ATOM     21  C   UNL     1      11.574  11.589  18.872  0.00  0.00    +0.000 C 
ATOM     22  C   UNL     1      10.304  11.150  18.096  0.00  0.00    +0.000 C 
ATOM     23  C   UNL     1       8.920  11.826  18.387  0.00  0.00    +0.000 C 
ATOM     24  O   UNL     1       8.548  12.921  17.518  0.00  0.00    +0.000 OA
ATOM     25  H   UNL     1       4.314  16.974  19.465  0.00  0.00    +0.000 HD
ENDROOT
BRANCH   1  27
ATOM     26  C   UNL     1       2.959  15.102  17.995  0.00  0.00    +0.000 C 
ATOM     27  N   UNL     1       4.267  15.297  17.431  0.00  0.00    +0.000 N 
ATOM     28  H   UNL     1       4.239  15.037  16.445  0.00  0.00    +0.000 HD
ENDBRANCH   1  27
TORSDOF 1
ENDMDL
