MODEL 1
REMARK VINA RESULT:      -6.6      0.000      0.000
REMARK  Name = 
REMARK  5 active torsions:
REMARK  status: ('A' for Active; 'I' for Inactive)
REMARK    1  A    between atoms: O_1  and  C_2
REMARK    2  A    between atoms: C_7  and  N_8
REMARK    3  A    between atoms: C_9  and  C_10
REMARK    4  A    between atoms: C_17  and  C_18
REMARK    5  A    between atoms: C_25  and  C_26
REMARK                            x       y       z     vdW  Elec       q    Type
REMARK                         _______ _______ _______ _____ _____    ______ ____
ROOT
ATOM      1  N   UNL     1       0.229  13.036  19.459  0.00  0.00    +0.000 N 
ATOM      2  C   UNL     1      -0.735  12.019  19.373  0.00  0.00    +0.000 A 
ATOM      3  C   UNL     1      -0.242  10.662  19.341  0.00  0.00    +0.000 A 
ATOM      4  C   UNL     1       1.097  10.298  19.237  0.00  0.00    +0.000 A 
ATOM      5  C   UNL     1       1.972  11.363  19.185  0.00  0.00    +0.000 A 
ATOM      6  C   UNL     1       1.578  12.719  19.307  0.00  0.00    +0.000 A 
ENDROOT
BRANCH   1  12
ATOM      7  C   UNL     1      -0.316  14.807  21.100  0.00  0.00    +0.000 A 
ATOM      8  C   UNL     1      -0.906  16.047  21.372  0.00  0.00    +0.000 A 
ATOM      9  C   UNL     1      -1.186  16.923  20.318  0.00  0.00    +0.000 A 
ATOM     10  C   UNL     1      -0.842  16.580  19.010  0.00  0.00    +0.000 A 
ATOM     11  C   UNL     1      -0.358  15.304  18.727  0.00  0.00    +0.000 A 
ATOM     12  C   UNL     1      -0.143  14.400  19.762  0.00  0.00    +0.000 A 
BRANCH   7  13
ATOM     13  O   UNL     1      -0.065  13.928  22.119  0.00  0.00    +0.000 OA
ATOM     14  H   UNL     1      -0.521  13.084  21.931  0.00  0.00    +0.000 HD
ENDBRANCH   7  13
ENDBRANCH   1  12
BRANCH   2  15
ATOM     15  C   UNL     1      -2.278  12.201  19.308  0.00  0.00    +0.000 A 
ATOM     16  C   UNL     1      -3.005  11.710  18.199  0.00  0.00    +0.000 A 
ATOM     17  C   UNL     1      -4.414  11.635  18.152  0.00  0.00    +0.000 A 
ATOM     18  C   UNL     1      -5.176  12.032  19.234  0.00  0.00    +0.000 A 
ATOM     19  C   UNL     1      -4.524  12.615  20.296  0.00  0.00    +0.000 A 
ATOM     20  C   UNL     1      -3.127  12.763  20.276  0.00  0.00    +0.000 A 
ENDBRANCH   2  15
BRANCH   4  21
ATOM     21  C   UNL     1       1.574   8.886  19.193  0.00  0.00    +0.000 A 
ATOM     22  C   UNL     1       1.574   8.049  20.323  0.00  0.00    +0.000 A 
ATOM     23  C   UNL     1       2.060   6.730  20.270  0.00  0.00    +0.000 A 
ATOM     24  C   UNL     1       2.546   6.207  19.078  0.00  0.00    +0.000 A 
ATOM     25  C   UNL     1       2.532   6.994  17.937  0.00  0.00    +0.000 A 
ATOM     26  C   UNL     1       2.055   8.314  17.991  0.00  0.00    +0.000 A 
ENDBRANCH   4  21
BRANCH   6  27
ATOM     27  C   UNL     1       2.684  13.742  19.281  0.00  0.00    +0.000 A 
ATOM     28  C   UNL     1       3.150  14.228  18.034  0.00  0.00    +0.000 A 
ATOM     29  C   UNL     1       4.156  15.191  17.925  0.00  0.00    +0.000 A 
ATOM     30  C   UNL     1       4.718  15.727  19.075  0.00  0.00    +0.000 A 
ATOM     31  C   UNL     1       4.321  15.239  20.314  0.00  0.00    +0.000 A 
ATOM     32  C   UNL     1       3.359  14.222  20.413  0.00  0.00    +0.000 A 
ENDBRANCH   6  27
TORSDOF 5
ENDMDL
MODEL 2
REMARK VINA RESULT:      -6.6      0.162      1.225
REMARK  Name = 
REMARK  5 active torsions:
REMARK  status: ('A' for Active; 'I' for Inactive)
REMARK    1  A    between atoms: O_1  and  C_2
REMARK    2  A    between atoms: C_7  and  N_8
REMARK    3  A    between atoms: C_9  and  C_10
REMARK    4  A    between atoms: C_17  and  C_18
REMARK    5  A    between atoms: C_25  and  C_26
REMARK                            x       y       z     vdW  Elec       q    Type
REMARK                         _______ _______ _______ _____ _____    ______ ____
ROOT
ATOM      1  N   UNL     1       0.283  13.111  19.345  0.00  0.00    +0.000 N 
ATOM      2  C   UNL     1      -0.683  12.092  19.319  0.00  0.00    +0.000 A 
ATOM      3  C   UNL     1      -0.189  10.734  19.289  0.00  0.00    +0.000 A 
ATOM      4  C   UNL     1       1.144  10.370  19.133  0.00  0.00    +0.000 A 
ATOM      5  C   UNL     1       2.014  11.434  19.023  0.00  0.00    +0.000 A 
ATOM      6  C   UNL     1       1.625  12.792  19.140  0.00  0.00    +0.000 A 
ENDROOT
BRANCH   1  12
ATOM      7  C   UNL     1      -0.190  14.910  20.977  0.00  0.00    +0.000 A 
ATOM      8  C   UNL     1      -0.769  16.154  21.254  0.00  0.00    +0.000 A 
ATOM      9  C   UNL     1      -1.099  17.011  20.199  0.00  0.00    +0.000 A 
ATOM     10  C   UNL     1      -0.813  16.646  18.883  0.00  0.00    +0.000 A 
ATOM     11  C   UNL     1      -0.341  15.364  18.601  0.00  0.00    +0.000 A 
ATOM     12  C   UNL     1      -0.077  14.479  19.641  0.00  0.00    +0.000 A 
BRANCH   7  13
ATOM     13  O   UNL     1       0.108  14.050  22.000  0.00  0.00    +0.000 OA
ATOM     14  H   UNL     1      -0.088  14.487  22.851  0.00  0.00    +0.000 HD
ENDBRANCH   7  13
ENDBRANCH   1  12
BRANCH   2  15
ATOM     15  C   UNL     1      -2.227  12.272  19.319  0.00  0.00    +0.000 A 
ATOM     16  C   UNL     1      -3.003  11.748  18.259  0.00  0.00    +0.000 A 
ATOM     17  C   UNL     1      -4.412  11.672  18.279  0.00  0.00    +0.000 A 
ATOM     18  C   UNL     1      -5.125  12.100  19.383  0.00  0.00    +0.000 A 
ATOM     19  C   UNL     1      -4.426  12.714  20.396  0.00  0.00    +0.000 A 
ATOM     20  C   UNL     1      -3.032  12.862  20.308  0.00  0.00    +0.000 A 
ENDBRANCH   2  15
BRANCH   4  21
ATOM     21  C   UNL     1       1.621   8.958  19.092  0.00  0.00    +0.000 A 
ATOM     22  C   UNL     1       2.135   8.365  17.925  0.00  0.00    +0.000 A 
ATOM     23  C   UNL     1       2.548   7.020  17.895  0.00  0.00    +0.000 A 
ATOM     24  C   UNL     1       2.472   6.235  19.040  0.00  0.00    +0.000 A 
ATOM     25  C   UNL     1       2.000   6.798  20.217  0.00  0.00    +0.000 A 
ATOM     26  C   UNL     1       1.579   8.137  20.244  0.00  0.00    +0.000 A 
ENDBRANCH   4  21
BRANCH   6  27
ATOM     27  C   UNL     1       2.727  13.815  19.047  0.00  0.00    +0.000 A 
ATOM     28  C   UNL     1       3.389  14.230  20.230  0.00  0.00    +0.000 A 
ATOM     29  C   UNL     1       4.433  15.158  20.227  0.00  0.00    +0.000 A 
ATOM     30  C   UNL     1       4.874  15.688  19.023  0.00  0.00    +0.000 A 
ATOM     31  C   UNL     1       4.216  15.343  17.849  0.00  0.00    +0.000 A 
ATOM     32  C   UNL     1       3.123  14.463  17.868  0.00  0.00    +0.000 A 
ENDBRANCH   6  27
TORSDOF 5
ENDMDL
MODEL 3
REMARK VINA RESULT:      -6.6      2.121      3.174
REMARK  Name = 
REMARK  5 active torsions:
REMARK  status: ('A' for Active; 'I' for Inactive)
REMARK    1  A    between atoms: O_1  and  C_2
REMARK    2  A    between atoms: C_7  and  N_8
REMARK    3  A    between atoms: C_9  and  C_10
REMARK    4  A    between atoms: C_17  and  C_18
REMARK    5  A    between atoms: C_25  and  C_26
REMARK                            x       y       z     vdW  Elec       q    Type
REMARK                         _______ _______ _______ _____ _____    ______ ____
ROOT
ATOM      1  N   UNL     1      -1.355  14.138  21.128  0.00  0.00    +0.000 N 
ATOM      2  C   UNL     1      -1.922  12.908  21.499  0.00  0.00    +0.000 A 
ATOM      3  C   UNL     1      -1.218  11.718  21.080  0.00  0.00    +0.000 A 
ATOM      4  C   UNL     1      -0.123  11.695  20.222  0.00  0.00    +0.000 A 
ATOM      5  C   UNL     1       0.285  12.940  19.790  0.00  0.00    +0.000 A 
ATOM      6  C   UNL     1      -0.289  14.159  20.229  0.00  0.00    +0.000 A 
ENDROOT
BRANCH   1  12
ATOM      7  C   UNL     1      -1.246  15.857  22.904  0.00  0.00    +0.000 A 
ATOM      8  C   UNL     1      -1.855  16.923  23.578  0.00  0.00    +0.000 A 
ATOM      9  C   UNL     1      -2.932  17.589  22.984  0.00  0.00    +0.000 A 
ATOM     10  C   UNL     1      -3.368  17.222  21.711  0.00  0.00    +0.000 A 
ATOM     11  C   UNL     1      -2.837  16.093  21.089  0.00  0.00    +0.000 A 
ATOM     12  C   UNL     1      -1.812  15.381  21.705  0.00  0.00    +0.000 A 
BRANCH   7  13
ATOM     13  O   UNL     1      -0.212  15.177  23.489  0.00  0.00    +0.000 OA
ATOM     14  H   UNL     1       0.584  15.743  23.485  0.00  0.00    +0.000 HD
ENDBRANCH   7  13
ENDBRANCH   1  12
BRANCH   2  15
ATOM     15  C   UNL     1      -3.229  12.693  22.314  0.00  0.00    +0.000 A 
ATOM     16  C   UNL     1      -3.165  12.436  23.703  0.00  0.00    +0.000 A 
ATOM     17  C   UNL     1      -4.289  12.443  24.557  0.00  0.00    +0.000 A 
ATOM     18  C   UNL     1      -5.546  12.734  24.062  0.00  0.00    +0.000 A 
ATOM     19  C   UNL     1      -5.679  12.887  22.702  0.00  0.00    +0.000 A 
ATOM     20  C   UNL     1      -4.556  12.781  21.864  0.00  0.00    +0.000 A 
ENDBRANCH   2  15
BRANCH   4  21
ATOM     21  C   UNL     1       0.574  10.448  19.797  0.00  0.00    +0.000 A 
ATOM     22  C   UNL     1       0.860   9.397  20.686  0.00  0.00    +0.000 A 
ATOM     23  C   UNL     1       1.549   8.242  20.275  0.00  0.00    +0.000 A 
ATOM     24  C   UNL     1       1.959   8.100  18.955  0.00  0.00    +0.000 A 
ATOM     25  C   UNL     1       1.666   9.104  18.043  0.00  0.00    +0.000 A 
ATOM     26  C   UNL     1       0.986  10.261  18.455  0.00  0.00    +0.000 A 
ENDBRANCH   4  21
BRANCH   6  27
ATOM     27  C   UNL     1       0.328  15.423  19.687  0.00  0.00    +0.000 A 
ATOM     28  C   UNL     1      -0.257  16.051  18.559  0.00  0.00    +0.000 A 
ATOM     29  C   UNL     1       0.241  17.235  18.010  0.00  0.00    +0.000 A 
ATOM     30  C   UNL     1       1.338  17.852  18.593  0.00  0.00    +0.000 A 
ATOM     31  C   UNL     1       1.967  17.239  19.670  0.00  0.00    +0.000 A 
ATOM     32  C   UNL     1       1.503  16.014  20.173  0.00  0.00    +0.000 A 
ENDBRANCH   6  27
TORSDOF 5
ENDMDL
MODEL 4
REMARK VINA RESULT:      -6.5      2.307      3.524
REMARK  Name = 
REMARK  5 active torsions:
REMARK  status: ('A' for Active; 'I' for Inactive)
REMARK    1  A    between atoms: O_1  and  C_2
REMARK    2  A    between atoms: C_7  and  N_8
REMARK    3  A    between atoms: C_9  and  C_10
REMARK    4  A    between atoms: C_17  and  C_18
REMARK    5  A    between atoms: C_25  and  C_26
REMARK                            x       y       z     vdW  Elec       q    Type
REMARK                         _______ _______ _______ _____ _____    ______ ____
ROOT
ATOM      1  N   UNL     1      -1.531  14.211  21.160  0.00  0.00    +0.000 N 
ATOM      2  C   UNL     1      -2.065  12.971  21.547  0.00  0.00    +0.000 A 
ATOM      3  C   UNL     1      -1.342  11.795  21.120  0.00  0.00    +0.000 A 
ATOM      4  C   UNL     1      -0.262  11.792  20.244  0.00  0.00    +0.000 A 
ATOM      5  C   UNL     1       0.111  13.043  19.799  0.00  0.00    +0.000 A 
ATOM      6  C   UNL     1      -0.482  14.252  20.243  0.00  0.00    +0.000 A 
ENDROOT
BRANCH   1  12
ATOM      7  C   UNL     1      -3.076  16.145  21.147  0.00  0.00    +0.000 A 
ATOM      8  C   UNL     1      -3.367  17.448  21.568  0.00  0.00    +0.000 A 
ATOM      9  C   UNL     1      -2.685  17.986  22.664  0.00  0.00    +0.000 A 
ATOM     10  C   UNL     1      -1.753  17.215  23.359  0.00  0.00    +0.000 A 
ATOM     11  C   UNL     1      -1.383  15.962  22.873  0.00  0.00    +0.000 A 
ATOM     12  C   UNL     1      -2.006  15.446  21.741  0.00  0.00    +0.000 A 
BRANCH   7  13
ATOM     13  O   UNL     1      -3.714  15.617  20.056  0.00  0.00    +0.000 OA
ATOM     14  H   UNL     1      -4.661  15.501  20.267  0.00  0.00    +0.000 HD
ENDBRANCH   7  13
ENDBRANCH   1  12
BRANCH   2  15
ATOM     15  C   UNL     1      -3.353  12.731  22.385  0.00  0.00    +0.000 A 
ATOM     16  C   UNL     1      -3.257  12.437  23.765  0.00  0.00    +0.000 A 
ATOM     17  C   UNL     1      -4.361  12.419  24.644  0.00  0.00    +0.000 A 
ATOM     18  C   UNL     1      -5.630  12.720  24.186  0.00  0.00    +0.000 A 
ATOM     19  C   UNL     1      -5.793  12.909  22.834  0.00  0.00    +0.000 A 
ATOM     20  C   UNL     1      -4.690  12.828  21.967  0.00  0.00    +0.000 A 
ENDBRANCH   2  15
BRANCH   4  21
ATOM     21  C   UNL     1       0.455  10.559  19.811  0.00  0.00    +0.000 A 
ATOM     22  C   UNL     1       0.763   9.511  20.696  0.00  0.00    +0.000 A 
ATOM     23  C   UNL     1       1.471   8.369  20.278  0.00  0.00    +0.000 A 
ATOM     24  C   UNL     1       1.877   8.238  18.956  0.00  0.00    +0.000 A 
ATOM     25  C   UNL     1       1.562   9.239  18.048  0.00  0.00    +0.000 A 
ATOM     26  C   UNL     1       0.863  10.383  18.467  0.00  0.00    +0.000 A 
ENDBRANCH   4  21
BRANCH   6  27
ATOM     27  C   UNL     1       0.097  15.526  19.685  0.00  0.00    +0.000 A 
ATOM     28  C   UNL     1       1.224  16.110  20.316  0.00  0.00    +0.000 A 
ATOM     29  C   UNL     1       1.832  17.278  19.849  0.00  0.00    +0.000 A 
ATOM     30  C   UNL     1       1.343  17.894  18.706  0.00  0.00    +0.000 A 
ATOM     31  C   UNL     1       0.210  17.378  18.090  0.00  0.00    +0.000 A 
ATOM     32  C   UNL     1      -0.436  16.244  18.605  0.00  0.00    +0.000 A 
ENDBRANCH   6  27
TORSDOF 5
ENDMDL
MODEL 5
REMARK VINA RESULT:      -6.5      2.338      3.579
REMARK  Name = 
REMARK  5 active torsions:
REMARK  status: ('A' for Active; 'I' for Inactive)
REMARK    1  A    between atoms: O_1  and  C_2
REMARK    2  A    between atoms: C_7  and  N_8
REMARK    3  A    between atoms: C_9  and  C_10
REMARK    4  A    between atoms: C_17  and  C_18
REMARK    5  A    between atoms: C_25  and  C_26
REMARK                            x       y       z     vdW  Elec       q    Type
REMARK                         _______ _______ _______ _____ _____    ______ ____
ROOT
ATOM      1  N   UNL     1      -1.508  14.253  21.211  0.00  0.00    +0.000 N 
ATOM      2  C   UNL     1      -2.044  13.006  21.574  0.00  0.00    +0.000 A 
ATOM      3  C   UNL     1      -1.310  11.838  21.146  0.00  0.00    +0.000 A 
ATOM      4  C   UNL     1      -0.216  11.849  20.287  0.00  0.00    +0.000 A 
ATOM      5  C   UNL     1       0.160  13.106  19.863  0.00  0.00    +0.000 A 
ATOM      6  C   UNL     1      -0.443  14.307  20.311  0.00  0.00    +0.000 A 
ENDROOT
BRANCH   1  12
ATOM      7  C   UNL     1      -3.035  16.200  21.176  0.00  0.00    +0.000 A 
ATOM      8  C   UNL     1      -3.333  17.496  21.613  0.00  0.00    +0.000 A 
ATOM      9  C   UNL     1      -2.692  18.006  22.747  0.00  0.00    +0.000 A 
ATOM     10  C   UNL     1      -1.795  17.212  23.462  0.00  0.00    +0.000 A 
ATOM     11  C   UNL     1      -1.416  15.966  22.965  0.00  0.00    +0.000 A 
ATOM     12  C   UNL     1      -1.996  15.480  21.798  0.00  0.00    +0.000 A 
BRANCH   7  13
ATOM     13  O   UNL     1      -3.632  15.701  20.049  0.00  0.00    +0.000 OA
ATOM     14  H   UNL     1      -4.057  16.435  19.563  0.00  0.00    +0.000 HD
ENDBRANCH   7  13
ENDBRANCH   1  12
BRANCH   2  15
ATOM     15  C   UNL     1      -3.344  12.753  22.388  0.00  0.00    +0.000 A 
ATOM     16  C   UNL     1      -3.271  12.454  23.768  0.00  0.00    +0.000 A 
ATOM     17  C   UNL     1      -4.390  12.423  24.627  0.00  0.00    +0.000 A 
ATOM     18  C   UNL     1      -5.653  12.716  24.148  0.00  0.00    +0.000 A 
ATOM     19  C   UNL     1      -5.794  12.910  22.794  0.00  0.00    +0.000 A 
ATOM     20  C   UNL     1      -4.675  12.841  21.947  0.00  0.00    +0.000 A 
ENDBRANCH   2  15
BRANCH   4  21
ATOM     21  C   UNL     1       0.512  10.622  19.852  0.00  0.00    +0.000 A 
ATOM     22  C   UNL     1       0.966  10.437  18.535  0.00  0.00    +0.000 A 
ATOM     23  C   UNL     1       1.620   9.258  18.133  0.00  0.00    +0.000 A 
ATOM     24  C   UNL     1       1.853   8.237  19.046  0.00  0.00    +0.000 A 
ATOM     25  C   UNL     1       1.447   8.400  20.363  0.00  0.00    +0.000 A 
ATOM     26  C   UNL     1       0.785   9.573  20.762  0.00  0.00    +0.000 A 
ENDBRANCH   4  21
BRANCH   6  27
ATOM     27  C   UNL     1       0.141  15.590  19.778  0.00  0.00    +0.000 A 
ATOM     28  C   UNL     1      -0.387  16.150  18.588  0.00  0.00    +0.000 A 
ATOM     29  C   UNL     1       0.084  17.346  18.041  0.00  0.00    +0.000 A 
ATOM     30  C   UNL     1       1.094  18.044  18.688  0.00  0.00    +0.000 A 
ATOM     31  C   UNL     1       1.669  17.500  19.830  0.00  0.00    +0.000 A 
ATOM     32  C   UNL     1       1.237  16.264  20.335  0.00  0.00    +0.000 A 
ENDBRANCH   6  27
TORSDOF 5
ENDMDL
MODEL 6
REMARK VINA RESULT:      -6.5      0.730      1.692
REMARK  Name = 
REMARK  5 active torsions:
REMARK  status: ('A' for Active; 'I' for Inactive)
REMARK    1  A    between atoms: O_1  and  C_2
REMARK    2  A    between atoms: C_7  and  N_8
REMARK    3  A    between atoms: C_9  and  C_10
REMARK    4  A    between atoms: C_17  and  C_18
REMARK    5  A    between atoms: C_25  and  C_26
REMARK                            x       y       z     vdW  Elec       q    Type
REMARK                         _______ _______ _______ _____ _____    ______ ____
ROOT
ATOM      1  N   UNL     1       0.226  13.195  19.794  0.00  0.00    +0.000 N 
ATOM      2  C   UNL     1      -0.685  12.143  19.978  0.00  0.00    +0.000 A 
ATOM      3  C   UNL     1      -0.168  10.803  19.815  0.00  0.00    +0.000 A 
ATOM      4  C   UNL     1       1.104  10.487  19.349  0.00  0.00    +0.000 A 
ATOM      5  C   UNL     1       1.889  11.582  19.056  0.00  0.00    +0.000 A 
ATOM      6  C   UNL     1       1.493  12.924  19.279  0.00  0.00    +0.000 A 
ENDROOT
BRANCH   1  12
ATOM      7  C   UNL     1       0.145  14.984  21.502  0.00  0.00    +0.000 A 
ATOM      8  C   UNL     1      -0.391  16.203  21.934  0.00  0.00    +0.000 A 
ATOM      9  C   UNL     1      -1.042  17.035  21.017  0.00  0.00    +0.000 A 
ATOM     10  C   UNL     1      -1.119  16.671  19.672  0.00  0.00    +0.000 A 
ATOM     11  C   UNL     1      -0.685  15.411  19.264  0.00  0.00    +0.000 A 
ATOM     12  C   UNL     1      -0.100  14.548  20.185  0.00  0.00    +0.000 A 
BRANCH   7  13
ATOM     13  O   UNL     1       0.757  14.148  22.396  0.00  0.00    +0.000 OA
ATOM     14  H   UNL     1       0.958  14.646  23.212  0.00  0.00    +0.000 HD
ENDBRANCH   7  13
ENDBRANCH   1  12
BRANCH   2  15
ATOM     15  C   UNL     1      -2.192  12.268  20.340  0.00  0.00    +0.000 A 
ATOM     16  C   UNL     1      -2.583  12.543  21.671  0.00  0.00    +0.000 A 
ATOM     17  C   UNL     1      -3.899  12.886  22.050  0.00  0.00    +0.000 A 
ATOM     18  C   UNL     1      -4.898  12.994  21.102  0.00  0.00    +0.000 A 
ATOM     19  C   UNL     1      -4.595  12.634  19.809  0.00  0.00    +0.000 A 
ATOM     20  C   UNL     1      -3.299  12.205  19.477  0.00  0.00    +0.000 A 
ENDBRANCH   2  15
BRANCH   4  21
ATOM     21  C   UNL     1       1.604   9.093  19.178  0.00  0.00    +0.000 A 
ATOM     22  C   UNL     1       2.108   8.612  17.957  0.00  0.00    +0.000 A 
ATOM     23  C   UNL     1       2.544   7.283  17.804  0.00  0.00    +0.000 A 
ATOM     24  C   UNL     1       2.501   6.401  18.877  0.00  0.00    +0.000 A 
ATOM     25  C   UNL     1       2.039   6.851  20.106  0.00  0.00    +0.000 A 
ATOM     26  C   UNL     1       1.595   8.176  20.256  0.00  0.00    +0.000 A 
ENDBRANCH   4  21
BRANCH   6  27
ATOM     27  C   UNL     1       2.510  13.987  18.947  0.00  0.00    +0.000 A 
ATOM     28  C   UNL     1       3.456  14.371  19.930  0.00  0.00    +0.000 A 
ATOM     29  C   UNL     1       4.443  15.331  19.695  0.00  0.00    +0.000 A 
ATOM     30  C   UNL     1       4.533  15.928  18.446  0.00  0.00    +0.000 A 
ATOM     31  C   UNL     1       3.592  15.613  17.475  0.00  0.00    +0.000 A 
ATOM     32  C   UNL     1       2.562  14.698  17.740  0.00  0.00    +0.000 A 
ENDBRANCH   6  27
TORSDOF 5
ENDMDL
MODEL 7
REMARK VINA RESULT:      -6.5      1.494      2.291
REMARK  Name = 
REMARK  5 active torsions:
REMARK  status: ('A' for Active; 'I' for Inactive)
REMARK    1  A    between atoms: O_1  and  C_2
REMARK    2  A    between atoms: C_7  and  N_8
REMARK    3  A    between atoms: C_9  and  C_10
REMARK    4  A    between atoms: C_17  and  C_18
REMARK    5  A    between atoms: C_25  and  C_26
REMARK                            x       y       z     vdW  Elec       q    Type
REMARK                         _______ _______ _______ _____ _____    ______ ____
ROOT
ATOM      1  N   UNL     1       0.256  13.397  20.579  0.00  0.00    +0.000 N 
ATOM      2  C   UNL     1      -0.600  12.318  20.857  0.00  0.00    +0.000 A 
ATOM      3  C   UNL     1      -0.124  11.004  20.492  0.00  0.00    +0.000 A 
ATOM      4  C   UNL     1       1.031  10.745  19.762  0.00  0.00    +0.000 A 
ATOM      5  C   UNL     1       1.742  11.871  19.406  0.00  0.00    +0.000 A 
ATOM      6  C   UNL     1       1.397  13.186  19.806  0.00  0.00    +0.000 A 
ENDROOT
BRANCH   1  12
ATOM      7  C   UNL     1      -0.738  15.656  20.405  0.00  0.00    +0.000 A 
ATOM      8  C   UNL     1      -0.763  16.990  20.831  0.00  0.00    +0.000 A 
ATOM      9  C   UNL     1      -0.160  17.337  22.044  0.00  0.00    +0.000 A 
ATOM     10  C   UNL     1       0.424  16.354  22.844  0.00  0.00    +0.000 A 
ATOM     11  C   UNL     1       0.547  15.049  22.369  0.00  0.00    +0.000 A 
ATOM     12  C   UNL     1       0.012  14.710  21.130  0.00  0.00    +0.000 A 
BRANCH   7  13
ATOM     13  O   UNL     1      -1.297  15.309  19.204  0.00  0.00    +0.000 OA
ATOM     14  H   UNL     1      -0.584  15.107  18.567  0.00  0.00    +0.000 HD
ENDBRANCH   7  13
ENDBRANCH   1  12
BRANCH   2  15
ATOM     15  C   UNL     1      -2.007  12.392  21.516  0.00  0.00    +0.000 A 
ATOM     16  C   UNL     1      -2.160  12.119  22.895  0.00  0.00    +0.000 A 
ATOM     17  C   UNL     1      -3.346  12.369  23.619  0.00  0.00    +0.000 A 
ATOM     18  C   UNL     1      -4.444  12.931  22.998  0.00  0.00    +0.000 A 
ATOM     19  C   UNL     1      -4.383  13.118  21.637  0.00  0.00    +0.000 A 
ATOM     20  C   UNL     1      -3.223  12.772  20.925  0.00  0.00    +0.000 A 
ENDBRANCH   2  15
BRANCH   4  21
ATOM     21  C   UNL     1       1.489   9.376  19.389  0.00  0.00    +0.000 A 
ATOM     22  C   UNL     1       1.583   8.327  20.321  0.00  0.00    +0.000 A 
ATOM     23  C   UNL     1       2.050   7.050  19.958  0.00  0.00    +0.000 A 
ATOM     24  C   UNL     1       2.422   6.784  18.646  0.00  0.00    +0.000 A 
ATOM     25  C   UNL     1       2.311   7.787  17.693  0.00  0.00    +0.000 A 
ATOM     26  C   UNL     1       1.854   9.064  18.057  0.00  0.00    +0.000 A 
ENDBRANCH   4  21
BRANCH   6  27
ATOM     27  C   UNL     1       2.328  14.287  19.365  0.00  0.00    +0.000 A 
ATOM     28  C   UNL     1       3.448  14.611  20.170  0.00  0.00    +0.000 A 
ATOM     29  C   UNL     1       4.369  15.602  19.822  0.00  0.00    +0.000 A 
ATOM     30  C   UNL     1       4.211  16.293  18.629  0.00  0.00    +0.000 A 
ATOM     31  C   UNL     1       3.098  16.037  17.839  0.00  0.00    +0.000 A 
ATOM     32  C   UNL     1       2.141  15.088  18.230  0.00  0.00    +0.000 A 
ENDBRANCH   6  27
TORSDOF 5
ENDMDL
MODEL 8
REMARK VINA RESULT:      -6.5      0.765      1.228
REMARK  Name = 
REMARK  5 active torsions:
REMARK  status: ('A' for Active; 'I' for Inactive)
REMARK    1  A    between atoms: O_1  and  C_2
REMARK    2  A    between atoms: C_7  and  N_8
REMARK    3  A    between atoms: C_9  and  C_10
REMARK    4  A    between atoms: C_17  and  C_18
REMARK    5  A    between atoms: C_25  and  C_26
REMARK                            x       y       z     vdW  Elec       q    Type
REMARK                         _______ _______ _______ _____ _____    ______ ____
ROOT
ATOM      1  N   UNL     1       0.152  13.261  19.886  0.00  0.00    +0.000 N 
ATOM      2  C   UNL     1      -0.759  12.204  20.035  0.00  0.00    +0.000 A 
ATOM      3  C   UNL     1      -0.235  10.869  19.857  0.00  0.00    +0.000 A 
ATOM      4  C   UNL     1       1.045  10.564  19.408  0.00  0.00    +0.000 A 
ATOM      5  C   UNL     1       1.833  11.666  19.149  0.00  0.00    +0.000 A 
ATOM      6  C   UNL     1       1.429  13.003  19.389  0.00  0.00    +0.000 A 
ENDROOT
BRANCH   1  12
ATOM      7  C   UNL     1       0.039  15.020  21.624  0.00  0.00    +0.000 A 
ATOM      8  C   UNL     1      -0.507  16.230  22.069  0.00  0.00    +0.000 A 
ATOM      9  C   UNL     1      -1.147  17.075  21.157  0.00  0.00    +0.000 A 
ATOM     10  C   UNL     1      -1.202  16.735  19.805  0.00  0.00    +0.000 A 
ATOM     11  C   UNL     1      -0.758  15.483  19.381  0.00  0.00    +0.000 A 
ATOM     12  C   UNL     1      -0.184  14.606  20.296  0.00  0.00    +0.000 A 
BRANCH   7  13
ATOM     13  O   UNL     1       0.640  14.170  22.512  0.00  0.00    +0.000 OA
ATOM     14  H   UNL     1       1.489  13.865  22.137  0.00  0.00    +0.000 HD
ENDBRANCH   7  13
ENDBRANCH   1  12
BRANCH   2  15
ATOM     15  C   UNL     1      -2.273  12.319  20.372  0.00  0.00    +0.000 A 
ATOM     16  C   UNL     1      -2.687  12.592  21.696  0.00  0.00    +0.000 A 
ATOM     17  C   UNL     1      -4.012  12.926  22.053  0.00  0.00    +0.000 A 
ATOM     18  C   UNL     1      -4.996  13.027  21.089  0.00  0.00    +0.000 A 
ATOM     19  C   UNL     1      -4.669  12.668  19.802  0.00  0.00    +0.000 A 
ATOM     20  C   UNL     1      -3.365  12.248  19.491  0.00  0.00    +0.000 A 
ENDBRANCH   2  15
BRANCH   4  21
ATOM     21  C   UNL     1       1.552   9.175  19.221  0.00  0.00    +0.000 A 
ATOM     22  C   UNL     1       1.536   8.216  20.250  0.00  0.00    +0.000 A 
ATOM     23  C   UNL     1       2.051   6.920  20.065  0.00  0.00    +0.000 A 
ATOM     24  C   UNL     1       2.582   6.542  18.838  0.00  0.00    +0.000 A 
ATOM     25  C   UNL     1       2.583   7.452  17.791  0.00  0.00    +0.000 A 
ATOM     26  C   UNL     1       2.079   8.749  17.978  0.00  0.00    +0.000 A 
ENDBRANCH   4  21
BRANCH   6  27
ATOM     27  C   UNL     1       2.449  14.074  19.095  0.00  0.00    +0.000 A 
ATOM     28  C   UNL     1       2.537  14.606  17.785  0.00  0.00    +0.000 A 
ATOM     29  C   UNL     1       3.440  15.614  17.437  0.00  0.00    +0.000 A 
ATOM     30  C   UNL     1       4.276  16.148  18.406  0.00  0.00    +0.000 A 
ATOM     31  C   UNL     1       4.251  15.617  19.690  0.00  0.00    +0.000 A 
ATOM     32  C   UNL     1       3.390  14.558  20.014  0.00  0.00    +0.000 A 
ENDBRANCH   6  27
TORSDOF 5
ENDMDL
MODEL 9
REMARK VINA RESULT:      -6.5      1.103      5.756
REMARK  Name = 
REMARK  5 active torsions:
REMARK  status: ('A' for Active; 'I' for Inactive)
REMARK    1  A    between atoms: O_1  and  C_2
REMARK    2  A    between atoms: C_7  and  N_8
REMARK    3  A    between atoms: C_9  and  C_10
REMARK    4  A    between atoms: C_17  and  C_18
REMARK    5  A    between atoms: C_25  and  C_26
REMARK                            x       y       z     vdW  Elec       q    Type
REMARK                         _______ _______ _______ _____ _____    ______ ____
ROOT
ATOM      1  N   UNL     1       0.164  12.975  19.398  0.00  0.00    +0.000 N 
ATOM      2  C   UNL     1      -0.198  11.626  19.254  0.00  0.00    +0.000 A 
ATOM      3  C   UNL     1      -1.611  11.343  19.151  0.00  0.00    +0.000 A 
ATOM      4  C   UNL     1      -2.630  12.273  19.332  0.00  0.00    +0.000 A 
ATOM      5  C   UNL     1      -2.189  13.550  19.611  0.00  0.00    +0.000 A 
ATOM      6  C   UNL     1      -0.825  13.931  19.634  0.00  0.00    +0.000 A 
ENDROOT
BRANCH   1  12
ATOM      7  C   UNL     1       2.354  13.580  20.378  0.00  0.00    +0.000 A 
ATOM      8  C   UNL     1       3.591  14.223  20.242  0.00  0.00    +0.000 A 
ATOM      9  C   UNL     1       4.057  14.557  18.966  0.00  0.00    +0.000 A 
ATOM     10  C   UNL     1       3.315  14.214  17.836  0.00  0.00    +0.000 A 
ATOM     11  C   UNL     1       2.037  13.676  17.976  0.00  0.00    +0.000 A 
ATOM     12  C   UNL     1       1.535  13.405  19.245  0.00  0.00    +0.000 A 
BRANCH   7  13
ATOM     13  O   UNL     1       1.872  13.276  21.623  0.00  0.00    +0.000 OA
ATOM     14  H   UNL     1       2.593  13.372  22.275  0.00  0.00    +0.000 HD
ENDBRANCH   7  13
ENDBRANCH   1  12
BRANCH   2  15
ATOM     15  C   UNL     1       0.763  10.405  19.195  0.00  0.00    +0.000 A 
ATOM     16  C   UNL     1       0.889   9.546  20.311  0.00  0.00    +0.000 A 
ATOM     17  C   UNL     1       1.562   8.306  20.277  0.00  0.00    +0.000 A 
ATOM     18  C   UNL     1       2.130   7.845  19.105  0.00  0.00    +0.000 A 
ATOM     19  C   UNL     1       2.126   8.689  18.018  0.00  0.00    +0.000 A 
ATOM     20  C   UNL     1       1.531   9.958  18.107  0.00  0.00    +0.000 A 
ENDBRANCH   2  15
BRANCH   4  21
ATOM     21  C   UNL     1      -4.081  11.947  19.233  0.00  0.00    +0.000 A 
ATOM     22  C   UNL     1      -4.615  11.175  18.186  0.00  0.00    +0.000 A 
ATOM     23  C   UNL     1      -5.993  10.906  18.089  0.00  0.00    +0.000 A 
ATOM     24  C   UNL     1      -6.873  11.390  19.049  0.00  0.00    +0.000 A 
ATOM     25  C   UNL     1      -6.376  12.128  20.113  0.00  0.00    +0.000 A 
ATOM     26  C   UNL     1      -5.002  12.405  20.205  0.00  0.00    +0.000 A 
ENDBRANCH   4  21
BRANCH   6  27
ATOM     27  C   UNL     1      -0.539  15.386  19.902  0.00  0.00    +0.000 A 
ATOM     28  C   UNL     1      -0.417  16.281  18.810  0.00  0.00    +0.000 A 
ATOM     29  C   UNL     1      -0.174  17.647  18.975  0.00  0.00    +0.000 A 
ATOM     30  C   UNL     1      -0.070  18.174  20.255  0.00  0.00    +0.000 A 
ATOM     31  C   UNL     1      -0.136  17.318  21.347  0.00  0.00    +0.000 A 
ATOM     32  C   UNL     1      -0.311  15.937  21.171  0.00  0.00    +0.000 A 
ENDBRANCH   6  27
TORSDOF 5
ENDMDL
