MODEL 1
REMARK VINA RESULT:      -7.6      0.000      0.000
REMARK  Name = 
REMARK  5 active torsions:
REMARK  status: ('A' for Active; 'I' for Inactive)
REMARK    1  A    between atoms: N_4  and  C_5
REMARK    2  A    between atoms: C_5  and  C_6
REMARK    3  A    between atoms: N_10  and  C_11
REMARK    4  A    between atoms: C_11  and  C_12
REMARK    5  A    between atoms: C_15  and  C_16
REMARK                            x       y       z     vdW  Elec       q    Type
REMARK                         _______ _______ _______ _____ _____    ______ ____
ROOT
ATOM      1  C   UNL     1       2.967   4.039  17.583  0.00  0.00    +0.000 C 
ATOM      2  C   UNL     1       2.709   5.293  18.429  0.00  0.00    +0.000 C 
ATOM      3  C   UNL     1       3.369   6.490  17.751  0.00  0.00    +0.000 C 
ATOM      4  C   UNL     1       4.857   6.242  17.496  0.00  0.00    +0.000 C 
ATOM      5  N   UNL     1       5.095   4.969  16.806  0.00  0.00    +0.000 NA
ATOM      6  C   UNL     1       4.488   3.818  17.487  0.00  0.00    +0.000 C 
ENDROOT
BRANCH   1   7
ATOM      7  C   UNL     1       2.229   2.804  18.119  0.00  0.00    +0.000 C 
BRANCH   7  11
ATOM      8  C   UNL     1       2.573   2.614  21.573  0.00  0.00    +0.000 A 
ATOM      9  N   UNL     1       1.238   2.908  21.574  0.00  0.00    +0.000 NA
ATOM     10  C   UNL     1       0.965   3.038  20.296  0.00  0.00    +0.000 A 
ATOM     11  N   UNL     1       2.090   2.822  19.564  0.00  0.00    +0.000 N 
ATOM     12  N   UNL     1       3.142   2.566  20.366  0.00  0.00    +0.000 NA
ENDBRANCH   7  11
ENDBRANCH   1   7
BRANCH   5  13
ATOM     13  C   UNL     1       6.516   4.763  16.465  0.00  0.00    +0.000 C 
BRANCH  13  14
ATOM     14  C   UNL     1       6.882   4.835  15.021  0.00  0.00    +0.000 A 
ATOM     15  N   UNL     1       7.838   5.521  14.426  0.00  0.00    +0.000 NA
ATOM     16  N   UNL     1       7.804   5.146  13.097  0.00  0.00    +0.000 NA
ATOM     17  C   UNL     1       6.832   4.267  12.969  0.00  0.00    +0.000 A 
ATOM     18  O   UNL     1       6.184   4.035  14.154  0.00  0.00    +0.000 OA
BRANCH  17  19
ATOM     19  C   UNL     1       6.507   3.571  11.659  0.00  0.00    +0.000 C 
ATOM     20  C   UNL     1       7.158   2.225  11.392  0.00  0.00    +0.000 C 
ATOM     21  C   UNL     1       5.695   2.292  11.669  0.00  0.00    +0.000 C 
ENDBRANCH  17  19
ENDBRANCH  13  14
ENDBRANCH   5  13
TORSDOF 5
ENDMDL
MODEL 2
REMARK VINA RESULT:      -7.6      0.956      1.037
REMARK  Name = 
REMARK  5 active torsions:
REMARK  status: ('A' for Active; 'I' for Inactive)
REMARK    1  A    between atoms: N_4  and  C_5
REMARK    2  A    between atoms: C_5  and  C_6
REMARK    3  A    between atoms: N_10  and  C_11
REMARK    4  A    between atoms: C_11  and  C_12
REMARK    5  A    between atoms: C_15  and  C_16
REMARK                            x       y       z     vdW  Elec       q    Type
REMARK                         _______ _______ _______ _____ _____    ______ ____
ROOT
ATOM      1  C   UNL     1       2.298   5.076  18.071  0.00  0.00    +0.000 C 
ATOM      2  C   UNL     1       2.417   6.503  18.623  0.00  0.00    +0.000 C 
ATOM      3  C   UNL     1       3.349   7.305  17.720  0.00  0.00    +0.000 C 
ATOM      4  C   UNL     1       4.705   6.617  17.559  0.00  0.00    +0.000 C 
ATOM      5  N   UNL     1       4.569   5.211  17.164  0.00  0.00    +0.000 NA
ATOM      6  C   UNL     1       3.700   4.438  18.061  0.00  0.00    +0.000 C 
ENDROOT
BRANCH   1   7
ATOM      7  C   UNL     1       1.276   4.229  18.842  0.00  0.00    +0.000 C 
BRANCH   7  11
ATOM      8  C   UNL     1       2.562   2.280  21.417  0.00  0.00    +0.000 A 
ATOM      9  N   UNL     1       2.459   3.433  22.143  0.00  0.00    +0.000 NA
ATOM     10  C   UNL     1       1.996   4.293  21.265  0.00  0.00    +0.000 A 
ATOM     11  N   UNL     1       1.823   3.673  20.067  0.00  0.00    +0.000 N 
ATOM     12  N   UNL     1       2.200   2.382  20.136  0.00  0.00    +0.000 NA
ENDBRANCH   7  11
ENDBRANCH   1   7
BRANCH   5  13
ATOM     13  C   UNL     1       5.870   4.562  16.910  0.00  0.00    +0.000 C 
BRANCH  13  14
ATOM     14  C   UNL     1       6.438   4.702  15.537  0.00  0.00    +0.000 A 
ATOM     15  N   UNL     1       7.544   5.298  15.138  0.00  0.00    +0.000 NA
ATOM     16  N   UNL     1       7.647   5.041  13.785  0.00  0.00    +0.000 NA
ATOM     17  C   UNL     1       6.601   4.316  13.449  0.00  0.00    +0.000 A 
ATOM     18  O   UNL     1       5.773   4.077  14.514  0.00  0.00    +0.000 OA
BRANCH  17  19
ATOM     19  C   UNL     1       6.376   3.779  12.046  0.00  0.00    +0.000 C 
ATOM     20  C   UNL     1       6.238   2.276  11.876  0.00  0.00    +0.000 C 
ATOM     21  C   UNL     1       5.046   3.150  11.687  0.00  0.00    +0.000 C 
ENDBRANCH  17  19
ENDBRANCH  13  14
ENDBRANCH   5  13
TORSDOF 5
ENDMDL
MODEL 3
REMARK VINA RESULT:      -7.4      2.522      3.312
REMARK  Name = 
REMARK  5 active torsions:
REMARK  status: ('A' for Active; 'I' for Inactive)
REMARK    1  A    between atoms: N_4  and  C_5
REMARK    2  A    between atoms: C_5  and  C_6
REMARK    3  A    between atoms: N_10  and  C_11
REMARK    4  A    between atoms: C_11  and  C_12
REMARK    5  A    between atoms: C_15  and  C_16
REMARK                            x       y       z     vdW  Elec       q    Type
REMARK                         _______ _______ _______ _____ _____    ______ ____
ROOT
ATOM      1  C   UNL     1       3.100   5.996  18.146  0.00  0.00    +0.000 C 
ATOM      2  C   UNL     1       2.100   4.889  17.784  0.00  0.00    +0.000 C 
ATOM      3  C   UNL     1       2.677   3.543  18.213  0.00  0.00    +0.000 C 
ATOM      4  C   UNL     1       4.064   3.309  17.612  0.00  0.00    +0.000 C 
ATOM      5  N   UNL     1       4.968   4.440  17.850  0.00  0.00    +0.000 NA
ATOM      6  C   UNL     1       4.419   5.726  17.399  0.00  0.00    +0.000 C 
ENDROOT
BRANCH   1   7
ATOM      7  C   UNL     1       2.548   7.402  17.870  0.00  0.00    +0.000 C 
BRANCH   7  11
ATOM      8  C   UNL     1       1.343   8.259  21.016  0.00  0.00    +0.000 A 
ATOM      9  N   UNL     1       0.970   9.417  20.396  0.00  0.00    +0.000 NA
ATOM     10  C   UNL     1       1.397   9.243  19.166  0.00  0.00    +0.000 A 
ATOM     11  N   UNL     1       1.994   8.026  19.059  0.00  0.00    +0.000 N 
ATOM     12  N   UNL     1       1.988   7.382  20.242  0.00  0.00    +0.000 NA
ENDBRANCH   7  11
ENDBRANCH   1   7
BRANCH   5  13
ATOM     13  C   UNL     1       6.338   4.187  17.362  0.00  0.00    +0.000 C 
BRANCH  13  14
ATOM     14  C   UNL     1       6.644   4.603  15.963  0.00  0.00    +0.000 A 
ATOM     15  N   UNL     1       7.423   5.572  15.522  0.00  0.00    +0.000 NA
ATOM     16  N   UNL     1       7.433   5.455  14.146  0.00  0.00    +0.000 NA
ATOM     17  C   UNL     1       6.659   4.434  13.840  0.00  0.00    +0.000 A 
ATOM     18  O   UNL     1       6.104   3.854  14.950  0.00  0.00    +0.000 OA
BRANCH  17  19
ATOM     19  C   UNL     1       6.451   3.945  12.417  0.00  0.00    +0.000 C 
ATOM     20  C   UNL     1       6.094   2.482  12.216  0.00  0.00    +0.000 C 
ATOM     21  C   UNL     1       5.067   3.531  11.960  0.00  0.00    +0.000 C 
ENDBRANCH  17  19
ENDBRANCH  13  14
ENDBRANCH   5  13
TORSDOF 5
ENDMDL
MODEL 4
REMARK VINA RESULT:      -7.4      1.307      1.676
REMARK  Name = 
REMARK  5 active torsions:
REMARK  status: ('A' for Active; 'I' for Inactive)
REMARK    1  A    between atoms: N_4  and  C_5
REMARK    2  A    between atoms: C_5  and  C_6
REMARK    3  A    between atoms: N_10  and  C_11
REMARK    4  A    between atoms: C_11  and  C_12
REMARK    5  A    between atoms: C_15  and  C_16
REMARK                            x       y       z     vdW  Elec       q    Type
REMARK                         _______ _______ _______ _____ _____    ______ ____
ROOT
ATOM      1  C   UNL     1       2.558   5.950  19.178  0.00  0.00    +0.000 C 
ATOM      2  C   UNL     1       2.642   7.440  18.820  0.00  0.00    +0.000 C 
ATOM      3  C   UNL     1       3.137   7.575  17.384  0.00  0.00    +0.000 C 
ATOM      4  C   UNL     1       4.462   6.838  17.174  0.00  0.00    +0.000 C 
ATOM      5  N   UNL     1       4.405   5.451  17.650  0.00  0.00    +0.000 NA
ATOM      6  C   UNL     1       3.964   5.335  19.046  0.00  0.00    +0.000 C 
ENDROOT
BRANCH   1   7
ATOM      7  C   UNL     1       1.943   5.710  20.565  0.00  0.00    +0.000 C 
BRANCH   7  11
ATOM      8  C   UNL     1       1.816   2.432  21.714  0.00  0.00    +0.000 A 
ATOM      9  N   UNL     1       1.025   2.234  20.618  0.00  0.00    +0.000 NA
ATOM     10  C   UNL     1       0.960   3.431  20.082  0.00  0.00    +0.000 A 
ATOM     11  N   UNL     1       1.690   4.304  20.826  0.00  0.00    +0.000 N 
ATOM     12  N   UNL     1       2.234   3.687  21.893  0.00  0.00    +0.000 NA
ENDBRANCH   7  11
ENDBRANCH   1   7
BRANCH   5  13
ATOM     13  C   UNL     1       5.643   4.700  17.364  0.00  0.00    +0.000 C 
BRANCH  13  14
ATOM     14  C   UNL     1       6.236   4.868  16.006  0.00  0.00    +0.000 A 
ATOM     15  N   UNL     1       7.248   5.616  15.613  0.00  0.00    +0.000 NA
ATOM     16  N   UNL     1       7.446   5.318  14.279  0.00  0.00    +0.000 NA
ATOM     17  C   UNL     1       6.543   4.419  13.946  0.00  0.00    +0.000 A 
ATOM     18  O   UNL     1       5.721   4.098  14.995  0.00  0.00    +0.000 OA
BRANCH  17  19
ATOM     19  C   UNL     1       6.464   3.791  12.566  0.00  0.00    +0.000 C 
ATOM     20  C   UNL     1       5.791   2.435  12.443  0.00  0.00    +0.000 C 
ATOM     21  C   UNL     1       5.119   3.642  11.885  0.00  0.00    +0.000 C 
ENDBRANCH  17  19
ENDBRANCH  13  14
ENDBRANCH   5  13
TORSDOF 5
ENDMDL
MODEL 5
REMARK VINA RESULT:      -7.3      2.912      3.917
REMARK  Name = 
REMARK  5 active torsions:
REMARK  status: ('A' for Active; 'I' for Inactive)
REMARK    1  A    between atoms: N_4  and  C_5
REMARK    2  A    between atoms: C_5  and  C_6
REMARK    3  A    between atoms: N_10  and  C_11
REMARK    4  A    between atoms: C_11  and  C_12
REMARK    5  A    between atoms: C_15  and  C_16
REMARK                            x       y       z     vdW  Elec       q    Type
REMARK                         _______ _______ _______ _____ _____    ______ ____
ROOT
ATOM      1  C   UNL     1       3.018   6.764  18.349  0.00  0.00    +0.000 C 
ATOM      2  C   UNL     1       2.066   5.575  18.160  0.00  0.00    +0.000 C 
ATOM      3  C   UNL     1       2.675   4.345  18.826  0.00  0.00    +0.000 C 
ATOM      4  C   UNL     1       4.085   4.064  18.306  0.00  0.00    +0.000 C 
ATOM      5  N   UNL     1       4.944   5.252  18.366  0.00  0.00    +0.000 NA
ATOM      6  C   UNL     1       4.367   6.420  17.689  0.00  0.00    +0.000 C 
ENDROOT
BRANCH   1   7
ATOM      7  C   UNL     1       2.429   8.081  17.824  0.00  0.00    +0.000 C 
BRANCH   7  11
ATOM      8  C   UNL     1       0.459  10.237  19.709  0.00  0.00    +0.000 A 
ATOM      9  N   UNL     1       0.781   9.397  20.736  0.00  0.00    +0.000 NA
ATOM     10  C   UNL     1       1.526   8.488  20.150  0.00  0.00    +0.000 A 
ATOM     11  N   UNL     1       1.647   8.781  18.828  0.00  0.00    +0.000 N 
ATOM     12  N   UNL     1       0.953   9.892  18.517  0.00  0.00    +0.000 NA
ENDBRANCH   7  11
ENDBRANCH   1   7
BRANCH   5  13
ATOM     13  C   UNL     1       6.335   4.970  17.960  0.00  0.00    +0.000 C 
BRANCH  13  14
ATOM     14  C   UNL     1       6.624   4.972  16.496  0.00  0.00    +0.000 A 
ATOM     15  N   UNL     1       7.394   5.776  15.789  0.00  0.00    +0.000 NA
ATOM     16  N   UNL     1       7.389   5.272  14.503  0.00  0.00    +0.000 NA
ATOM     17  C   UNL     1       6.617   4.205  14.509  0.00  0.00    +0.000 A 
ATOM     18  O   UNL     1       6.076   3.964  15.745  0.00  0.00    +0.000 OA
BRANCH  17  19
ATOM     19  C   UNL     1       6.396   3.331  13.287  0.00  0.00    +0.000 C 
ATOM     20  C   UNL     1       5.286   3.723  12.327  0.00  0.00    +0.000 C 
ATOM     21  C   UNL     1       6.707   3.876  11.908  0.00  0.00    +0.000 C 
ENDBRANCH  17  19
ENDBRANCH  13  14
ENDBRANCH   5  13
TORSDOF 5
ENDMDL
MODEL 6
REMARK VINA RESULT:      -7.1      0.932      1.231
REMARK  Name = 
REMARK  5 active torsions:
REMARK  status: ('A' for Active; 'I' for Inactive)
REMARK    1  A    between atoms: N_4  and  C_5
REMARK    2  A    between atoms: C_5  and  C_6
REMARK    3  A    between atoms: N_10  and  C_11
REMARK    4  A    between atoms: C_11  and  C_12
REMARK    5  A    between atoms: C_15  and  C_16
REMARK                            x       y       z     vdW  Elec       q    Type
REMARK                         _______ _______ _______ _____ _____    ______ ____
ROOT
ATOM      1  C   UNL     1       2.684   4.340  17.881  0.00  0.00    +0.000 C 
ATOM      2  C   UNL     1       2.268   5.479  18.822  0.00  0.00    +0.000 C 
ATOM      3  C   UNL     1       2.700   6.808  18.209  0.00  0.00    +0.000 C 
ATOM      4  C   UNL     1       4.196   6.819  17.889  0.00  0.00    +0.000 C 
ATOM      5  N   UNL     1       4.602   5.648  17.103  0.00  0.00    +0.000 NA
ATOM      6  C   UNL     1       4.215   4.373  17.720  0.00  0.00    +0.000 C 
ENDROOT
BRANCH   1   7
ATOM      7  C   UNL     1       2.174   2.970  18.351  0.00  0.00    +0.000 C 
BRANCH   7  11
ATOM      8  C   UNL     1       1.330   2.861  21.722  0.00  0.00    +0.000 A 
ATOM      9  N   UNL     1       2.680   2.753  21.905  0.00  0.00    +0.000 NA
ATOM     10  C   UNL     1       3.144   2.754  20.677  0.00  0.00    +0.000 A 
ATOM     11  N   UNL     1       2.112   2.867  19.799  0.00  0.00    +0.000 N 
ATOM     12  N   UNL     1       0.933   2.918  20.448  0.00  0.00    +0.000 NA
ENDBRANCH   7  11
ENDBRANCH   1   7
BRANCH   5  13
ATOM     13  C   UNL     1       6.023   5.696  16.703  0.00  0.00    +0.000 C 
BRANCH  13  14
ATOM     14  C   UNL     1       6.360   5.171  15.348  0.00  0.00    +0.000 A 
ATOM     15  N   UNL     1       7.391   5.441  14.571  0.00  0.00    +0.000 NA
ATOM     16  N   UNL     1       7.271   4.606  13.478  0.00  0.00    +0.000 NA
ATOM     17  C   UNL     1       6.180   3.890  13.655  0.00  0.00    +0.000 A 
ATOM     18  O   UNL     1       5.534   4.212  14.821  0.00  0.00    +0.000 OA
BRANCH  17  19
ATOM     19  C   UNL     1       5.728   2.809  12.690  0.00  0.00    +0.000 C 
ATOM     20  C   UNL     1       4.760   3.203  11.589  0.00  0.00    +0.000 C 
ATOM     21  C   UNL     1       6.168   2.864  11.241  0.00  0.00    +0.000 C 
ENDBRANCH  17  19
ENDBRANCH  13  14
ENDBRANCH   5  13
TORSDOF 5
ENDMDL
MODEL 7
REMARK VINA RESULT:      -6.9      1.208      1.373
REMARK  Name = 
REMARK  5 active torsions:
REMARK  status: ('A' for Active; 'I' for Inactive)
REMARK    1  A    between atoms: N_4  and  C_5
REMARK    2  A    between atoms: C_5  and  C_6
REMARK    3  A    between atoms: N_10  and  C_11
REMARK    4  A    between atoms: C_11  and  C_12
REMARK    5  A    between atoms: C_15  and  C_16
REMARK                            x       y       z     vdW  Elec       q    Type
REMARK                         _______ _______ _______ _____ _____    ______ ____
ROOT
ATOM      1  C   UNL     1       4.098   4.610  18.447  0.00  0.00    +0.000 C 
ATOM      2  C   UNL     1       3.895   6.101  18.749  0.00  0.00    +0.000 C 
ATOM      3  C   UNL     1       4.193   6.905  17.487  0.00  0.00    +0.000 C 
ATOM      4  C   UNL     1       5.587   6.595  16.939  0.00  0.00    +0.000 C 
ATOM      5  N   UNL     1       5.814   5.154  16.786  0.00  0.00    +0.000 NA
ATOM      6  C   UNL     1       5.561   4.393  18.017  0.00  0.00    +0.000 C 
ENDROOT
BRANCH   1   7
ATOM      7  C   UNL     1       3.695   3.709  19.624  0.00  0.00    +0.000 C 
BRANCH   7  11
ATOM      8  C   UNL     1       0.808   1.891  18.955  0.00  0.00    +0.000 A 
ATOM      9  N   UNL     1       0.174   2.999  19.443  0.00  0.00    +0.000 NA
ATOM     10  C   UNL     1       1.172   3.788  19.771  0.00  0.00    +0.000 A 
ATOM     11  N   UNL     1       2.351   3.176  19.482  0.00  0.00    +0.000 N 
ATOM     12  N   UNL     1       2.142   1.946  18.974  0.00  0.00    +0.000 NA
ENDBRANCH   7  11
ENDBRANCH   1   7
BRANCH   5  13
ATOM     13  C   UNL     1       7.117   4.845  16.167  0.00  0.00    +0.000 C 
BRANCH  13  14
ATOM     14  C   UNL     1       7.176   4.857  14.676  0.00  0.00    +0.000 A 
ATOM     15  N   UNL     1       7.964   5.539  13.869  0.00  0.00    +0.000 NA
ATOM     16  N   UNL     1       7.672   5.100  12.592  0.00  0.00    +0.000 NA
ATOM     17  C   UNL     1       6.726   4.190  12.704  0.00  0.00    +0.000 A 
ATOM     18  O   UNL     1       6.345   3.998  14.006  0.00  0.00    +0.000 OA
BRANCH  17  19
ATOM     19  C   UNL     1       6.165   3.423  11.520  0.00  0.00    +0.000 C 
ATOM     20  C   UNL     1       5.794   1.966  11.731  0.00  0.00    +0.000 C 
ATOM     21  C   UNL     1       4.717   2.976  11.532  0.00  0.00    +0.000 C 
ENDBRANCH  17  19
ENDBRANCH  13  14
ENDBRANCH   5  13
TORSDOF 5
ENDMDL
MODEL 8
REMARK VINA RESULT:      -6.9      3.821      7.811
REMARK  Name = 
REMARK  5 active torsions:
REMARK  status: ('A' for Active; 'I' for Inactive)
REMARK    1  A    between atoms: N_4  and  C_5
REMARK    2  A    between atoms: C_5  and  C_6
REMARK    3  A    between atoms: N_10  and  C_11
REMARK    4  A    between atoms: C_11  and  C_12
REMARK    5  A    between atoms: C_15  and  C_16
REMARK                            x       y       z     vdW  Elec       q    Type
REMARK                         _______ _______ _______ _____ _____    ______ ____
ROOT
ATOM      1  C   UNL     1       4.352   4.252  17.716  0.00  0.00    +0.000 C 
ATOM      2  C   UNL     1       3.560   2.980  18.047  0.00  0.00    +0.000 C 
ATOM      3  C   UNL     1       2.073   3.320  18.084  0.00  0.00    +0.000 C 
ATOM      4  C   UNL     1       1.783   4.467  19.052  0.00  0.00    +0.000 C 
ATOM      5  N   UNL     1       2.646   5.628  18.809  0.00  0.00    +0.000 NA
ATOM      6  C   UNL     1       4.077   5.298  18.814  0.00  0.00    +0.000 C 
ENDROOT
BRANCH   1   7
ATOM      7  C   UNL     1       5.852   3.982  17.528  0.00  0.00    +0.000 C 
BRANCH   7  11
ATOM      8  C   UNL     1       6.646   4.364  14.166  0.00  0.00    +0.000 A 
ATOM      9  N   UNL     1       7.439   5.380  14.620  0.00  0.00    +0.000 NA
ATOM     10  C   UNL     1       7.214   5.371  15.914  0.00  0.00    +0.000 A 
ATOM     11  N   UNL     1       6.330   4.384  16.217  0.00  0.00    +0.000 N 
ATOM     12  N   UNL     1       5.935   3.735  15.105  0.00  0.00    +0.000 NA
ENDBRANCH   7  11
ENDBRANCH   1   7
BRANCH   5  13
ATOM     13  C   UNL     1       2.310   6.778  19.672  0.00  0.00    +0.000 C 
BRANCH  13  14
ATOM     14  C   UNL     1       2.064   8.083  18.992  0.00  0.00    +0.000 A 
ATOM     15  N   UNL     1       2.544   8.545  17.854  0.00  0.00    +0.000 NA
ATOM     16  N   UNL     1       1.913   9.756  17.639  0.00  0.00    +0.000 NA
ATOM     17  C   UNL     1       1.101   9.953  18.657  0.00  0.00    +0.000 A 
ATOM     18  O   UNL     1       1.160   8.934  19.572  0.00  0.00    +0.000 OA
BRANCH  17  19
ATOM     19  C   UNL     1       0.182  11.157  18.766  0.00  0.00    +0.000 C 
ATOM     20  C   UNL     1      -1.280  10.968  18.398  0.00  0.00    +0.000 C 
ATOM     21  C   UNL     1      -0.903  11.180  19.824  0.00  0.00    +0.000 C 
ENDBRANCH  17  19
ENDBRANCH  13  14
ENDBRANCH   5  13
TORSDOF 5
ENDMDL
MODEL 9
REMARK VINA RESULT:      -6.9      4.013      7.743
REMARK  Name = 
REMARK  5 active torsions:
REMARK  status: ('A' for Active; 'I' for Inactive)
REMARK    1  A    between atoms: N_4  and  C_5
REMARK    2  A    between atoms: C_5  and  C_6
REMARK    3  A    between atoms: N_10  and  C_11
REMARK    4  A    between atoms: C_11  and  C_12
REMARK    5  A    between atoms: C_15  and  C_16
REMARK                            x       y       z     vdW  Elec       q    Type
REMARK                         _______ _______ _______ _____ _____    ______ ____
ROOT
ATOM      1  C   UNL     1       4.615   4.712  17.015  0.00  0.00    +0.000 C 
ATOM      2  C   UNL     1       4.010   3.325  17.273  0.00  0.00    +0.000 C 
ATOM      3  C   UNL     1       2.496   3.464  17.404  0.00  0.00    +0.000 C 
ATOM      4  C   UNL     1       2.116   4.485  18.477  0.00  0.00    +0.000 C 
ATOM      5  N   UNL     1       2.810   5.764  18.294  0.00  0.00    +0.000 NA
ATOM      6  C   UNL     1       4.270   5.625  18.208  0.00  0.00    +0.000 C 
ENDROOT
BRANCH   1   7
ATOM      7  C   UNL     1       6.124   4.656  16.739  0.00  0.00    +0.000 C 
BRANCH   7  11
ATOM      8  C   UNL     1       7.700   7.655  17.518  0.00  0.00    +0.000 A 
ATOM      9  N   UNL     1       8.090   6.987  18.644  0.00  0.00    +0.000 NA
ATOM     10  C   UNL     1       7.529   5.809  18.497  0.00  0.00    +0.000 A 
ATOM     11  N   UNL     1       6.839   5.776  17.325  0.00  0.00    +0.000 N 
ATOM     12  N   UNL     1       6.919   6.959  16.688  0.00  0.00    +0.000 NA
ENDBRANCH   7  11
ENDBRANCH   1   7
BRANCH   5  13
ATOM     13  C   UNL     1       2.379   6.790  19.263  0.00  0.00    +0.000 C 
BRANCH  13  14
ATOM     14  C   UNL     1       2.078   8.147  18.722  0.00  0.00    +0.000 A 
ATOM     15  N   UNL     1       2.531   8.742  17.636  0.00  0.00    +0.000 NA
ATOM     16  N   UNL     1       1.853   9.942  17.549  0.00  0.00    +0.000 NA
ATOM     17  C   UNL     1       1.042  10.003  18.584  0.00  0.00    +0.000 A 
ATOM     18  O   UNL     1       1.146   8.899  19.390  0.00  0.00    +0.000 OA
BRANCH  17  19
ATOM     19  C   UNL     1       0.079  11.153  18.819  0.00  0.00    +0.000 C 
ATOM     20  C   UNL     1      -1.390  10.922  18.511  0.00  0.00    +0.000 C 
ATOM     21  C   UNL     1      -0.950  11.057  19.928  0.00  0.00    +0.000 C 
ENDBRANCH  17  19
ENDBRANCH  13  14
ENDBRANCH   5  13
TORSDOF 5
ENDMDL
