MODEL 1
REMARK VINA RESULT:      -7.4      0.000      0.000
REMARK  Name = 
REMARK  4 active torsions:
REMARK  status: ('A' for Active; 'I' for Inactive)
REMARK    1  A    between atoms: C_2  and  C_3
REMARK    2  A    between atoms: C_2  and  C_10
REMARK    3  A    between atoms: C_8  and  O_9
REMARK    4  A    between atoms: C_14  and  N_15
REMARK                            x       y       z     vdW  Elec       q    Type
REMARK                         _______ _______ _______ _____ _____    ______ ____
ROOT
ATOM      1  O   UNL     1       6.685   5.207  19.749  0.00  0.00    +0.000 OA
ATOM      2  C   UNL     1       5.719   5.056  19.008  0.00  0.00    +0.000 C 
ENDROOT
BRANCH   2   3
ATOM      3  C   UNL     1       5.961   5.027  17.534  0.00  0.00    +0.000 A 
ATOM      4  C   UNL     1       4.940   5.483  16.687  0.00  0.00    +0.000 A 
ATOM      5  C   UNL     1       5.124   5.514  15.305  0.00  0.00    +0.000 A 
ATOM      6  C   UNL     1       6.329   5.082  14.751  0.00  0.00    +0.000 A 
ATOM      7  C   UNL     1       7.342   4.598  15.578  0.00  0.00    +0.000 A 
ATOM      8  C   UNL     1       7.154   4.564  16.958  0.00  0.00    +0.000 A 
BRANCH   8   9
ATOM      9  O   UNL     1       8.156   4.060  17.740  0.00  0.00    +0.000 OA
ATOM     10  H   UNL     1       7.891   3.206  18.124  0.00  0.00    +0.000 HD
ENDBRANCH   8   9
ENDBRANCH   2   3
BRANCH   2  11
ATOM     11  C   UNL     1       4.391   4.834  19.530  0.00  0.00    +0.000 A 
ATOM     12  N   UNL     1       3.501   5.812  19.896  0.00  0.00    +0.000 N 
ATOM     13  N   UNL     1       2.333   5.350  20.379  0.00  0.00    +0.000 NA
ATOM     14  C   UNL     1       2.465   4.024  20.292  0.00  0.00    +0.000 A 
ATOM     15  C   UNL     1       3.709   3.654  19.755  0.00  0.00    +0.000 A 
ATOM     16  H   UNL     1       3.646   6.817  19.882  0.00  0.00    +0.000 HD
BRANCH  15  17
ATOM     17  N   UNL     1       4.179   2.327  19.554  0.00  0.00    +0.000 N 
ATOM     18  O   UNL     1       3.767   1.732  18.552  0.00  0.00    +0.000 OA
ATOM     19  O   UNL     1       5.025   1.919  20.360  0.00  0.00    +0.000 OA
ENDBRANCH  15  17
ENDBRANCH   2  11
TORSDOF 4
ENDMDL
MODEL 2
REMARK VINA RESULT:      -7.3      2.442      5.114
REMARK  Name = 
REMARK  4 active torsions:
REMARK  status: ('A' for Active; 'I' for Inactive)
REMARK    1  A    between atoms: C_2  and  C_3
REMARK    2  A    between atoms: C_2  and  C_10
REMARK    3  A    between atoms: C_8  and  O_9
REMARK    4  A    between atoms: C_14  and  N_15
REMARK                            x       y       z     vdW  Elec       q    Type
REMARK                         _______ _______ _______ _____ _____    ______ ____
ROOT
ATOM      1  O   UNL     1       4.335   3.711  16.494  0.00  0.00    +0.000 OA
ATOM      2  C   UNL     1       4.397   4.068  17.666  0.00  0.00    +0.000 C 
ENDROOT
BRANCH   2   3
ATOM      3  C   UNL     1       3.232   3.775  18.554  0.00  0.00    +0.000 A 
ATOM      4  C   UNL     1       2.614   4.848  19.212  0.00  0.00    +0.000 A 
ATOM      5  C   UNL     1       1.500   4.638  20.023  0.00  0.00    +0.000 A 
ATOM      6  C   UNL     1       0.994   3.350  20.194  0.00  0.00    +0.000 A 
ATOM      7  C   UNL     1       1.615   2.268  19.571  0.00  0.00    +0.000 A 
ATOM      8  C   UNL     1       2.732   2.481  18.764  0.00  0.00    +0.000 A 
BRANCH   8   9
ATOM      9  O   UNL     1       3.334   1.397  18.188  0.00  0.00    +0.000 OA
ATOM     10  H   UNL     1       3.882   0.926  18.840  0.00  0.00    +0.000 HD
ENDBRANCH   8   9
ENDBRANCH   2   3
BRANCH   2  11
ATOM     11  C   UNL     1       5.585   4.686  18.207  0.00  0.00    +0.000 A 
ATOM     12  N   UNL     1       6.045   4.547  19.492  0.00  0.00    +0.000 N 
ATOM     13  N   UNL     1       7.163   5.245  19.762  0.00  0.00    +0.000 NA
ATOM     14  C   UNL     1       7.450   5.833  18.598  0.00  0.00    +0.000 A 
ATOM     15  C   UNL     1       6.517   5.504  17.600  0.00  0.00    +0.000 A 
ATOM     16  H   UNL     1       5.617   4.022  20.249  0.00  0.00    +0.000 HD
BRANCH  15  17
ATOM     17  N   UNL     1       6.515   5.979  16.260  0.00  0.00    +0.000 N 
ATOM     18  O   UNL     1       5.649   6.809  15.961  0.00  0.00    +0.000 OA
ATOM     19  O   UNL     1       7.436   5.579  15.536  0.00  0.00    +0.000 OA
ENDBRANCH  15  17
ENDBRANCH   2  11
TORSDOF 4
ENDMDL
MODEL 3
REMARK VINA RESULT:      -7.3      2.585      5.191
REMARK  Name = 
REMARK  4 active torsions:
REMARK  status: ('A' for Active; 'I' for Inactive)
REMARK    1  A    between atoms: C_2  and  C_3
REMARK    2  A    between atoms: C_2  and  C_10
REMARK    3  A    between atoms: C_8  and  O_9
REMARK    4  A    between atoms: C_14  and  N_15
REMARK                            x       y       z     vdW  Elec       q    Type
REMARK                         _______ _______ _______ _____ _____    ______ ____
ROOT
ATOM      1  O   UNL     1       3.958   3.254  16.828  0.00  0.00    +0.000 OA
ATOM      2  C   UNL     1       4.302   3.829  17.856  0.00  0.00    +0.000 C 
ENDROOT
BRANCH   2   3
ATOM      3  C   UNL     1       3.439   3.682  19.067  0.00  0.00    +0.000 A 
ATOM      4  C   UNL     1       2.302   4.496  19.172  0.00  0.00    +0.000 A 
ATOM      5  C   UNL     1       1.440   4.376  20.262  0.00  0.00    +0.000 A 
ATOM      6  C   UNL     1       1.709   3.446  21.265  0.00  0.00    +0.000 A 
ATOM      7  C   UNL     1       2.851   2.651  21.191  0.00  0.00    +0.000 A 
ATOM      8  C   UNL     1       3.713   2.776  20.102  0.00  0.00    +0.000 A 
BRANCH   8   9
ATOM      9  O   UNL     1       4.839   2.000  20.071  0.00  0.00    +0.000 OA
ATOM     10  H   UNL     1       5.622   2.545  19.879  0.00  0.00    +0.000 HD
ENDBRANCH   8   9
ENDBRANCH   2   3
BRANCH   2  11
ATOM     11  C   UNL     1       5.541   4.566  17.933  0.00  0.00    +0.000 A 
ATOM     12  N   UNL     1       6.697   4.128  18.531  0.00  0.00    +0.000 N 
ATOM     13  N   UNL     1       7.712   5.010  18.492  0.00  0.00    +0.000 NA
ATOM     14  C   UNL     1       7.199   6.043  17.818  0.00  0.00    +0.000 A 
ATOM     15  C   UNL     1       5.868   5.811  17.433  0.00  0.00    +0.000 A 
ATOM     16  H   UNL     1       6.846   3.252  19.022  0.00  0.00    +0.000 HD
BRANCH  15  17
ATOM     17  N   UNL     1       5.026   6.713  16.728  0.00  0.00    +0.000 N 
ATOM     18  O   UNL     1       5.181   6.786  15.504  0.00  0.00    +0.000 OA
ATOM     19  O   UNL     1       4.154   7.283  17.398  0.00  0.00    +0.000 OA
ENDBRANCH  15  17
ENDBRANCH   2  11
TORSDOF 4
ENDMDL
MODEL 4
REMARK VINA RESULT:      -7.3      2.682      4.948
REMARK  Name = 
REMARK  4 active torsions:
REMARK  status: ('A' for Active; 'I' for Inactive)
REMARK    1  A    between atoms: C_2  and  C_3
REMARK    2  A    between atoms: C_2  and  C_10
REMARK    3  A    between atoms: C_8  and  O_9
REMARK    4  A    between atoms: C_14  and  N_15
REMARK                            x       y       z     vdW  Elec       q    Type
REMARK                         _______ _______ _______ _____ _____    ______ ____
ROOT
ATOM      1  O   UNL     1       2.770   7.509  18.813  0.00  0.00    +0.000 OA
ATOM      2  C   UNL     1       3.186   6.400  18.489  0.00  0.00    +0.000 C 
ENDROOT
BRANCH   2   3
ATOM      3  C   UNL     1       2.380   5.205  18.880  0.00  0.00    +0.000 A 
ATOM      4  C   UNL     1       2.010   4.298  17.876  0.00  0.00    +0.000 A 
ATOM      5  C   UNL     1       1.290   3.146  18.189  0.00  0.00    +0.000 A 
ATOM      6  C   UNL     1       0.922   2.889  19.509  0.00  0.00    +0.000 A 
ATOM      7  C   UNL     1       1.256   3.796  20.514  0.00  0.00    +0.000 A 
ATOM      8  C   UNL     1       1.972   4.949  20.198  0.00  0.00    +0.000 A 
BRANCH   8   9
ATOM      9  O   UNL     1       2.262   5.831  21.202  0.00  0.00    +0.000 OA
ATOM     10  H   UNL     1       2.810   5.403  21.883  0.00  0.00    +0.000 HD
ENDBRANCH   8   9
ENDBRANCH   2   3
BRANCH   2  11
ATOM     11  C   UNL     1       4.376   6.243  17.687  0.00  0.00    +0.000 A 
ATOM     12  N   UNL     1       4.567   6.757  16.428  0.00  0.00    +0.000 N 
ATOM     13  N   UNL     1       5.755   6.451  15.876  0.00  0.00    +0.000 NA
ATOM     14  C   UNL     1       6.364   5.737  16.827  0.00  0.00    +0.000 A 
ATOM     15  C   UNL     1       5.563   5.598  17.973  0.00  0.00    +0.000 A 
ATOM     16  H   UNL     1       3.906   7.290  15.871  0.00  0.00    +0.000 HD
BRANCH  15  17
ATOM     17  N   UNL     1       5.898   4.878  19.153  0.00  0.00    +0.000 N 
ATOM     18  O   UNL     1       5.377   3.767  19.299  0.00  0.00    +0.000 OA
ATOM     19  O   UNL     1       6.748   5.398  19.887  0.00  0.00    +0.000 OA
ENDBRANCH  15  17
ENDBRANCH   2  11
TORSDOF 4
ENDMDL
MODEL 5
REMARK VINA RESULT:      -7.3      2.911      5.209
REMARK  Name = 
REMARK  4 active torsions:
REMARK  status: ('A' for Active; 'I' for Inactive)
REMARK    1  A    between atoms: C_2  and  C_3
REMARK    2  A    between atoms: C_2  and  C_10
REMARK    3  A    between atoms: C_8  and  O_9
REMARK    4  A    between atoms: C_14  and  N_15
REMARK                            x       y       z     vdW  Elec       q    Type
REMARK                         _______ _______ _______ _____ _____    ______ ____
ROOT
ATOM      1  O   UNL     1       3.520   6.959  18.173  0.00  0.00    +0.000 OA
ATOM      2  C   UNL     1       3.843   5.794  18.382  0.00  0.00    +0.000 C 
ENDROOT
BRANCH   2   3
ATOM      3  C   UNL     1       2.781   4.836  18.814  0.00  0.00    +0.000 A 
ATOM      4  C   UNL     1       2.466   3.769  17.961  0.00  0.00    +0.000 A 
ATOM      5  C   UNL     1       1.509   2.823  18.329  0.00  0.00    +0.000 A 
ATOM      6  C   UNL     1       0.850   2.937  19.552  0.00  0.00    +0.000 A 
ATOM      7  C   UNL     1       1.130   4.009  20.398  0.00  0.00    +0.000 A 
ATOM      8  C   UNL     1       2.084   4.956  20.026  0.00  0.00    +0.000 A 
BRANCH   8   9
ATOM      9  O   UNL     1       2.318   6.009  20.865  0.00  0.00    +0.000 OA
ATOM     10  H   UNL     1       1.548   6.163  21.440  0.00  0.00    +0.000 HD
ENDBRANCH   8   9
ENDBRANCH   2   3
BRANCH   2  11
ATOM     11  C   UNL     1       5.190   5.329  18.149  0.00  0.00    +0.000 A 
ATOM     12  N   UNL     1       6.064   4.892  19.113  0.00  0.00    +0.000 N 
ATOM     13  N   UNL     1       7.274   4.531  18.646  0.00  0.00    +0.000 NA
ATOM     14  C   UNL     1       7.164   4.715  17.328  0.00  0.00    +0.000 A 
ATOM     15  C   UNL     1       5.890   5.187  16.967  0.00  0.00    +0.000 A 
ATOM     16  H   UNL     1       5.911   4.856  20.117  0.00  0.00    +0.000 HD
BRANCH  15  17
ATOM     17  N   UNL     1       5.452   5.510  15.654  0.00  0.00    +0.000 N 
ATOM     18  O   UNL     1       5.397   6.709  15.360  0.00  0.00    +0.000 OA
ATOM     19  O   UNL     1       5.246   4.553  14.896  0.00  0.00    +0.000 OA
ENDBRANCH  15  17
ENDBRANCH   2  11
TORSDOF 4
ENDMDL
MODEL 6
REMARK VINA RESULT:      -7.3      2.753      4.958
REMARK  Name = 
REMARK  4 active torsions:
REMARK  status: ('A' for Active; 'I' for Inactive)
REMARK    1  A    between atoms: C_2  and  C_3
REMARK    2  A    between atoms: C_2  and  C_10
REMARK    3  A    between atoms: C_8  and  O_9
REMARK    4  A    between atoms: C_14  and  N_15
REMARK                            x       y       z     vdW  Elec       q    Type
REMARK                         _______ _______ _______ _____ _____    ______ ____
ROOT
ATOM      1  O   UNL     1       3.294   7.618  17.790  0.00  0.00    +0.000 OA
ATOM      2  C   UNL     1       3.626   6.438  17.811  0.00  0.00    +0.000 C 
ENDROOT
BRANCH   2   3
ATOM      3  C   UNL     1       2.703   5.458  18.460  0.00  0.00    +0.000 A 
ATOM      4  C   UNL     1       2.277   4.353  17.710  0.00  0.00    +0.000 A 
ATOM      5  C   UNL     1       1.445   3.388  18.277  0.00  0.00    +0.000 A 
ATOM      6  C   UNL     1       1.021   3.520  19.598  0.00  0.00    +0.000 A 
ATOM      7  C   UNL     1       1.411   4.629  20.348  0.00  0.00    +0.000 A 
ATOM      8  C   UNL     1       2.239   5.595  19.778  0.00  0.00    +0.000 A 
BRANCH   8   9
ATOM      9  O   UNL     1       2.583   6.684  20.530  0.00  0.00    +0.000 OA
ATOM     10  H   UNL     1       2.787   7.442  19.955  0.00  0.00    +0.000 HD
ENDBRANCH   8   9
ENDBRANCH   2   3
BRANCH   2  11
ATOM     11  C   UNL     1       4.833   5.979  17.166  0.00  0.00    +0.000 A 
ATOM     12  N   UNL     1       5.174   6.201  15.855  0.00  0.00    +0.000 N 
ATOM     13  N   UNL     1       6.344   5.649  15.482  0.00  0.00    +0.000 NA
ATOM     14  C   UNL     1       6.786   5.074  16.604  0.00  0.00    +0.000 A 
ATOM     15  C   UNL     1       5.900   5.266  17.677  0.00  0.00    +0.000 A 
ATOM     16  H   UNL     1       4.631   6.688  15.148  0.00  0.00    +0.000 HD
BRANCH  15  17
ATOM     17  N   UNL     1       6.056   4.764  18.998  0.00  0.00    +0.000 N 
ATOM     18  O   UNL     1       6.726   5.446  19.782  0.00  0.00    +0.000 OA
ATOM     19  O   UNL     1       5.435   3.727  19.266  0.00  0.00    +0.000 OA
ENDBRANCH  15  17
ENDBRANCH   2  11
TORSDOF 4
ENDMDL
MODEL 7
REMARK VINA RESULT:      -7.2      2.690      5.377
REMARK  Name = 
REMARK  4 active torsions:
REMARK  status: ('A' for Active; 'I' for Inactive)
REMARK    1  A    between atoms: C_2  and  C_3
REMARK    2  A    between atoms: C_2  and  C_10
REMARK    3  A    between atoms: C_8  and  O_9
REMARK    4  A    between atoms: C_14  and  N_15
REMARK                            x       y       z     vdW  Elec       q    Type
REMARK                         _______ _______ _______ _____ _____    ______ ____
ROOT
ATOM      1  O   UNL     1       3.732   3.355  16.726  0.00  0.00    +0.000 OA
ATOM      2  C   UNL     1       4.075   3.864  17.788  0.00  0.00    +0.000 C 
ENDROOT
BRANCH   2   3
ATOM      3  C   UNL     1       3.177   3.699  18.971  0.00  0.00    +0.000 A 
ATOM      4  C   UNL     1       3.026   4.786  19.844  0.00  0.00    +0.000 A 
ATOM      5  C   UNL     1       2.172   4.701  20.943  0.00  0.00    +0.000 A 
ATOM      6  C   UNL     1       1.464   3.525  21.188  0.00  0.00    +0.000 A 
ATOM      7  C   UNL     1       1.627   2.425  20.346  0.00  0.00    +0.000 A 
ATOM      8  C   UNL     1       2.484   2.511  19.251  0.00  0.00    +0.000 A 
BRANCH   8   9
ATOM      9  O   UNL     1       2.642   1.408  18.459  0.00  0.00    +0.000 OA
ATOM     10  H   UNL     1       1.898   1.326  17.838  0.00  0.00    +0.000 HD
ENDBRANCH   8   9
ENDBRANCH   2   3
BRANCH   2  11
ATOM     11  C   UNL     1       5.344   4.540  17.929  0.00  0.00    +0.000 A 
ATOM     12  N   UNL     1       6.438   4.056  18.601  0.00  0.00    +0.000 N 
ATOM     13  N   UNL     1       7.497   4.886  18.612  0.00  0.00    +0.000 NA
ATOM     14  C   UNL     1       7.079   5.931  17.893  0.00  0.00    +0.000 A 
ATOM     15  C   UNL     1       5.763   5.758  17.432  0.00  0.00    +0.000 A 
ATOM     16  H   UNL     1       6.513   3.182  19.114  0.00  0.00    +0.000 HD
BRANCH  15  17
ATOM     17  N   UNL     1       5.010   6.689  16.665  0.00  0.00    +0.000 N 
ATOM     18  O   UNL     1       4.148   7.342  17.264  0.00  0.00    +0.000 OA
ATOM     19  O   UNL     1       5.345   6.819  15.481  0.00  0.00    +0.000 OA
ENDBRANCH  15  17
ENDBRANCH   2  11
TORSDOF 4
ENDMDL
MODEL 8
REMARK VINA RESULT:      -7.1      2.955      4.570
REMARK  Name = 
REMARK  4 active torsions:
REMARK  status: ('A' for Active; 'I' for Inactive)
REMARK    1  A    between atoms: C_2  and  C_3
REMARK    2  A    between atoms: C_2  and  C_10
REMARK    3  A    between atoms: C_8  and  O_9
REMARK    4  A    between atoms: C_14  and  N_15
REMARK                            x       y       z     vdW  Elec       q    Type
REMARK                         _______ _______ _______ _____ _____    ______ ____
ROOT
ATOM      1  O   UNL     1       5.659   6.257  15.190  0.00  0.00    +0.000 OA
ATOM      2  C   UNL     1       5.606   6.339  16.413  0.00  0.00    +0.000 C 
ENDROOT
BRANCH   2   3
ATOM      3  C   UNL     1       4.472   5.668  17.116  0.00  0.00    +0.000 A 
ATOM      4  C   UNL     1       3.515   6.474  17.749  0.00  0.00    +0.000 A 
ATOM      5  C   UNL     1       2.415   5.903  18.388  0.00  0.00    +0.000 A 
ATOM      6  C   UNL     1       2.262   4.518  18.411  0.00  0.00    +0.000 A 
ATOM      7  C   UNL     1       3.221   3.701  17.813  0.00  0.00    +0.000 A 
ATOM      8  C   UNL     1       4.322   4.274  17.178  0.00  0.00    +0.000 A 
BRANCH   8   9
ATOM      9  O   UNL     1       5.258   3.446  16.624  0.00  0.00    +0.000 OA
ATOM     10  H   UNL     1       4.904   3.021  15.823  0.00  0.00    +0.000 HD
ENDBRANCH   8   9
ENDBRANCH   2   3
BRANCH   2  11
ATOM     11  C   UNL     1       6.644   6.996  17.173  0.00  0.00    +0.000 A 
ATOM     12  N   UNL     1       7.034   8.305  17.030  0.00  0.00    +0.000 N 
ATOM     13  N   UNL     1       8.043   8.677  17.840  0.00  0.00    +0.000 NA
ATOM     14  C   UNL     1       8.292   7.574  18.551  0.00  0.00    +0.000 A 
ATOM     15  C   UNL     1       7.442   6.514  18.192  0.00  0.00    +0.000 A 
ATOM     16  H   UNL     1       6.680   8.987  16.366  0.00  0.00    +0.000 HD
BRANCH  15  17
ATOM     17  N   UNL     1       7.459   5.200  18.733  0.00  0.00    +0.000 N 
ATOM     18  O   UNL     1       6.954   5.047  19.851  0.00  0.00    +0.000 OA
ATOM     19  O   UNL     1       7.906   4.311  17.997  0.00  0.00    +0.000 OA
ENDBRANCH  15  17
ENDBRANCH   2  11
TORSDOF 4
ENDMDL
MODEL 9
REMARK VINA RESULT:      -7.1      1.774      2.214
REMARK  Name = 
REMARK  4 active torsions:
REMARK  status: ('A' for Active; 'I' for Inactive)
REMARK    1  A    between atoms: C_2  and  C_3
REMARK    2  A    between atoms: C_2  and  C_10
REMARK    3  A    between atoms: C_8  and  O_9
REMARK    4  A    between atoms: C_14  and  N_15
REMARK                            x       y       z     vdW  Elec       q    Type
REMARK                         _______ _______ _______ _____ _____    ______ ____
ROOT
ATOM      1  O   UNL     1       3.762   5.895  19.541  0.00  0.00    +0.000 OA
ATOM      2  C   UNL     1       3.819   4.905  18.818  0.00  0.00    +0.000 C 
ENDROOT
BRANCH   2   3
ATOM      3  C   UNL     1       5.012   4.746  17.934  0.00  0.00    +0.000 A 
ATOM      4  C   UNL     1       4.798   4.461  16.578  0.00  0.00    +0.000 A 
ATOM      5  C   UNL     1       5.874   4.339  15.698  0.00  0.00    +0.000 A 
ATOM      6  C   UNL     1       7.178   4.494  16.166  0.00  0.00    +0.000 A 
ATOM      7  C   UNL     1       7.409   4.748  17.517  0.00  0.00    +0.000 A 
ATOM      8  C   UNL     1       6.333   4.864  18.395  0.00  0.00    +0.000 A 
BRANCH   8   9
ATOM      9  O   UNL     1       6.593   5.088  19.718  0.00  0.00    +0.000 OA
ATOM     10  H   UNL     1       6.750   6.035  19.878  0.00  0.00    +0.000 HD
ENDBRANCH   8   9
ENDBRANCH   2   3
BRANCH   2  11
ATOM     11  C   UNL     1       2.809   3.874  18.866  0.00  0.00    +0.000 A 
ATOM     12  N   UNL     1       1.725   3.777  18.029  0.00  0.00    +0.000 N 
ATOM     13  N   UNL     1       0.911   2.737  18.291  0.00  0.00    +0.000 NA
ATOM     14  C   UNL     1       1.510   2.126  19.316  0.00  0.00    +0.000 A 
ATOM     15  C   UNL     1       2.695   2.776  19.696  0.00  0.00    +0.000 A 
ATOM     16  H   UNL     1       1.459   4.414  17.284  0.00  0.00    +0.000 HD
BRANCH  15  17
ATOM     17  N   UNL     1       3.556   2.403  20.764  0.00  0.00    +0.000 N 
ATOM     18  O   UNL     1       3.065   2.374  21.898  0.00  0.00    +0.000 OA
ATOM     19  O   UNL     1       4.702   2.058  20.447  0.00  0.00    +0.000 OA
ENDBRANCH  15  17
ENDBRANCH   2  11
TORSDOF 4
ENDMDL
