MODEL 1
REMARK VINA RESULT:      -7.0      0.000      0.000
REMARK  Name = 
REMARK  18 active torsions:
REMARK  status: ('A' for Active; 'I' for Inactive)
REMARK    1  A    between atoms: C_1  and  S_2
REMARK    2  A    between atoms: S_2  and  C_3
REMARK    3  A    between atoms: C_5  and  C_6
REMARK    4  A    between atoms: C_6  and  O_8
REMARK    5  A    between atoms: C_10  and  C_12
REMARK    6  A    between atoms: C_12  and  C_13
REMARK    7  A    between atoms: C_12  and  O_18
REMARK    8  A    between atoms: C_13  and  C_14
REMARK    9  A    between atoms: C_14  and  C_15
REMARK   10  A    between atoms: C_15  and  C_16
REMARK   11  A    between atoms: C_16  and  N_17
REMARK   12  A    between atoms: O_18  and  P_19
REMARK   13  A    between atoms: P_19  and  O_21
REMARK   14  A    between atoms: P_19  and  C_22
REMARK   15  A    between atoms: C_22  and  C_23
REMARK   16  A    between atoms: C_23  and  C_24
REMARK   17  A    between atoms: C_24  and  C_25
REMARK   18  A    between atoms: C_25  and  C_26
REMARK                            x       y       z     vdW  Elec       q    Type
REMARK                         _______ _______ _______ _____ _____    ______ ____
ROOT
ATOM      1  C   UNL     1       2.718   5.505  17.796  0.00  0.00    +0.000 C 
ENDROOT
BRANCH   1   6
ATOM      2  C   UNL     1       1.330   9.756  17.906  0.00  0.00    +0.000 C 
ATOM      3  C   UNL     1       0.703   9.636  19.293  0.00  0.00    +0.000 C 
ATOM      4  C   UNL     1       1.654   8.688  20.054  0.00  0.00    +0.000 C 
ATOM      5  N   UNL     1       1.914   7.685  18.969  0.00  0.00    +0.000 N 
ATOM      6  C   UNL     1       2.397   6.386  19.120  0.00  0.00    +0.000 C 
ATOM      7  O   UNL     1       2.444   5.922  20.269  0.00  0.00    +0.000 OA
ATOM      8  C   UNL     1       2.084   8.429  17.726  0.00  0.00    +0.000 C 
BRANCH   4   9
ATOM      9  C   UNL     1       1.002   8.520  21.442  0.00  0.00    +0.000 C 
ATOM     10  O   UNL     1       1.610   8.708  22.483  0.00  0.00    +0.000 OA
BRANCH   9  11
ATOM     11  O   UNL     1      -0.267   8.103  21.461  0.00  0.00    +0.000 OA
ATOM     12  H   UNL     1      -0.906   8.855  21.602  0.00  0.00    +0.000 HD
ENDBRANCH   9  11
ENDBRANCH   4   9
BRANCH   2  14
ATOM     13  C   UNL     1       1.296  12.385  18.781  0.00  0.00    +0.000 C 
ATOM     14  S   UNL     1       2.384  11.254  17.890  0.00  0.00    +0.000 S 
ENDBRANCH   2  14
ENDBRANCH   1   6
BRANCH   1  15
ATOM     15  C   UNL     1       1.897   4.212  17.757  0.00  0.00    +0.000 C 
BRANCH  15  16
ATOM     16  C   UNL     1       1.351   3.619  19.048  0.00  0.00    +0.000 C 
BRANCH  16  17
ATOM     17  C   UNL     1       2.188   2.361  19.350  0.00  0.00    +0.000 C 
BRANCH  17  18
ATOM     18  C   UNL     1       3.331   2.571  20.333  0.00  0.00    +0.000 C 
BRANCH  18  19
ATOM     19  N   UNL     1       4.622   2.491  19.668  0.00  0.00    +0.000 NA
ATOM     20  H   UNL     1       4.489   2.345  18.667  0.00  0.00    +0.000 HD
ATOM     21  H   UNL     1       5.131   1.677  20.008  0.00  0.00    +0.000 HD
ENDBRANCH  18  19
ENDBRANCH  17  18
ENDBRANCH  16  17
ENDBRANCH  15  16
ENDBRANCH   1  15
BRANCH   1  22
ATOM     22  O   UNL     1       4.018   4.934  17.715  0.00  0.00    +0.000 OA
BRANCH  22  23
ATOM     23  P   UNL     1       5.424   5.485  18.238  0.00  0.00    +0.000 P 
ATOM     24  O   UNL     1       5.572   5.388  19.725  0.00  0.00    +0.000 OA
BRANCH  23  25
ATOM     25  O   UNL     1       6.292   4.293  17.558  0.00  0.00    +0.000 OA
ATOM     26  H   UNL     1       5.892   3.940  16.746  0.00  0.00    +0.000 HD
ENDBRANCH  23  25
BRANCH  23  27
ATOM     27  C   UNL     1       6.338   6.825  17.448  0.00  0.00    +0.000 C 
BRANCH  27  28
ATOM     28  C   UNL     1       7.779   7.288  17.621  0.00  0.00    +0.000 C 
BRANCH  28  29
ATOM     29  C   UNL     1       7.913   8.855  17.696  0.00  0.00    +0.000 C 
BRANCH  29  30
ATOM     30  C   UNL     1       8.879   9.411  18.766  0.00  0.00    +0.000 C 
BRANCH  30  31
ATOM     31  C   UNL     1       9.378  10.822  18.483  0.00  0.00    +0.000 A 
ATOM     32  C   UNL     1       8.543  11.770  17.871  0.00  0.00    +0.000 A 
ATOM     33  C   UNL     1       8.992  13.076  17.639  0.00  0.00    +0.000 A 
ATOM     34  C   UNL     1      10.273  13.458  18.020  0.00  0.00    +0.000 A 
ATOM     35  C   UNL     1      11.115  12.530  18.630  0.00  0.00    +0.000 A 
ATOM     36  C   UNL     1      10.670  11.224  18.856  0.00  0.00    +0.000 A 
ENDBRANCH  30  31
ENDBRANCH  29  30
ENDBRANCH  28  29
ENDBRANCH  27  28
ENDBRANCH  23  27
ENDBRANCH  22  23
ENDBRANCH   1  22
TORSDOF 17
ENDMDL
MODEL 2
REMARK VINA RESULT:      -7.0      0.994      1.504
REMARK  Name = 
REMARK  18 active torsions:
REMARK  status: ('A' for Active; 'I' for Inactive)
REMARK    1  A    between atoms: C_1  and  S_2
REMARK    2  A    between atoms: S_2  and  C_3
REMARK    3  A    between atoms: C_5  and  C_6
REMARK    4  A    between atoms: C_6  and  O_8
REMARK    5  A    between atoms: C_10  and  C_12
REMARK    6  A    between atoms: C_12  and  C_13
REMARK    7  A    between atoms: C_12  and  O_18
REMARK    8  A    between atoms: C_13  and  C_14
REMARK    9  A    between atoms: C_14  and  C_15
REMARK   10  A    between atoms: C_15  and  C_16
REMARK   11  A    between atoms: C_16  and  N_17
REMARK   12  A    between atoms: O_18  and  P_19
REMARK   13  A    between atoms: P_19  and  O_21
REMARK   14  A    between atoms: P_19  and  C_22
REMARK   15  A    between atoms: C_22  and  C_23
REMARK   16  A    between atoms: C_23  and  C_24
REMARK   17  A    between atoms: C_24  and  C_25
REMARK   18  A    between atoms: C_25  and  C_26
REMARK                            x       y       z     vdW  Elec       q    Type
REMARK                         _______ _______ _______ _____ _____    ______ ____
ROOT
ATOM      1  C   UNL     1       2.614   5.770  18.053  0.00  0.00    +0.000 C 
ENDROOT
BRANCH   1   6
ATOM      2  C   UNL     1       1.240  10.028  18.082  0.00  0.00    +0.000 C 
ATOM      3  C   UNL     1       0.627   9.941  19.477  0.00  0.00    +0.000 C 
ATOM      4  C   UNL     1       1.583   9.006  20.250  0.00  0.00    +0.000 C 
ATOM      5  N   UNL     1       1.829   7.979  19.185  0.00  0.00    +0.000 N 
ATOM      6  C   UNL     1       2.310   6.682  19.360  0.00  0.00    +0.000 C 
ATOM      7  O   UNL     1       2.367   6.243  20.519  0.00  0.00    +0.000 OA
ATOM      8  C   UNL     1       1.989   8.694  17.924  0.00  0.00    +0.000 C 
BRANCH   4   9
ATOM      9  C   UNL     1       0.944   8.872  21.648  0.00  0.00    +0.000 C 
ATOM     10  O   UNL     1      -0.231   8.586  21.811  0.00  0.00    +0.000 OA
BRANCH   9  11
ATOM     11  O   UNL     1       1.731   9.138  22.694  0.00  0.00    +0.000 OA
ATOM     12  H   UNL     1       1.878   8.333  23.265  0.00  0.00    +0.000 HD
ENDBRANCH   9  11
ENDBRANCH   4   9
BRANCH   2  14
ATOM     13  C   UNL     1       1.330  12.607  19.089  0.00  0.00    +0.000 C 
ATOM     14  S   UNL     1       2.299  11.521  18.021  0.00  0.00    +0.000 S 
ENDBRANCH   2  14
ENDBRANCH   1   6
BRANCH   1  15
ATOM     15  C   UNL     1       1.683   4.556  17.973  0.00  0.00    +0.000 C 
BRANCH  15  16
ATOM     16  C   UNL     1       1.291   3.814  19.242  0.00  0.00    +0.000 C 
BRANCH  16  17
ATOM     17  C   UNL     1       2.205   2.577  19.336  0.00  0.00    +0.000 C 
BRANCH  17  18
ATOM     18  C   UNL     1       2.605   1.971  17.997  0.00  0.00    +0.000 C 
BRANCH  18  19
ATOM     19  N   UNL     1       4.050   1.961  17.831  0.00  0.00    +0.000 NA
ATOM     20  H   UNL     1       4.488   2.518  18.566  0.00  0.00    +0.000 HD
ATOM     21  H   UNL     1       4.294   2.412  16.951  0.00  0.00    +0.000 HD
ENDBRANCH  18  19
ENDBRANCH  17  18
ENDBRANCH  16  17
ENDBRANCH  15  16
ENDBRANCH   1  15
BRANCH   1  22
ATOM     22  O   UNL     1       3.860   5.084  18.037  0.00  0.00    +0.000 OA
BRANCH  22  23
ATOM     23  P   UNL     1       5.241   5.464  17.329  0.00  0.00    +0.000 P 
ATOM     24  O   UNL     1       5.807   4.343  16.513  0.00  0.00    +0.000 OA
BRANCH  23  25
ATOM     25  O   UNL     1       4.577   6.548  16.319  0.00  0.00    +0.000 OA
ATOM     26  H   UNL     1       5.211   6.923  15.685  0.00  0.00    +0.000 HD
ENDBRANCH  23  25
BRANCH  23  27
ATOM     27  C   UNL     1       6.449   6.609  18.027  0.00  0.00    +0.000 C 
BRANCH  27  28
ATOM     28  C   UNL     1       7.724   7.197  17.436  0.00  0.00    +0.000 C 
BRANCH  28  29
ATOM     29  C   UNL     1       8.443   8.203  18.411  0.00  0.00    +0.000 C 
BRANCH  29  30
ATOM     30  C   UNL     1       8.287   9.706  18.085  0.00  0.00    +0.000 C 
BRANCH  30  31
ATOM     31  C   UNL     1       9.348  10.595  18.719  0.00  0.00    +0.000 A 
ATOM     32  C   UNL     1      10.304  11.250  17.926  0.00  0.00    +0.000 A 
ATOM     33  C   UNL     1      11.260  12.092  18.507  0.00  0.00    +0.000 A 
ATOM     34  C   UNL     1      11.274  12.300  19.882  0.00  0.00    +0.000 A 
ATOM     35  C   UNL     1      10.331  11.658  20.683  0.00  0.00    +0.000 A 
ATOM     36  C   UNL     1       9.379  10.812  20.105  0.00  0.00    +0.000 A 
ENDBRANCH  30  31
ENDBRANCH  29  30
ENDBRANCH  28  29
ENDBRANCH  27  28
ENDBRANCH  23  27
ENDBRANCH  22  23
ENDBRANCH   1  22
TORSDOF 17
ENDMDL
MODEL 3
REMARK VINA RESULT:      -6.8      3.033      4.323
REMARK  Name = 
REMARK  18 active torsions:
REMARK  status: ('A' for Active; 'I' for Inactive)
REMARK    1  A    between atoms: C_1  and  S_2
REMARK    2  A    between atoms: S_2  and  C_3
REMARK    3  A    between atoms: C_5  and  C_6
REMARK    4  A    between atoms: C_6  and  O_8
REMARK    5  A    between atoms: C_10  and  C_12
REMARK    6  A    between atoms: C_12  and  C_13
REMARK    7  A    between atoms: C_12  and  O_18
REMARK    8  A    between atoms: C_13  and  C_14
REMARK    9  A    between atoms: C_14  and  C_15
REMARK   10  A    between atoms: C_15  and  C_16
REMARK   11  A    between atoms: C_16  and  N_17
REMARK   12  A    between atoms: O_18  and  P_19
REMARK   13  A    between atoms: P_19  and  O_21
REMARK   14  A    between atoms: P_19  and  C_22
REMARK   15  A    between atoms: C_22  and  C_23
REMARK   16  A    between atoms: C_23  and  C_24
REMARK   17  A    between atoms: C_24  and  C_25
REMARK   18  A    between atoms: C_25  and  C_26
REMARK                            x       y       z     vdW  Elec       q    Type
REMARK                         _______ _______ _______ _____ _____    ______ ____
ROOT
ATOM      1  C   UNL     1       5.045   4.652  17.556  0.00  0.00    +0.000 C 
ENDROOT
BRANCH   1   6
ATOM      2  C   UNL     1       1.545   6.227  19.856  0.00  0.00    +0.000 C 
ATOM      3  C   UNL     1       1.295   4.916  20.596  0.00  0.00    +0.000 C 
ATOM      4  C   UNL     1       2.710   4.350  20.846  0.00  0.00    +0.000 C 
ATOM      5  N   UNL     1       3.331   4.660  19.516  0.00  0.00    +0.000 N 
ATOM      6  C   UNL     1       4.475   4.084  18.965  0.00  0.00    +0.000 C 
ATOM      7  O   UNL     1       4.935   3.076  19.523  0.00  0.00    +0.000 OA
ATOM      8  C   UNL     1       2.879   5.992  19.129  0.00  0.00    +0.000 C 
BRANCH   4   9
ATOM      9  C   UNL     1       2.466   3.000  21.550  0.00  0.00    +0.000 C 
ATOM     10  O   UNL     1       1.374   2.672  21.987  0.00  0.00    +0.000 OA
BRANCH   9  11
ATOM     11  O   UNL     1       3.529   2.208  21.713  0.00  0.00    +0.000 OA
ATOM     12  H   UNL     1       3.268   1.278  21.961  0.00  0.00    +0.000 HD
ENDBRANCH   9  11
ENDBRANCH   4   9
BRANCH   2  14
ATOM     13  C   UNL     1       1.181   8.969  20.005  0.00  0.00    +0.000 C 
ATOM     14  S   UNL     1       1.564   7.580  21.091  0.00  0.00    +0.000 S 
ENDBRANCH   2  14
ENDBRANCH   1   6
BRANCH   1  15
ATOM     15  C   UNL     1       5.070   3.571  16.472  0.00  0.00    +0.000 C 
BRANCH  15  16
ATOM     16  C   UNL     1       6.182   3.561  15.433  0.00  0.00    +0.000 C 
BRANCH  16  17
ATOM     17  C   UNL     1       5.569   4.078  14.118  0.00  0.00    +0.000 C 
BRANCH  17  18
ATOM     18  C   UNL     1       6.425   3.856  12.879  0.00  0.00    +0.000 C 
BRANCH  18  19
ATOM     19  N   UNL     1       6.023   2.653  12.167  0.00  0.00    +0.000 NA
ATOM     20  H   UNL     1       6.424   1.831  12.621  0.00  0.00    +0.000 HD
ATOM     21  H   UNL     1       6.407   2.671  11.224  0.00  0.00    +0.000 HD
ENDBRANCH  18  19
ENDBRANCH  17  18
ENDBRANCH  16  17
ENDBRANCH  15  16
ENDBRANCH   1  15
BRANCH   1  22
ATOM     22  O   UNL     1       6.420   5.013  17.529  0.00  0.00    +0.000 OA
BRANCH  22  23
ATOM     23  P   UNL     1       7.131   6.345  17.005  0.00  0.00    +0.000 P 
ATOM     24  O   UNL     1       7.789   6.168  15.672  0.00  0.00    +0.000 OA
BRANCH  23  25
ATOM     25  O   UNL     1       5.742   7.157  16.787  0.00  0.00    +0.000 OA
ATOM     26  H   UNL     1       5.288   6.929  15.958  0.00  0.00    +0.000 HD
ENDBRANCH  23  25
BRANCH  23  27
ATOM     27  C   UNL     1       7.877   7.581  18.087  0.00  0.00    +0.000 C 
BRANCH  27  28
ATOM     28  C   UNL     1       8.148   9.065  17.868  0.00  0.00    +0.000 C 
BRANCH  28  29
ATOM     29  C   UNL     1       9.004   9.706  19.023  0.00  0.00    +0.000 C 
BRANCH  29  30
ATOM     30  C   UNL     1       9.833  10.957  18.651  0.00  0.00    +0.000 C 
BRANCH  30  31
ATOM     31  C   UNL     1       9.882  12.019  19.741  0.00  0.00    +0.000 A 
ATOM     32  C   UNL     1      10.427  13.287  19.484  0.00  0.00    +0.000 A 
ATOM     33  C   UNL     1      10.444  14.274  20.478  0.00  0.00    +0.000 A 
ATOM     34  C   UNL     1       9.913  14.015  21.736  0.00  0.00    +0.000 A 
ATOM     35  C   UNL     1       9.367  12.762  22.008  0.00  0.00    +0.000 A 
ATOM     36  C   UNL     1       9.355  11.774  21.018  0.00  0.00    +0.000 A 
ENDBRANCH  30  31
ENDBRANCH  29  30
ENDBRANCH  28  29
ENDBRANCH  27  28
ENDBRANCH  23  27
ENDBRANCH  22  23
ENDBRANCH   1  22
TORSDOF 17
ENDMDL
MODEL 4
REMARK VINA RESULT:      -6.8      2.978      4.673
REMARK  Name = 
REMARK  18 active torsions:
REMARK  status: ('A' for Active; 'I' for Inactive)
REMARK    1  A    between atoms: C_1  and  S_2
REMARK    2  A    between atoms: S_2  and  C_3
REMARK    3  A    between atoms: C_5  and  C_6
REMARK    4  A    between atoms: C_6  and  O_8
REMARK    5  A    between atoms: C_10  and  C_12
REMARK    6  A    between atoms: C_12  and  C_13
REMARK    7  A    between atoms: C_12  and  O_18
REMARK    8  A    between atoms: C_13  and  C_14
REMARK    9  A    between atoms: C_14  and  C_15
REMARK   10  A    between atoms: C_15  and  C_16
REMARK   11  A    between atoms: C_16  and  N_17
REMARK   12  A    between atoms: O_18  and  P_19
REMARK   13  A    between atoms: P_19  and  O_21
REMARK   14  A    between atoms: P_19  and  C_22
REMARK   15  A    between atoms: C_22  and  C_23
REMARK   16  A    between atoms: C_23  and  C_24
REMARK   17  A    between atoms: C_24  and  C_25
REMARK   18  A    between atoms: C_25  and  C_26
REMARK                            x       y       z     vdW  Elec       q    Type
REMARK                         _______ _______ _______ _____ _____    ______ ____
ROOT
ATOM      1  C   UNL     1       5.211   5.199  16.165  0.00  0.00    +0.000 C 
ENDROOT
BRANCH   1   6
ATOM      2  C   UNL     1       1.852   6.066  18.990  0.00  0.00    +0.000 C 
ATOM      3  C   UNL     1       1.204   4.694  18.823  0.00  0.00    +0.000 C 
ATOM      4  C   UNL     1       2.401   3.730  18.677  0.00  0.00    +0.000 C 
ATOM      5  N   UNL     1       3.269   4.557  17.776  0.00  0.00    +0.000 N 
ATOM      6  C   UNL     1       4.323   4.112  16.978  0.00  0.00    +0.000 C 
ATOM      7  O   UNL     1       4.454   2.887  16.834  0.00  0.00    +0.000 OA
ATOM      8  C   UNL     1       3.193   5.934  18.249  0.00  0.00    +0.000 C 
BRANCH   4   9
ATOM      9  C   UNL     1       1.756   2.346  18.457  0.00  0.00    +0.000 C 
ATOM     10  O   UNL     1       0.547   2.183  18.405  0.00  0.00    +0.000 OA
BRANCH   9  11
ATOM     11  O   UNL     1       2.587   1.303  18.376  0.00  0.00    +0.000 OA
ATOM     12  H   UNL     1       3.516   1.582  18.146  0.00  0.00    +0.000 HD
ENDBRANCH   9  11
ENDBRANCH   4   9
BRANCH   2  14
ATOM     13  C   UNL     1       1.401   8.118  20.797  0.00  0.00    +0.000 C 
ATOM     14  S   UNL     1       1.990   6.412  20.784  0.00  0.00    +0.000 S 
ENDBRANCH   2  14
ENDBRANCH   1   6
BRANCH   1  15
ATOM     15  C   UNL     1       5.565   4.710  14.757  0.00  0.00    +0.000 C 
BRANCH  15  16
ATOM     16  C   UNL     1       6.976   4.895  14.220  0.00  0.00    +0.000 C 
BRANCH  16  17
ATOM     17  C   UNL     1       7.016   4.231  12.831  0.00  0.00    +0.000 C 
BRANCH  17  18
ATOM     18  C   UNL     1       5.849   3.300  12.530  0.00  0.00    +0.000 C 
BRANCH  18  19
ATOM     19  N   UNL     1       6.279   2.146  11.756  0.00  0.00    +0.000 NA
ATOM     20  H   UNL     1       7.180   1.812  12.101  0.00  0.00    +0.000 HD
ATOM     21  H   UNL     1       6.430   2.423  10.788  0.00  0.00    +0.000 HD
ENDBRANCH  18  19
ENDBRANCH  17  18
ENDBRANCH  16  17
ENDBRANCH  15  16
ENDBRANCH   1  15
BRANCH   1  22
ATOM     22  O   UNL     1       6.529   5.428  16.648  0.00  0.00    +0.000 OA
BRANCH  22  23
ATOM     23  P   UNL     1       7.164   5.156  18.090  0.00  0.00    +0.000 P 
ATOM     24  O   UNL     1       6.210   4.489  19.031  0.00  0.00    +0.000 OA
BRANCH  23  25
ATOM     25  O   UNL     1       8.221   4.043  17.559  0.00  0.00    +0.000 OA
ATOM     26  H   UNL     1       9.090   4.415  17.331  0.00  0.00    +0.000 HD
ENDBRANCH  23  25
BRANCH  23  27
ATOM     27  C   UNL     1       8.409   6.213  18.857  0.00  0.00    +0.000 C 
BRANCH  27  28
ATOM     28  C   UNL     1       8.445   7.722  19.067  0.00  0.00    +0.000 C 
BRANCH  28  29
ATOM     29  C   UNL     1       8.152   8.529  17.746  0.00  0.00    +0.000 C 
BRANCH  29  30
ATOM     30  C   UNL     1       8.044  10.064  17.890  0.00  0.00    +0.000 C 
BRANCH  30  31
ATOM     31  C   UNL     1       9.255  10.716  18.544  0.00  0.00    +0.000 A 
ATOM     32  C   UNL     1       9.292  10.934  19.931  0.00  0.00    +0.000 A 
ATOM     33  C   UNL     1      10.419  11.504  20.536  0.00  0.00    +0.000 A 
ATOM     34  C   UNL     1      11.525  11.859  19.773  0.00  0.00    +0.000 A 
ATOM     35  C   UNL     1      11.505  11.648  18.395  0.00  0.00    +0.000 A 
ATOM     36  C   UNL     1      10.379  11.084  17.788  0.00  0.00    +0.000 A 
ENDBRANCH  30  31
ENDBRANCH  29  30
ENDBRANCH  28  29
ENDBRANCH  27  28
ENDBRANCH  23  27
ENDBRANCH  22  23
ENDBRANCH   1  22
TORSDOF 17
ENDMDL
MODEL 5
REMARK VINA RESULT:      -6.7      3.076      4.432
REMARK  Name = 
REMARK  18 active torsions:
REMARK  status: ('A' for Active; 'I' for Inactive)
REMARK    1  A    between atoms: C_1  and  S_2
REMARK    2  A    between atoms: S_2  and  C_3
REMARK    3  A    between atoms: C_5  and  C_6
REMARK    4  A    between atoms: C_6  and  O_8
REMARK    5  A    between atoms: C_10  and  C_12
REMARK    6  A    between atoms: C_12  and  C_13
REMARK    7  A    between atoms: C_12  and  O_18
REMARK    8  A    between atoms: C_13  and  C_14
REMARK    9  A    between atoms: C_14  and  C_15
REMARK   10  A    between atoms: C_15  and  C_16
REMARK   11  A    between atoms: C_16  and  N_17
REMARK   12  A    between atoms: O_18  and  P_19
REMARK   13  A    between atoms: P_19  and  O_21
REMARK   14  A    between atoms: P_19  and  C_22
REMARK   15  A    between atoms: C_22  and  C_23
REMARK   16  A    between atoms: C_23  and  C_24
REMARK   17  A    between atoms: C_24  and  C_25
REMARK   18  A    between atoms: C_25  and  C_26
REMARK                            x       y       z     vdW  Elec       q    Type
REMARK                         _______ _______ _______ _____ _____    ______ ____
ROOT
ATOM      1  C   UNL     1       5.867   5.558  16.375  0.00  0.00    +0.000 C 
ENDROOT
BRANCH   1   6
ATOM      2  C   UNL     1       2.818   4.722  19.541  0.00  0.00    +0.000 C 
ATOM      3  C   UNL     1       2.410   6.184  19.695  0.00  0.00    +0.000 C 
ATOM      4  C   UNL     1       2.494   6.751  18.261  0.00  0.00    +0.000 C 
ATOM      5  N   UNL     1       3.768   6.097  17.818  0.00  0.00    +0.000 N 
ATOM      6  C   UNL     1       4.588   6.480  16.757  0.00  0.00    +0.000 C 
ATOM      7  O   UNL     1       4.367   7.581  16.231  0.00  0.00    +0.000 OA
ATOM      8  C   UNL     1       3.744   4.725  18.313  0.00  0.00    +0.000 C 
BRANCH   4   9
ATOM      9  C   UNL     1       2.130   8.242  18.415  0.00  0.00    +0.000 C 
ATOM     10  O   UNL     1       1.682   8.709  19.451  0.00  0.00    +0.000 OA
BRANCH   9  11
ATOM     11  O   UNL     1       2.279   9.010  17.332  0.00  0.00    +0.000 OA
ATOM     12  H   UNL     1       3.047   9.640  17.422  0.00  0.00    +0.000 HD
ENDBRANCH   9  11
ENDBRANCH   4   9
BRANCH   2  14
ATOM     13  C   UNL     1       1.316   2.864  20.943  0.00  0.00    +0.000 C 
ATOM     14  S   UNL     1       1.293   3.724  19.357  0.00  0.00    +0.000 S 
ENDBRANCH   2  14
ENDBRANCH   1   6
BRANCH   1  15
ATOM     15  C   UNL     1       5.451   4.287  15.627  0.00  0.00    +0.000 C 
BRANCH  15  16
ATOM     16  C   UNL     1       5.180   4.339  14.131  0.00  0.00    +0.000 C 
BRANCH  16  17
ATOM     17  C   UNL     1       6.375   3.658  13.436  0.00  0.00    +0.000 C 
BRANCH  17  18
ATOM     18  C   UNL     1       6.154   3.313  11.970  0.00  0.00    +0.000 C 
BRANCH  18  19
ATOM     19  N   UNL     1       4.746   3.092  11.684  0.00  0.00    +0.000 NA
ATOM     20  H   UNL     1       4.614   2.933  10.685  0.00  0.00    +0.000 HD
ATOM     21  H   UNL     1       4.217   3.933  11.909  0.00  0.00    +0.000 HD
ENDBRANCH  18  19
ENDBRANCH  17  18
ENDBRANCH  16  17
ENDBRANCH  15  16
ENDBRANCH   1  15
BRANCH   1  22
ATOM     22  O   UNL     1       6.555   4.950  17.461  0.00  0.00    +0.000 OA
BRANCH  22  23
ATOM     23  P   UNL     1       7.262   5.607  18.735  0.00  0.00    +0.000 P 
ATOM     24  O   UNL     1       6.553   5.301  20.018  0.00  0.00    +0.000 OA
BRANCH  23  25
ATOM     25  O   UNL     1       8.586   4.671  18.647  0.00  0.00    +0.000 OA
ATOM     26  H   UNL     1       8.883   4.342  19.511  0.00  0.00    +0.000 HD
ENDBRANCH  23  25
BRANCH  23  27
ATOM     27  C   UNL     1       8.163   7.170  18.694  0.00  0.00    +0.000 C 
BRANCH  27  28
ATOM     28  C   UNL     1       8.231   8.254  17.625  0.00  0.00    +0.000 C 
BRANCH  28  29
ATOM     29  C   UNL     1       8.203   9.709  18.227  0.00  0.00    +0.000 C 
BRANCH  29  30
ATOM     30  C   UNL     1       9.479  10.170  18.968  0.00  0.00    +0.000 C 
BRANCH  30  31
ATOM     31  C   UNL     1      10.054  11.484  18.459  0.00  0.00    +0.000 A 
ATOM     32  C   UNL     1      11.413  11.591  18.120  0.00  0.00    +0.000 A 
ATOM     33  C   UNL     1      11.935  12.791  17.623  0.00  0.00    +0.000 A 
ATOM     34  C   UNL     1      11.112  13.898  17.449  0.00  0.00    +0.000 A 
ATOM     35  C   UNL     1       9.761  13.810  17.779  0.00  0.00    +0.000 A 
ATOM     36  C   UNL     1       9.239  12.614  18.282  0.00  0.00    +0.000 A 
ENDBRANCH  30  31
ENDBRANCH  29  30
ENDBRANCH  28  29
ENDBRANCH  27  28
ENDBRANCH  23  27
ENDBRANCH  22  23
ENDBRANCH   1  22
TORSDOF 17
ENDMDL
MODEL 6
REMARK VINA RESULT:      -6.7      0.818      1.211
REMARK  Name = 
REMARK  18 active torsions:
REMARK  status: ('A' for Active; 'I' for Inactive)
REMARK    1  A    between atoms: C_1  and  S_2
REMARK    2  A    between atoms: S_2  and  C_3
REMARK    3  A    between atoms: C_5  and  C_6
REMARK    4  A    between atoms: C_6  and  O_8
REMARK    5  A    between atoms: C_10  and  C_12
REMARK    6  A    between atoms: C_12  and  C_13
REMARK    7  A    between atoms: C_12  and  O_18
REMARK    8  A    between atoms: C_13  and  C_14
REMARK    9  A    between atoms: C_14  and  C_15
REMARK   10  A    between atoms: C_15  and  C_16
REMARK   11  A    between atoms: C_16  and  N_17
REMARK   12  A    between atoms: O_18  and  P_19
REMARK   13  A    between atoms: P_19  and  O_21
REMARK   14  A    between atoms: P_19  and  C_22
REMARK   15  A    between atoms: C_22  and  C_23
REMARK   16  A    between atoms: C_23  and  C_24
REMARK   17  A    between atoms: C_24  and  C_25
REMARK   18  A    between atoms: C_25  and  C_26
REMARK                            x       y       z     vdW  Elec       q    Type
REMARK                         _______ _______ _______ _____ _____    ______ ____
ROOT
ATOM      1  C   UNL     1       2.287   5.769  17.890  0.00  0.00    +0.000 C 
ENDROOT
BRANCH   1   6
ATOM      2  C   UNL     1       1.169  10.091  18.180  0.00  0.00    +0.000 C 
ATOM      3  C   UNL     1       0.700   9.991  19.629  0.00  0.00    +0.000 C 
ATOM      4  C   UNL     1       1.677   8.982  20.271  0.00  0.00    +0.000 C 
ATOM      5  N   UNL     1       1.751   7.978  19.159  0.00  0.00    +0.000 N 
ATOM      6  C   UNL     1       2.173   6.652  19.246  0.00  0.00    +0.000 C 
ATOM      7  O   UNL     1       2.325   6.173  20.380  0.00  0.00    +0.000 OA
ATOM      8  C   UNL     1       1.820   8.725  17.908  0.00  0.00    +0.000 C 
BRANCH   4   9
ATOM      9  C   UNL     1       1.180   8.836  21.724  0.00  0.00    +0.000 C 
ATOM     10  O   UNL     1       0.044   8.485  22.001  0.00  0.00    +0.000 OA
BRANCH   9  11
ATOM     11  O   UNL     1       2.043   9.166  22.688  0.00  0.00    +0.000 OA
ATOM     12  H   UNL     1       2.766   8.486  22.792  0.00  0.00    +0.000 HD
ENDBRANCH   9  11
ENDBRANCH   4   9
BRANCH   2  14
ATOM     13  C   UNL     1       1.265  12.783  18.829  0.00  0.00    +0.000 C 
ATOM     14  S   UNL     1       2.299  11.527  18.048  0.00  0.00    +0.000 S 
ENDBRANCH   2  14
ENDBRANCH   1   6
BRANCH   1  15
ATOM     15  C   UNL     1       1.871   4.312  18.119  0.00  0.00    +0.000 C 
BRANCH  15  16
ATOM     16  C   UNL     1       1.373   3.870  19.487  0.00  0.00    +0.000 C 
BRANCH  16  17
ATOM     17  C   UNL     1       2.246   2.675  19.915  0.00  0.00    +0.000 C 
BRANCH  17  18
ATOM     18  C   UNL     1       3.210   2.170  18.850  0.00  0.00    +0.000 C 
BRANCH  18  19
ATOM     19  N   UNL     1       4.593   2.327  19.270  0.00  0.00    +0.000 NA
ATOM     20  H   UNL     1       5.116   1.473  19.072  0.00  0.00    +0.000 HD
ATOM     21  H   UNL     1       4.629   2.453  20.281  0.00  0.00    +0.000 HD
ENDBRANCH  18  19
ENDBRANCH  17  18
ENDBRANCH  16  17
ENDBRANCH  15  16
ENDBRANCH   1  15
BRANCH   1  22
ATOM     22  O   UNL     1       3.600   5.539  17.394  0.00  0.00    +0.000 OA
BRANCH  22  23
ATOM     23  P   UNL     1       5.022   5.760  18.088  0.00  0.00    +0.000 P 
ATOM     24  O   UNL     1       5.053   5.302  19.513  0.00  0.00    +0.000 OA
BRANCH  23  25
ATOM     25  O   UNL     1       5.785   4.653  17.178  0.00  0.00    +0.000 OA
ATOM     26  H   UNL     1       6.733   4.836  17.062  0.00  0.00    +0.000 HD
ENDBRANCH  23  25
BRANCH  23  27
ATOM     27  C   UNL     1       6.144   7.113  17.678  0.00  0.00    +0.000 C 
BRANCH  27  28
ATOM     28  C   UNL     1       7.655   7.130  17.483  0.00  0.00    +0.000 C 
BRANCH  28  29
ATOM     29  C   UNL     1       8.377   8.187  18.401  0.00  0.00    +0.000 C 
BRANCH  29  30
ATOM     30  C   UNL     1       8.318   9.659  17.932  0.00  0.00    +0.000 C 
BRANCH  30  31
ATOM     31  C   UNL     1       9.326  10.572  18.616  0.00  0.00    +0.000 A 
ATOM     32  C   UNL     1       9.326  10.726  20.011  0.00  0.00    +0.000 A 
ATOM     33  C   UNL     1      10.273  11.542  20.642  0.00  0.00    +0.000 A 
ATOM     34  C   UNL     1      11.236  12.210  19.895  0.00  0.00    +0.000 A 
ATOM     35  C   UNL     1      11.251  12.068  18.508  0.00  0.00    +0.000 A 
ATOM     36  C   UNL     1      10.302  11.258  17.876  0.00  0.00    +0.000 A 
ENDBRANCH  30  31
ENDBRANCH  29  30
ENDBRANCH  28  29
ENDBRANCH  27  28
ENDBRANCH  23  27
ENDBRANCH  22  23
ENDBRANCH   1  22
TORSDOF 17
ENDMDL
MODEL 7
REMARK VINA RESULT:      -6.5      1.244      1.484
REMARK  Name = 
REMARK  18 active torsions:
REMARK  status: ('A' for Active; 'I' for Inactive)
REMARK    1  A    between atoms: C_1  and  S_2
REMARK    2  A    between atoms: S_2  and  C_3
REMARK    3  A    between atoms: C_5  and  C_6
REMARK    4  A    between atoms: C_6  and  O_8
REMARK    5  A    between atoms: C_10  and  C_12
REMARK    6  A    between atoms: C_12  and  C_13
REMARK    7  A    between atoms: C_12  and  O_18
REMARK    8  A    between atoms: C_13  and  C_14
REMARK    9  A    between atoms: C_14  and  C_15
REMARK   10  A    between atoms: C_15  and  C_16
REMARK   11  A    between atoms: C_16  and  N_17
REMARK   12  A    between atoms: O_18  and  P_19
REMARK   13  A    between atoms: P_19  and  O_21
REMARK   14  A    between atoms: P_19  and  C_22
REMARK   15  A    between atoms: C_22  and  C_23
REMARK   16  A    between atoms: C_23  and  C_24
REMARK   17  A    between atoms: C_24  and  C_25
REMARK   18  A    between atoms: C_25  and  C_26
REMARK                            x       y       z     vdW  Elec       q    Type
REMARK                         _______ _______ _______ _____ _____    ______ ____
ROOT
ATOM      1  C   UNL     1       2.827   6.768  17.864  0.00  0.00    +0.000 C 
ENDROOT
BRANCH   1   6
ATOM      2  C   UNL     1       0.623  10.619  18.436  0.00  0.00    +0.000 C 
ATOM      3  C   UNL     1      -0.032  10.183  19.744  0.00  0.00    +0.000 C 
ATOM      4  C   UNL     1       1.052   9.332  20.440  0.00  0.00    +0.000 C 
ATOM      5  N   UNL     1       1.555   8.564  19.254  0.00  0.00    +0.000 N 
ATOM      6  C   UNL     1       2.278   7.372  19.266  0.00  0.00    +0.000 C 
ATOM      7  O   UNL     1       2.362   6.764  20.344  0.00  0.00    +0.000 OA
ATOM      8  C   UNL     1       1.633   9.499  18.137  0.00  0.00    +0.000 C 
BRANCH   4   9
ATOM      9  C   UNL     1       0.381   8.845  21.742  0.00  0.00    +0.000 C 
ATOM     10  O   UNL     1       0.772   9.178  22.849  0.00  0.00    +0.000 OA
BRANCH   9  11
ATOM     11  O   UNL     1      -0.632   7.985  21.608  0.00  0.00    +0.000 OA
ATOM     12  H   UNL     1      -0.692   7.617  20.684  0.00  0.00    +0.000 HD
ENDBRANCH   9  11
ENDBRANCH   4   9
BRANCH   2  14
ATOM     13  C   UNL     1      -0.149  13.263  18.731  0.00  0.00    +0.000 C 
ATOM     14  S   UNL     1       1.361  12.276  18.696  0.00  0.00    +0.000 S 
ENDBRANCH   2  14
ENDBRANCH   1   6
BRANCH   1  15
ATOM     15  C   UNL     1       2.835   5.236  17.865  0.00  0.00    +0.000 C 
BRANCH  15  16
ATOM     16  C   UNL     1       1.543   4.469  17.627  0.00  0.00    +0.000 C 
BRANCH  16  17
ATOM     17  C   UNL     1       1.347   3.537  18.837  0.00  0.00    +0.000 C 
BRANCH  17  18
ATOM     18  C   UNL     1       2.447   2.502  19.036  0.00  0.00    +0.000 C 
BRANCH  18  19
ATOM     19  N   UNL     1       2.497   1.563  17.927  0.00  0.00    +0.000 NA
ATOM     20  H   UNL     1       1.632   1.615  17.388  0.00  0.00    +0.000 HD
ATOM     21  H   UNL     1       2.549   0.612  18.289  0.00  0.00    +0.000 HD
ENDBRANCH  18  19
ENDBRANCH  17  18
ENDBRANCH  16  17
ENDBRANCH  15  16
ENDBRANCH   1  15
BRANCH   1  22
ATOM     22  O   UNL     1       4.203   6.988  17.577  0.00  0.00    +0.000 OA
BRANCH  22  23
ATOM     23  P   UNL     1       5.497   6.163  18.022  0.00  0.00    +0.000 P 
ATOM     24  O   UNL     1       5.227   5.217  19.152  0.00  0.00    +0.000 OA
BRANCH  23  25
ATOM     25  O   UNL     1       5.585   5.305  16.646  0.00  0.00    +0.000 OA
ATOM     26  H   UNL     1       6.309   4.657  16.643  0.00  0.00    +0.000 HD
ENDBRANCH  23  25
BRANCH  23  27
ATOM     27  C   UNL     1       7.182   6.802  17.926  0.00  0.00    +0.000 C 
BRANCH  27  28
ATOM     28  C   UNL     1       7.711   8.154  17.462  0.00  0.00    +0.000 C 
BRANCH  28  29
ATOM     29  C   UNL     1       8.727   8.794  18.481  0.00  0.00    +0.000 C 
BRANCH  29  30
ATOM     30  C   UNL     1       8.545  10.300  18.778  0.00  0.00    +0.000 C 
BRANCH  30  31
ATOM     31  C   UNL     1       9.851  11.072  18.907  0.00  0.00    +0.000 A 
ATOM     32  C   UNL     1      10.599  11.415  17.769  0.00  0.00    +0.000 A 
ATOM     33  C   UNL     1      11.784  12.152  17.886  0.00  0.00    +0.000 A 
ATOM     34  C   UNL     1      12.236  12.564  19.134  0.00  0.00    +0.000 A 
ATOM     35  C   UNL     1      11.505  12.234  20.274  0.00  0.00    +0.000 A 
ATOM     36  C   UNL     1      10.325  11.493  20.159  0.00  0.00    +0.000 A 
ENDBRANCH  30  31
ENDBRANCH  29  30
ENDBRANCH  28  29
ENDBRANCH  27  28
ENDBRANCH  23  27
ENDBRANCH  22  23
ENDBRANCH   1  22
TORSDOF 17
ENDMDL
MODEL 8
REMARK VINA RESULT:      -6.5      2.256      2.777
REMARK  Name = 
REMARK  18 active torsions:
REMARK  status: ('A' for Active; 'I' for Inactive)
REMARK    1  A    between atoms: C_1  and  S_2
REMARK    2  A    between atoms: S_2  and  C_3
REMARK    3  A    between atoms: C_5  and  C_6
REMARK    4  A    between atoms: C_6  and  O_8
REMARK    5  A    between atoms: C_10  and  C_12
REMARK    6  A    between atoms: C_12  and  C_13
REMARK    7  A    between atoms: C_12  and  O_18
REMARK    8  A    between atoms: C_13  and  C_14
REMARK    9  A    between atoms: C_14  and  C_15
REMARK   10  A    between atoms: C_15  and  C_16
REMARK   11  A    between atoms: C_16  and  N_17
REMARK   12  A    between atoms: O_18  and  P_19
REMARK   13  A    between atoms: P_19  and  O_21
REMARK   14  A    between atoms: P_19  and  C_22
REMARK   15  A    between atoms: C_22  and  C_23
REMARK   16  A    between atoms: C_23  and  C_24
REMARK   17  A    between atoms: C_24  and  C_25
REMARK   18  A    between atoms: C_25  and  C_26
REMARK                            x       y       z     vdW  Elec       q    Type
REMARK                         _______ _______ _______ _____ _____    ______ ____
ROOT
ATOM      1  C   UNL     1       2.916   6.607  18.230  0.00  0.00    +0.000 C 
ENDROOT
BRANCH   1   6
ATOM      2  C   UNL     1       1.120   8.923  21.610  0.00  0.00    +0.000 C 
ATOM      3  C   UNL     1       1.286  10.276  20.923  0.00  0.00    +0.000 C 
ATOM      4  C   UNL     1       1.024   9.974  19.431  0.00  0.00    +0.000 C 
ATOM      5  N   UNL     1       1.771   8.679  19.312  0.00  0.00    +0.000 N 
ATOM      6  C   UNL     1       2.229   8.074  18.142  0.00  0.00    +0.000 C 
ATOM      7  O   UNL     1       2.199   8.746  17.100  0.00  0.00    +0.000 OA
ATOM      8  C   UNL     1       1.489   7.906  20.517  0.00  0.00    +0.000 C 
BRANCH   4   9
ATOM      9  C   UNL     1       1.239  11.327  18.721  0.00  0.00    +0.000 C 
ATOM     10  O   UNL     1       0.502  12.285  18.890  0.00  0.00    +0.000 OA
BRANCH   9  11
ATOM     11  O   UNL     1       2.254  11.395  17.856  0.00  0.00    +0.000 OA
ATOM     12  H   UNL     1       3.134  11.484  18.317  0.00  0.00    +0.000 HD
ENDBRANCH   9  11
ENDBRANCH   4   9
BRANCH   2  14
ATOM     13  C   UNL     1      -0.708  10.389  23.089  0.00  0.00    +0.000 C 
ATOM     14  S   UNL     1      -0.602   8.809  22.224  0.00  0.00    +0.000 S 
ENDBRANCH   2  14
ENDBRANCH   1   6
BRANCH   1  15
ATOM     15  C   UNL     1       2.591   5.902  19.551  0.00  0.00    +0.000 C 
BRANCH  15  16
ATOM     16  C   UNL     1       2.600   4.382  19.625  0.00  0.00    +0.000 C 
BRANCH  16  17
ATOM     17  C   UNL     1       1.253   3.958  20.239  0.00  0.00    +0.000 C 
BRANCH  17  18
ATOM     18  C   UNL     1       1.259   2.596  20.922  0.00  0.00    +0.000 C 
BRANCH  18  19
ATOM     19  N   UNL     1       1.853   2.672  22.247  0.00  0.00    +0.000 NA
ATOM     20  H   UNL     1       2.532   3.433  22.281  0.00  0.00    +0.000 HD
ATOM     21  H   UNL     1       2.375   1.817  22.435  0.00  0.00    +0.000 HD
ENDBRANCH  18  19
ENDBRANCH  17  18
ENDBRANCH  16  17
ENDBRANCH  15  16
ENDBRANCH   1  15
BRANCH   1  22
ATOM     22  O   UNL     1       4.335   6.576  18.315  0.00  0.00    +0.000 OA
BRANCH  22  23
ATOM     23  P   UNL     1       5.424   6.073  17.260  0.00  0.00    +0.000 P 
ATOM     24  O   UNL     1       5.307   4.612  16.953  0.00  0.00    +0.000 OA
BRANCH  23  25
ATOM     25  O   UNL     1       4.799   6.909  16.017  0.00  0.00    +0.000 OA
ATOM     26  H   UNL     1       5.470   7.366  15.483  0.00  0.00    +0.000 HD
ENDBRANCH  23  25
BRANCH  23  27
ATOM     27  C   UNL     1       7.081   6.772  17.112  0.00  0.00    +0.000 C 
BRANCH  27  28
ATOM     28  C   UNL     1       7.967   7.466  18.139  0.00  0.00    +0.000 C 
BRANCH  28  29
ATOM     29  C   UNL     1       8.138   9.006  17.856  0.00  0.00    +0.000 C 
BRANCH  29  30
ATOM     30  C   UNL     1       9.002   9.797  18.865  0.00  0.00    +0.000 C 
BRANCH  30  31
ATOM     31  C   UNL     1       9.567  11.099  18.315  0.00  0.00    +0.000 A 
ATOM     32  C   UNL     1       8.732  12.201  18.073  0.00  0.00    +0.000 A 
ATOM     33  C   UNL     1       9.258  13.408  17.596  0.00  0.00    +0.000 A 
ATOM     34  C   UNL     1      10.621  13.538  17.361  0.00  0.00    +0.000 A 
ATOM     35  C   UNL     1      11.466  12.454  17.597  0.00  0.00    +0.000 A 
ATOM     36  C   UNL     1      10.941  11.247  18.067  0.00  0.00    +0.000 A 
ENDBRANCH  30  31
ENDBRANCH  29  30
ENDBRANCH  28  29
ENDBRANCH  27  28
ENDBRANCH  23  27
ENDBRANCH  22  23
ENDBRANCH   1  22
TORSDOF 17
ENDMDL
MODEL 9
REMARK VINA RESULT:      -6.4      1.261      1.668
REMARK  Name = 
REMARK  18 active torsions:
REMARK  status: ('A' for Active; 'I' for Inactive)
REMARK    1  A    between atoms: C_1  and  S_2
REMARK    2  A    between atoms: S_2  and  C_3
REMARK    3  A    between atoms: C_5  and  C_6
REMARK    4  A    between atoms: C_6  and  O_8
REMARK    5  A    between atoms: C_10  and  C_12
REMARK    6  A    between atoms: C_12  and  C_13
REMARK    7  A    between atoms: C_12  and  O_18
REMARK    8  A    between atoms: C_13  and  C_14
REMARK    9  A    between atoms: C_14  and  C_15
REMARK   10  A    between atoms: C_15  and  C_16
REMARK   11  A    between atoms: C_16  and  N_17
REMARK   12  A    between atoms: O_18  and  P_19
REMARK   13  A    between atoms: P_19  and  O_21
REMARK   14  A    between atoms: P_19  and  C_22
REMARK   15  A    between atoms: C_22  and  C_23
REMARK   16  A    between atoms: C_23  and  C_24
REMARK   17  A    between atoms: C_24  and  C_25
REMARK   18  A    between atoms: C_25  and  C_26
REMARK                            x       y       z     vdW  Elec       q    Type
REMARK                         _______ _______ _______ _____ _____    ______ ____
ROOT
ATOM      1  C   UNL     1       3.761   5.442  17.341  0.00  0.00    +0.000 C 
ENDROOT
BRANCH   1   6
ATOM      2  C   UNL     1       1.570   9.313  17.814  0.00  0.00    +0.000 C 
ATOM      3  C   UNL     1       1.015   8.963  19.192  0.00  0.00    +0.000 C 
ATOM      4  C   UNL     1       2.153   8.165  19.863  0.00  0.00    +0.000 C 
ATOM      5  N   UNL     1       2.576   7.321  18.697  0.00  0.00    +0.000 N 
ATOM      6  C   UNL     1       3.309   6.135  18.736  0.00  0.00    +0.000 C 
ATOM      7  O   UNL     1       3.476   5.601  19.843  0.00  0.00    +0.000 OA
ATOM      8  C   UNL     1       2.565   8.179  17.518  0.00  0.00    +0.000 C 
BRANCH   4   9
ATOM      9  C   UNL     1       1.583   7.764  21.239  0.00  0.00    +0.000 C 
ATOM     10  O   UNL     1       1.334   8.579  22.114  0.00  0.00    +0.000 OA
BRANCH   9  11
ATOM     11  O   UNL     1       1.416   6.457  21.461  0.00  0.00    +0.000 OA
ATOM     12  H   UNL     1       1.186   6.265  22.412  0.00  0.00    +0.000 HD
ENDBRANCH   9  11
ENDBRANCH   4   9
BRANCH   2  14
ATOM     13  C   UNL     1       1.197  11.726  19.124  0.00  0.00    +0.000 C 
ATOM     14  S   UNL     1       2.309  10.987  17.910  0.00  0.00    +0.000 S 
ENDBRANCH   2  14
ENDBRANCH   1   6
BRANCH   1  15
ATOM     15  C   UNL     1       3.821   3.915  17.455  0.00  0.00    +0.000 C 
BRANCH  15  16
ATOM     16  C   UNL     1       2.566   3.086  17.227  0.00  0.00    +0.000 C 
BRANCH  16  17
ATOM     17  C   UNL     1       1.419   3.799  17.968  0.00  0.00    +0.000 C 
BRANCH  17  18
ATOM     18  C   UNL     1       0.972   3.126  19.259  0.00  0.00    +0.000 C 
BRANCH  18  19
ATOM     19  N   UNL     1       2.110   2.753  20.083  0.00  0.00    +0.000 NA
ATOM     20  H   UNL     1       2.936   2.624  19.497  0.00  0.00    +0.000 HD
ATOM     21  H   UNL     1       1.931   1.852  20.523  0.00  0.00    +0.000 HD
ENDBRANCH  18  19
ENDBRANCH  17  18
ENDBRANCH  16  17
ENDBRANCH  15  16
ENDBRANCH   1  15
BRANCH   1  22
ATOM     22  O   UNL     1       5.100   5.677  16.923  0.00  0.00    +0.000 OA
BRANCH  22  23
ATOM     23  P   UNL     1       6.477   5.494  17.712  0.00  0.00    +0.000 P 
ATOM     24  O   UNL     1       6.505   4.260  18.560  0.00  0.00    +0.000 OA
BRANCH  23  25
ATOM     25  O   UNL     1       7.357   5.216  16.375  0.00  0.00    +0.000 OA
ATOM     26  H   UNL     1       6.824   4.927  15.616  0.00  0.00    +0.000 HD
ENDBRANCH  23  25
BRANCH  23  27
ATOM     27  C   UNL     1       7.494   6.866  18.296  0.00  0.00    +0.000 C 
BRANCH  27  28
ATOM     28  C   UNL     1       7.894   8.170  17.618  0.00  0.00    +0.000 C 
BRANCH  28  29
ATOM     29  C   UNL     1       8.772   9.095  18.542  0.00  0.00    +0.000 C 
BRANCH  29  30
ATOM     30  C   UNL     1       8.695  10.613  18.266  0.00  0.00    +0.000 C 
BRANCH  30  31
ATOM     31  C   UNL     1       9.952  11.382  18.651  0.00  0.00    +0.000 A 
ATOM     32  C   UNL     1      10.282  11.592  19.999  0.00  0.00    +0.000 A 
ATOM     33  C   UNL     1      11.454  12.272  20.353  0.00  0.00    +0.000 A 
ATOM     34  C   UNL     1      12.317  12.744  19.371  0.00  0.00    +0.000 A 
ATOM     35  C   UNL     1      12.006  12.543  18.027  0.00  0.00    +0.000 A 
ATOM     36  C   UNL     1      10.833  11.870  17.673  0.00  0.00    +0.000 A 
ENDBRANCH  30  31
ENDBRANCH  29  30
ENDBRANCH  28  29
ENDBRANCH  27  28
ENDBRANCH  23  27
ENDBRANCH  22  23
ENDBRANCH   1  22
TORSDOF 17
ENDMDL
