MODEL 1
REMARK VINA RESULT:      -8.2      0.000      0.000
REMARK  Name = 
REMARK  6 active torsions:
REMARK  status: ('A' for Active; 'I' for Inactive)
REMARK    1  A    between atoms: C_2  and  C_3
REMARK    2  A    between atoms: C_3  and  N_4
REMARK    3  A    between atoms: C_11  and  C_12
REMARK    4  A    between atoms: N_18  and  C_19
REMARK    5  A    between atoms: N_21  and  C_22
REMARK    6  A    between atoms: C_25  and  O_26
REMARK                            x       y       z     vdW  Elec       q    Type
REMARK                         _______ _______ _______ _____ _____    ______ ____
ROOT
ATOM      1  C   UNL     1       7.999   6.528  18.731  0.00  0.00    +0.000 C 
ENDROOT
BRANCH   1   2
ATOM      2  N   UNL     1       6.654   6.054  19.033  0.00  0.00    +0.000 N 
ATOM      3  C   UNL     1       6.046   5.127  18.267  0.00  0.00    +0.000 A 
ATOM      4  N   UNL     1       6.570   4.576  17.168  0.00  0.00    +0.000 NA
ATOM      5  N   UNL     1       5.642   3.679  16.787  0.00  0.00    +0.000 N 
ATOM      6  C   UNL     1       4.521   3.654  17.568  0.00  0.00    +0.000 A 
ATOM      7  C   UNL     1       3.356   2.884  17.497  0.00  0.00    +0.000 A 
ATOM      8  C   UNL     1       2.385   3.097  18.483  0.00  0.00    +0.000 A 
ATOM      9  C   UNL     1       2.568   4.044  19.506  0.00  0.00    +0.000 A 
ATOM     10  C   UNL     1       3.760   4.799  19.546  0.00  0.00    +0.000 A 
ATOM     11  C   UNL     1       4.748   4.604  18.556  0.00  0.00    +0.000 A 
ATOM     12  H   UNL     1       6.096   6.706  19.577  0.00  0.00    +0.000 HD
ATOM     13  H   UNL     1       5.838   3.099  15.980  0.00  0.00    +0.000 HD
BRANCH   9  14
ATOM     14  C   UNL     1       1.514   4.249  20.567  0.00  0.00    +0.000 C 
ATOM     15  F   UNL     1       1.864   3.749  21.787  0.00  0.00    +0.000 F 
ATOM     16  F   UNL     1       1.229   5.563  20.772  0.00  0.00    +0.000 F 
ATOM     17  F   UNL     1       0.334   3.652  20.246  0.00  0.00    +0.000 F 
ENDBRANCH   9  14
ENDBRANCH   1   2
BRANCH   1  19
ATOM     18  O   UNL     1       7.387   7.963  16.882  0.00  0.00    +0.000 OA
ATOM     19  C   UNL     1       7.958   7.848  17.965  0.00  0.00    +0.000 C 
ATOM     20  N   UNL     1       8.637   8.881  18.581  0.00  0.00    +0.000 N 
ATOM     21  H   UNL     1       9.310   8.574  19.285  0.00  0.00    +0.000 HD
BRANCH  20  22
ATOM     22  C   UNL     1       8.826  10.175  17.898  0.00  0.00    +0.000 C 
ATOM     23  C   UNL     1       8.420  11.469  18.680  0.00  0.00    +0.000 C 
ATOM     24  N   UNL     1       9.575  12.108  18.000  0.00  0.00    +0.000 NA
ATOM     25  C   UNL     1      10.252  10.786  18.008  0.00  0.00    +0.000 C 
BRANCH  24  26
ATOM     26  C   UNL     1      10.247  13.194  18.714  0.00  0.00    +0.000 C 
ATOM     27  C   UNL     1      11.786  13.206  18.807  0.00  0.00    +0.000 C 
ATOM     28  C   UNL     1      12.320  14.494  19.450  0.00  0.00    +0.000 C 
ATOM     29  C   UNL     1      11.793  15.754  18.766  0.00  0.00    +0.000 C 
ATOM     30  C   UNL     1      10.269  15.760  18.721  0.00  0.00    +0.000 C 
ATOM     31  C   UNL     1       9.702  14.495  18.084  0.00  0.00    +0.000 C 
BRANCH  29  32
ATOM     32  O   UNL     1      12.332  15.864  17.449  0.00  0.00    +0.000 OA
ATOM     33  H   UNL     1      13.030  16.537  17.447  0.00  0.00    +0.000 HD
ENDBRANCH  29  32
ENDBRANCH  24  26
ENDBRANCH  20  22
ENDBRANCH   1  19
TORSDOF 6
ENDMDL
MODEL 2
REMARK VINA RESULT:      -8.0      4.302     10.743
REMARK  Name = 
REMARK  6 active torsions:
REMARK  status: ('A' for Active; 'I' for Inactive)
REMARK    1  A    between atoms: C_2  and  C_3
REMARK    2  A    between atoms: C_3  and  N_4
REMARK    3  A    between atoms: C_11  and  C_12
REMARK    4  A    between atoms: N_18  and  C_19
REMARK    5  A    between atoms: N_21  and  C_22
REMARK    6  A    between atoms: C_25  and  O_26
REMARK                            x       y       z     vdW  Elec       q    Type
REMARK                         _______ _______ _______ _____ _____    ______ ____
ROOT
ATOM      1  C   UNL     1       8.438   9.111  17.547  0.00  0.00    +0.000 C 
ENDROOT
BRANCH   1   2
ATOM      2  N   UNL     1       8.542   9.947  18.736  0.00  0.00    +0.000 N 
ATOM      3  C   UNL     1       9.347  11.029  18.767  0.00  0.00    +0.000 A 
ATOM      4  N   UNL     1      10.134  11.428  17.765  0.00  0.00    +0.000 NA
ATOM      5  N   UNL     1      10.687  12.565  18.227  0.00  0.00    +0.000 N 
ATOM      6  C   UNL     1      10.324  12.896  19.502  0.00  0.00    +0.000 A 
ATOM      7  C   UNL     1      10.682  13.973  20.319  0.00  0.00    +0.000 A 
ATOM      8  C   UNL     1      10.106  14.029  21.594  0.00  0.00    +0.000 A 
ATOM      9  C   UNL     1       9.204  13.047  22.040  0.00  0.00    +0.000 A 
ATOM     10  C   UNL     1       8.865  11.977  21.183  0.00  0.00    +0.000 A 
ATOM     11  C   UNL     1       9.441  11.899  19.897  0.00  0.00    +0.000 A 
ATOM     12  H   UNL     1       8.298   9.474  19.601  0.00  0.00    +0.000 HD
ATOM     13  H   UNL     1      11.307  13.081  17.614  0.00  0.00    +0.000 HD
BRANCH   9  14
ATOM     14  C   UNL     1       8.585  13.133  23.414  0.00  0.00    +0.000 C 
ATOM     15  F   UNL     1       7.227  13.255  23.393  0.00  0.00    +0.000 F 
ATOM     16  F   UNL     1       8.848  12.035  24.175  0.00  0.00    +0.000 F 
ATOM     17  F   UNL     1       9.044  14.201  24.122  0.00  0.00    +0.000 F 
ENDBRANCH   9  14
ENDBRANCH   1   2
BRANCH   1  19
ATOM     18  O   UNL     1       8.383   7.058  18.826  0.00  0.00    +0.000 OA
ATOM     19  C   UNL     1       7.919   7.719  17.898  0.00  0.00    +0.000 C 
ATOM     20  N   UNL     1       6.911   7.265  17.071  0.00  0.00    +0.000 N 
ATOM     21  H   UNL     1       6.850   7.761  16.180  0.00  0.00    +0.000 HD
BRANCH  20  22
ATOM     22  C   UNL     1       6.411   5.880  17.177  0.00  0.00    +0.000 C 
ATOM     23  C   UNL     1       5.894   5.406  18.576  0.00  0.00    +0.000 C 
ATOM     24  N   UNL     1       4.892   4.619  17.815  0.00  0.00    +0.000 NA
ATOM     25  C   UNL     1       4.924   5.675  16.771  0.00  0.00    +0.000 C 
BRANCH  24  26
ATOM     26  C   UNL     1       3.603   4.379  18.467  0.00  0.00    +0.000 C 
ATOM     27  C   UNL     1       2.367   4.040  17.609  0.00  0.00    +0.000 C 
ATOM     28  C   UNL     1       1.149   3.667  18.466  0.00  0.00    +0.000 C 
ATOM     29  C   UNL     1       1.455   2.555  19.467  0.00  0.00    +0.000 C 
ATOM     30  C   UNL     1       2.647   2.918  20.346  0.00  0.00    +0.000 C 
ATOM     31  C   UNL     1       3.879   3.291  19.529  0.00  0.00    +0.000 C 
BRANCH  29  32
ATOM     32  O   UNL     1       1.694   1.325  18.784  0.00  0.00    +0.000 OA
ATOM     33  H   UNL     1       1.024   1.212  18.092  0.00  0.00    +0.000 HD
ENDBRANCH  29  32
ENDBRANCH  24  26
ENDBRANCH  20  22
ENDBRANCH   1  19
TORSDOF 6
ENDMDL
MODEL 3
REMARK VINA RESULT:      -7.9      7.783     10.144
REMARK  Name = 
REMARK  6 active torsions:
REMARK  status: ('A' for Active; 'I' for Inactive)
REMARK    1  A    between atoms: C_2  and  C_3
REMARK    2  A    between atoms: C_3  and  N_4
REMARK    3  A    between atoms: C_11  and  C_12
REMARK    4  A    between atoms: N_18  and  C_19
REMARK    5  A    between atoms: N_21  and  C_22
REMARK    6  A    between atoms: C_25  and  O_26
REMARK                            x       y       z     vdW  Elec       q    Type
REMARK                         _______ _______ _______ _____ _____    ______ ____
ROOT
ATOM      1  C   UNL     1       1.352   7.782  21.130  0.00  0.00    +0.000 C 
ENDROOT
BRANCH   1   2
ATOM      2  N   UNL     1       2.201   7.314  20.041  0.00  0.00    +0.000 N 
ATOM      3  C   UNL     1       2.384   5.999  19.808  0.00  0.00    +0.000 A 
ATOM      4  N   UNL     1       1.854   5.009  20.533  0.00  0.00    +0.000 NA
ATOM      5  N   UNL     1       2.256   3.895  19.895  0.00  0.00    +0.000 N 
ATOM      6  C   UNL     1       3.058   4.119  18.811  0.00  0.00    +0.000 A 
ATOM      7  C   UNL     1       3.669   3.239  17.912  0.00  0.00    +0.000 A 
ATOM      8  C   UNL     1       4.427   3.804  16.879  0.00  0.00    +0.000 A 
ATOM      9  C   UNL     1       4.569   5.197  16.745  0.00  0.00    +0.000 A 
ATOM     10  C   UNL     1       3.932   6.051  17.671  0.00  0.00    +0.000 A 
ATOM     11  C   UNL     1       3.171   5.500  18.724  0.00  0.00    +0.000 A 
ATOM     12  H   UNL     1       2.906   7.982  19.747  0.00  0.00    +0.000 HD
ATOM     13  H   UNL     1       1.939   2.999  20.247  0.00  0.00    +0.000 HD
BRANCH   9  14
ATOM     14  C   UNL     1       5.381   5.785  15.616  0.00  0.00    +0.000 C 
ATOM     15  F   UNL     1       6.706   5.919  15.910  0.00  0.00    +0.000 F 
ATOM     16  F   UNL     1       5.325   5.030  14.485  0.00  0.00    +0.000 F 
ATOM     17  F   UNL     1       4.951   7.027  15.262  0.00  0.00    +0.000 F 
ENDBRANCH   9  14
ENDBRANCH   1   2
BRANCH   1  19
ATOM     18  O   UNL     1       1.116   9.809  19.831  0.00  0.00    +0.000 OA
ATOM     19  C   UNL     1       0.858   9.203  20.869  0.00  0.00    +0.000 C 
ATOM     20  N   UNL     1       0.125   9.746  21.905  0.00  0.00    +0.000 N 
ATOM     21  H   UNL     1       0.257   9.273  22.800  0.00  0.00    +0.000 HD
BRANCH  20  22
ATOM     22  C   UNL     1      -0.291  11.162  21.877  0.00  0.00    +0.000 C 
ATOM     23  C   UNL     1      -1.563  11.524  21.040  0.00  0.00    +0.000 C 
ATOM     24  N   UNL     1      -1.835  12.531  22.095  0.00  0.00    +0.000 NA
ATOM     25  C   UNL     1      -1.178  11.622  23.068  0.00  0.00    +0.000 C 
BRANCH  24  26
ATOM     26  C   UNL     1      -3.238  12.863  22.350  0.00  0.00    +0.000 C 
ATOM     27  C   UNL     1      -3.865  12.517  23.715  0.00  0.00    +0.000 C 
ATOM     28  C   UNL     1      -5.288  13.078  23.860  0.00  0.00    +0.000 C 
ATOM     29  C   UNL     1      -5.359  14.577  23.577  0.00  0.00    +0.000 C 
ATOM     30  C   UNL     1      -4.781  14.907  22.205  0.00  0.00    +0.000 C 
ATOM     31  C   UNL     1      -3.366  14.368  22.026  0.00  0.00    +0.000 C 
BRANCH  29  32
ATOM     32  O   UNL     1      -4.675  15.306  24.595  0.00  0.00    +0.000 OA
ATOM     33  H   UNL     1      -4.152  16.011  24.184  0.00  0.00    +0.000 HD
ENDBRANCH  29  32
ENDBRANCH  24  26
ENDBRANCH  20  22
ENDBRANCH   1  19
TORSDOF 6
ENDMDL
MODEL 4
REMARK VINA RESULT:      -7.9      7.731      9.953
REMARK  Name = 
REMARK  6 active torsions:
REMARK  status: ('A' for Active; 'I' for Inactive)
REMARK    1  A    between atoms: C_2  and  C_3
REMARK    2  A    between atoms: C_3  and  N_4
REMARK    3  A    between atoms: C_11  and  C_12
REMARK    4  A    between atoms: N_18  and  C_19
REMARK    5  A    between atoms: N_21  and  C_22
REMARK    6  A    between atoms: C_25  and  O_26
REMARK                            x       y       z     vdW  Elec       q    Type
REMARK                         _______ _______ _______ _____ _____    ______ ____
ROOT
ATOM      1  C   UNL     1       1.052   7.495  21.483  0.00  0.00    +0.000 C 
ENDROOT
BRANCH   1   2
ATOM      2  N   UNL     1       1.954   7.162  20.388  0.00  0.00    +0.000 N 
ATOM      3  C   UNL     1       2.128   5.889  19.982  0.00  0.00    +0.000 A 
ATOM      4  N   UNL     1       1.541   4.821  20.531  0.00  0.00    +0.000 NA
ATOM      5  N   UNL     1       1.960   3.797  19.765  0.00  0.00    +0.000 N 
ATOM      6  C   UNL     1       2.827   4.150  18.769  0.00  0.00    +0.000 A 
ATOM      7  C   UNL     1       3.474   3.390  17.790  0.00  0.00    +0.000 A 
ATOM      8  C   UNL     1       4.300   4.075  16.889  0.00  0.00    +0.000 A 
ATOM      9  C   UNL     1       4.473   5.469  16.961  0.00  0.00    +0.000 A 
ATOM     10  C   UNL     1       3.798   6.200  17.961  0.00  0.00    +0.000 A 
ATOM     11  C   UNL     1       2.968   5.527  18.883  0.00  0.00    +0.000 A 
ATOM     12  H   UNL     1       2.687   7.848  20.229  0.00  0.00    +0.000 HD
ATOM     13  H   UNL     1       1.608   2.869  19.970  0.00  0.00    +0.000 HD
BRANCH   9  14
ATOM     14  C   UNL     1       5.358   6.188  15.972  0.00  0.00    +0.000 C 
ATOM     15  F   UNL     1       4.729   7.207  15.319  0.00  0.00    +0.000 F 
ATOM     16  F   UNL     1       6.453   6.744  16.560  0.00  0.00    +0.000 F 
ATOM     17  F   UNL     1       5.831   5.360  15.002  0.00  0.00    +0.000 F 
ENDBRANCH   9  14
ENDBRANCH   1   2
BRANCH   1  19
ATOM     18  O   UNL     1       1.896   9.510  22.523  0.00  0.00    +0.000 OA
ATOM     19  C   UNL     1       1.069   8.994  21.773  0.00  0.00    +0.000 C 
ATOM     20  N   UNL     1       0.065   9.704  21.144  0.00  0.00    +0.000 N 
ATOM     21  H   UNL     1      -0.714   9.126  20.824  0.00  0.00    +0.000 HD
BRANCH  20  22
ATOM     22  C   UNL     1      -0.153  11.133  21.444  0.00  0.00    +0.000 C 
ATOM     23  C   UNL     1      -1.346  11.846  20.724  0.00  0.00    +0.000 C 
ATOM     24  N   UNL     1      -1.501  12.615  21.984  0.00  0.00    +0.000 NA
ATOM     25  C   UNL     1      -0.995  11.427  22.717  0.00  0.00    +0.000 C 
BRANCH  24  26
ATOM     26  C   UNL     1      -2.851  13.070  22.322  0.00  0.00    +0.000 C 
ATOM     27  C   UNL     1      -3.541  12.528  23.590  0.00  0.00    +0.000 C 
ATOM     28  C   UNL     1      -4.878  13.230  23.869  0.00  0.00    +0.000 C 
ATOM     29  C   UNL     1      -4.743  14.751  23.914  0.00  0.00    +0.000 C 
ATOM     30  C   UNL     1      -4.105  15.286  22.636  0.00  0.00    +0.000 C 
ATOM     31  C   UNL     1      -2.771  14.613  22.328  0.00  0.00    +0.000 C 
BRANCH  29  32
ATOM     32  O   UNL     1      -3.984  15.147  25.055  0.00  0.00    +0.000 OA
ATOM     33  H   UNL     1      -4.365  14.738  25.847  0.00  0.00    +0.000 HD
ENDBRANCH  29  32
ENDBRANCH  24  26
ENDBRANCH  20  22
ENDBRANCH   1  19
TORSDOF 6
ENDMDL
MODEL 5
REMARK VINA RESULT:      -7.8      4.319     10.588
REMARK  Name = 
REMARK  6 active torsions:
REMARK  status: ('A' for Active; 'I' for Inactive)
REMARK    1  A    between atoms: C_2  and  C_3
REMARK    2  A    between atoms: C_3  and  N_4
REMARK    3  A    between atoms: C_11  and  C_12
REMARK    4  A    between atoms: N_18  and  C_19
REMARK    5  A    between atoms: N_21  and  C_22
REMARK    6  A    between atoms: C_25  and  O_26
REMARK                            x       y       z     vdW  Elec       q    Type
REMARK                         _______ _______ _______ _____ _____    ______ ____
ROOT
ATOM      1  C   UNL     1       8.467   8.865  17.615  0.00  0.00    +0.000 C 
ENDROOT
BRANCH   1   2
ATOM      2  N   UNL     1       8.570   9.740  18.776  0.00  0.00    +0.000 N 
ATOM      3  C   UNL     1       9.368  10.826  18.769  0.00  0.00    +0.000 A 
ATOM      4  N   UNL     1      10.151  11.197  17.751  0.00  0.00    +0.000 NA
ATOM      5  N   UNL     1      10.699  12.351  18.174  0.00  0.00    +0.000 N 
ATOM      6  C   UNL     1      10.338  12.722  19.439  0.00  0.00    +0.000 A 
ATOM      7  C   UNL     1      10.692  13.828  20.219  0.00  0.00    +0.000 A 
ATOM      8  C   UNL     1      10.119  13.922  21.493  0.00  0.00    +0.000 A 
ATOM      9  C   UNL     1       9.223  12.950  21.974  0.00  0.00    +0.000 A 
ATOM     10  C   UNL     1       8.888  11.852  21.153  0.00  0.00    +0.000 A 
ATOM     11  C   UNL     1       9.461  11.734  19.869  0.00  0.00    +0.000 A 
ATOM     12  H   UNL     1       8.330   9.295  19.656  0.00  0.00    +0.000 HD
ATOM     13  H   UNL     1      11.314  12.850  17.542  0.00  0.00    +0.000 HD
BRANCH   9  14
ATOM     14  C   UNL     1       8.608  13.078  23.346  0.00  0.00    +0.000 C 
ATOM     15  F   UNL     1       8.927  12.051  24.184  0.00  0.00    +0.000 F 
ATOM     16  F   UNL     1       8.995  14.215  23.987  0.00  0.00    +0.000 F 
ATOM     17  F   UNL     1       7.248  13.115  23.302  0.00  0.00    +0.000 F 
ENDBRANCH   9  14
ENDBRANCH   1   2
BRANCH   1  19
ATOM     18  O   UNL     1       8.313   6.742  18.765  0.00  0.00    +0.000 OA
ATOM     19  C   UNL     1       7.802   7.541  17.983  0.00  0.00    +0.000 C 
ATOM     20  N   UNL     1       6.599   7.315  17.342  0.00  0.00    +0.000 N 
ATOM     21  H   UNL     1       6.458   7.888  16.510  0.00  0.00    +0.000 HD
BRANCH  20  22
ATOM     22  C   UNL     1       5.908   6.016  17.467  0.00  0.00    +0.000 C 
ATOM     23  C   UNL     1       5.879   5.348  18.882  0.00  0.00    +0.000 C 
ATOM     24  N   UNL     1       4.525   4.869  18.505  0.00  0.00    +0.000 NA
ATOM     25  C   UNL     1       4.370   6.096  17.684  0.00  0.00    +0.000 C 
BRANCH  24  26
ATOM     26  C   UNL     1       3.563   4.681  19.592  0.00  0.00    +0.000 C 
ATOM     27  C   UNL     1       2.154   5.298  19.477  0.00  0.00    +0.000 C 
ATOM     28  C   UNL     1       1.234   4.867  20.628  0.00  0.00    +0.000 C 
ATOM     29  C   UNL     1       1.166   3.349  20.788  0.00  0.00    +0.000 C 
ATOM     30  C   UNL     1       2.559   2.750  20.951  0.00  0.00    +0.000 C 
ATOM     31  C   UNL     1       3.502   3.154  19.822  0.00  0.00    +0.000 C 
BRANCH  29  32
ATOM     32  O   UNL     1       0.498   2.763  19.672  0.00  0.00    +0.000 OA
ATOM     33  H   UNL     1      -0.391   3.142  19.600  0.00  0.00    +0.000 HD
ENDBRANCH  29  32
ENDBRANCH  24  26
ENDBRANCH  20  22
ENDBRANCH   1  19
TORSDOF 6
ENDMDL
MODEL 6
REMARK VINA RESULT:      -7.8      1.125      1.389
REMARK  Name = 
REMARK  6 active torsions:
REMARK  status: ('A' for Active; 'I' for Inactive)
REMARK    1  A    between atoms: C_2  and  C_3
REMARK    2  A    between atoms: C_3  and  N_4
REMARK    3  A    between atoms: C_11  and  C_12
REMARK    4  A    between atoms: N_18  and  C_19
REMARK    5  A    between atoms: N_21  and  C_22
REMARK    6  A    between atoms: C_25  and  O_26
REMARK                            x       y       z     vdW  Elec       q    Type
REMARK                         _______ _______ _______ _____ _____    ______ ____
ROOT
ATOM      1  C   UNL     1       7.233   7.006  17.161  0.00  0.00    +0.000 C 
ENDROOT
BRANCH   1   2
ATOM      2  N   UNL     1       6.106   6.367  17.830  0.00  0.00    +0.000 N 
ATOM      3  C   UNL     1       5.644   5.164  17.435  0.00  0.00    +0.000 A 
ATOM      4  N   UNL     1       6.125   4.456  16.409  0.00  0.00    +0.000 NA
ATOM      5  N   UNL     1       5.405   3.320  16.440  0.00  0.00    +0.000 N 
ATOM      6  C   UNL     1       4.450   3.278  17.416  0.00  0.00    +0.000 A 
ATOM      7  C   UNL     1       3.516   2.296  17.760  0.00  0.00    +0.000 A 
ATOM      8  C   UNL     1       2.675   2.564  18.847  0.00  0.00    +0.000 A 
ATOM      9  C   UNL     1       2.762   3.769  19.568  0.00  0.00    +0.000 A 
ATOM     10  C   UNL     1       3.721   4.733  19.191  0.00  0.00    +0.000 A 
ATOM     11  C   UNL     1       4.573   4.485  18.093  0.00  0.00    +0.000 A 
ATOM     12  H   UNL     1       5.488   7.013  18.311  0.00  0.00    +0.000 HD
ATOM     13  H   UNL     1       5.621   2.596  15.764  0.00  0.00    +0.000 HD
BRANCH   9  14
ATOM     14  C   UNL     1       1.854   4.032  20.744  0.00  0.00    +0.000 C 
ATOM     15  F   UNL     1       1.501   2.903  21.424  0.00  0.00    +0.000 F 
ATOM     16  F   UNL     1       2.419   4.859  21.665  0.00  0.00    +0.000 F 
ATOM     17  F   UNL     1       0.685   4.623  20.374  0.00  0.00    +0.000 F 
ENDBRANCH   9  14
ENDBRANCH   1   2
BRANCH   1  19
ATOM     18  O   UNL     1       8.562   7.470  19.128  0.00  0.00    +0.000 OA
ATOM     19  C   UNL     1       8.004   7.906  18.123  0.00  0.00    +0.000 C 
ATOM     20  N   UNL     1       7.996   9.243  17.778  0.00  0.00    +0.000 N 
ATOM     21  H   UNL     1       7.253   9.498  17.125  0.00  0.00    +0.000 HD
BRANCH  20  22
ATOM     22  C   UNL     1       8.560  10.262  18.684  0.00  0.00    +0.000 C 
ATOM     23  C   UNL     1      10.118  10.328  18.814  0.00  0.00    +0.000 C 
ATOM     24  N   UNL     1       9.934  11.795  18.945  0.00  0.00    +0.000 NA
ATOM     25  C   UNL     1       8.743  11.677  18.066  0.00  0.00    +0.000 C 
BRANCH  24  26
ATOM     26  C   UNL     1      11.024  12.646  18.463  0.00  0.00    +0.000 C 
ATOM     27  C   UNL     1      10.972  13.209  17.029  0.00  0.00    +0.000 C 
ATOM     28  C   UNL     1      12.110  14.203  16.752  0.00  0.00    +0.000 C 
ATOM     29  C   UNL     1      12.176  15.322  17.789  0.00  0.00    +0.000 C 
ATOM     30  C   UNL     1      12.277  14.758  19.203  0.00  0.00    +0.000 C 
ATOM     31  C   UNL     1      11.159  13.769  19.515  0.00  0.00    +0.000 C 
BRANCH  29  32
ATOM     32  O   UNL     1      11.038  16.174  17.671  0.00  0.00    +0.000 OA
ATOM     33  H   UNL     1      11.322  17.097  17.757  0.00  0.00    +0.000 HD
ENDBRANCH  29  32
ENDBRANCH  24  26
ENDBRANCH  20  22
ENDBRANCH   1  19
TORSDOF 6
ENDMDL
MODEL 7
REMARK VINA RESULT:      -7.8      5.793      6.775
REMARK  Name = 
REMARK  6 active torsions:
REMARK  status: ('A' for Active; 'I' for Inactive)
REMARK    1  A    between atoms: C_2  and  C_3
REMARK    2  A    between atoms: C_3  and  N_4
REMARK    3  A    between atoms: C_11  and  C_12
REMARK    4  A    between atoms: N_18  and  C_19
REMARK    5  A    between atoms: N_21  and  C_22
REMARK    6  A    between atoms: C_25  and  O_26
REMARK                            x       y       z     vdW  Elec       q    Type
REMARK                         _______ _______ _______ _____ _____    ______ ____
ROOT
ATOM      1  C   UNL     1       1.164   7.912  21.254  0.00  0.00    +0.000 C 
ENDROOT
BRANCH   1   2
ATOM      2  N   UNL     1       2.036   7.448  20.182  0.00  0.00    +0.000 N 
ATOM      3  C   UNL     1       2.230   6.134  19.952  0.00  0.00    +0.000 A 
ATOM      4  N   UNL     1       1.693   5.142  20.668  0.00  0.00    +0.000 NA
ATOM      5  N   UNL     1       2.112   4.030  20.037  0.00  0.00    +0.000 N 
ATOM      6  C   UNL     1       2.933   4.257  18.969  0.00  0.00    +0.000 A 
ATOM      7  C   UNL     1       3.566   3.381  18.082  0.00  0.00    +0.000 A 
ATOM      8  C   UNL     1       4.341   3.950  17.063  0.00  0.00    +0.000 A 
ATOM      9  C   UNL     1       4.478   5.344  16.932  0.00  0.00    +0.000 A 
ATOM     10  C   UNL     1       3.819   6.194  17.845  0.00  0.00    +0.000 A 
ATOM     11  C   UNL     1       3.040   5.640  18.884  0.00  0.00    +0.000 A 
ATOM     12  H   UNL     1       2.743   8.120  19.900  0.00  0.00    +0.000 HD
ATOM     13  H   UNL     1       1.793   3.133  20.384  0.00  0.00    +0.000 HD
BRANCH   9  14
ATOM     14  C   UNL     1       5.308   5.936  15.818  0.00  0.00    +0.000 C 
ATOM     15  F   UNL     1       5.370   5.148  14.707  0.00  0.00    +0.000 F 
ATOM     16  F   UNL     1       4.830   7.138  15.395  0.00  0.00    +0.000 F 
ATOM     17  F   UNL     1       6.598   6.154  16.193  0.00  0.00    +0.000 F 
ENDBRANCH   9  14
ENDBRANCH   1   2
BRANCH   1  19
ATOM     18  O   UNL     1       0.866  10.098  22.247  0.00  0.00    +0.000 OA
ATOM     19  C   UNL     1       1.018   9.431  21.225  0.00  0.00    +0.000 C 
ATOM     20  N   UNL     1       1.044   9.979  19.957  0.00  0.00    +0.000 N 
ATOM     21  H   UNL     1       0.857   9.307  19.211  0.00  0.00    +0.000 HD
BRANCH  20  22
ATOM     22  C   UNL     1       0.759  11.411  19.745  0.00  0.00    +0.000 C 
ATOM     23  C   UNL     1       1.524  12.439  20.643  0.00  0.00    +0.000 C 
ATOM     24  N   UNL     1       1.525  13.316  19.446  0.00  0.00    +0.000 NA
ATOM     25  C   UNL     1       1.569  12.092  18.606  0.00  0.00    +0.000 C 
BRANCH  24  26
ATOM     26  C   UNL     1       2.645  14.249  19.307  0.00  0.00    +0.000 C 
ATOM     27  C   UNL     1       3.446  14.285  17.990  0.00  0.00    +0.000 C 
ATOM     28  C   UNL     1       4.474  15.425  17.967  0.00  0.00    +0.000 C 
ATOM     29  C   UNL     1       3.850  16.785  18.276  0.00  0.00    +0.000 C 
ATOM     30  C   UNL     1       3.100  16.756  19.604  0.00  0.00    +0.000 C 
ATOM     31  C   UNL     1       2.066  15.636  19.663  0.00  0.00    +0.000 C 
BRANCH  29  32
ATOM     32  O   UNL     1       2.979  17.181  17.219  0.00  0.00    +0.000 OA
ATOM     33  H   UNL     1       3.017  18.145  17.121  0.00  0.00    +0.000 HD
ENDBRANCH  29  32
ENDBRANCH  24  26
ENDBRANCH  20  22
ENDBRANCH   1  19
TORSDOF 6
ENDMDL
MODEL 8
REMARK VINA RESULT:      -7.8      7.014      8.416
REMARK  Name = 
REMARK  6 active torsions:
REMARK  status: ('A' for Active; 'I' for Inactive)
REMARK    1  A    between atoms: C_2  and  C_3
REMARK    2  A    between atoms: C_3  and  N_4
REMARK    3  A    between atoms: C_11  and  C_12
REMARK    4  A    between atoms: N_18  and  C_19
REMARK    5  A    between atoms: N_21  and  C_22
REMARK    6  A    between atoms: C_25  and  O_26
REMARK                            x       y       z     vdW  Elec       q    Type
REMARK                         _______ _______ _______ _____ _____    ______ ____
ROOT
ATOM      1  C   UNL     1       4.791   5.829  17.943  0.00  0.00    +0.000 C 
ENDROOT
BRANCH   1   2
ATOM      2  N   UNL     1       4.779   5.308  16.582  0.00  0.00    +0.000 N 
ATOM      3  C   UNL     1       5.877   5.357  15.801  0.00  0.00    +0.000 A 
ATOM      4  N   UNL     1       7.048   5.893  16.155  0.00  0.00    +0.000 NA
ATOM      5  N   UNL     1       7.842   5.655  15.096  0.00  0.00    +0.000 N 
ATOM      6  C   UNL     1       7.224   5.025  14.052  0.00  0.00    +0.000 A 
ATOM      7  C   UNL     1       7.697   4.620  12.801  0.00  0.00    +0.000 A 
ATOM      8  C   UNL     1       6.792   3.970  11.953  0.00  0.00    +0.000 A 
ATOM      9  C   UNL     1       5.461   3.731  12.339  0.00  0.00    +0.000 A 
ATOM     10  C   UNL     1       5.023   4.152  13.613  0.00  0.00    +0.000 A 
ATOM     11  C   UNL     1       5.919   4.816  14.479  0.00  0.00    +0.000 A 
ATOM     12  H   UNL     1       3.858   5.274  16.158  0.00  0.00    +0.000 HD
ATOM     13  H   UNL     1       8.812   5.944  15.148  0.00  0.00    +0.000 HD
BRANCH   9  14
ATOM     14  C   UNL     1       4.505   3.017  11.414  0.00  0.00    +0.000 C 
ATOM     15  F   UNL     1       4.976   1.819  10.963  0.00  0.00    +0.000 F 
ATOM     16  F   UNL     1       3.310   2.748  12.007  0.00  0.00    +0.000 F 
ATOM     17  F   UNL     1       4.218   3.747  10.302  0.00  0.00    +0.000 F 
ENDBRANCH   9  14
ENDBRANCH   1   2
BRANCH   1  19
ATOM     18  O   UNL     1       2.561   5.689  18.872  0.00  0.00    +0.000 OA
ATOM     19  C   UNL     1       3.422   6.382  18.332  0.00  0.00    +0.000 C 
ATOM     20  N   UNL     1       3.232   7.709  18.001  0.00  0.00    +0.000 N 
ATOM     21  H   UNL     1       3.882   8.058  17.295  0.00  0.00    +0.000 HD
BRANCH  20  22
ATOM     22  C   UNL     1       1.912   8.349  18.166  0.00  0.00    +0.000 C 
ATOM     23  C   UNL     1       1.509   8.810  19.606  0.00  0.00    +0.000 C 
ATOM     24  N   UNL     1       0.831   9.946  18.932  0.00  0.00    +0.000 NA
ATOM     25  C   UNL     1       1.868   9.875  17.872  0.00  0.00    +0.000 C 
BRANCH  24  26
ATOM     26  C   UNL     1       0.741  11.202  19.680  0.00  0.00    +0.000 C 
ATOM     27  C   UNL     1       0.856  12.543  18.929  0.00  0.00    +0.000 C 
ATOM     28  C   UNL     1       0.580  13.746  19.843  0.00  0.00    +0.000 C 
ATOM     29  C   UNL     1      -0.754  13.631  20.578  0.00  0.00    +0.000 C 
ATOM     30  C   UNL     1      -0.841  12.324  21.358  0.00  0.00    +0.000 C 
ATOM     31  C   UNL     1      -0.576  11.105  20.481  0.00  0.00    +0.000 C 
BRANCH  29  32
ATOM     32  O   UNL     1      -1.838  13.736  19.656  0.00  0.00    +0.000 OA
ATOM     33  H   UNL     1      -1.647  13.188  18.880  0.00  0.00    +0.000 HD
ENDBRANCH  29  32
ENDBRANCH  24  26
ENDBRANCH  20  22
ENDBRANCH   1  19
TORSDOF 6
ENDMDL
MODEL 9
REMARK VINA RESULT:      -7.7      7.358     10.132
REMARK  Name = 
REMARK  6 active torsions:
REMARK  status: ('A' for Active; 'I' for Inactive)
REMARK    1  A    between atoms: C_2  and  C_3
REMARK    2  A    between atoms: C_3  and  N_4
REMARK    3  A    between atoms: C_11  and  C_12
REMARK    4  A    between atoms: N_18  and  C_19
REMARK    5  A    between atoms: N_21  and  C_22
REMARK    6  A    between atoms: C_25  and  O_26
REMARK                            x       y       z     vdW  Elec       q    Type
REMARK                         _______ _______ _______ _____ _____    ______ ____
ROOT
ATOM      1  C   UNL     1       1.324   8.150  21.160  0.00  0.00    +0.000 C 
ENDROOT
BRANCH   1   2
ATOM      2  N   UNL     1       2.156   7.614  20.090  0.00  0.00    +0.000 N 
ATOM      3  C   UNL     1       2.268   6.286  19.884  0.00  0.00    +0.000 A 
ATOM      4  N   UNL     1       1.677   5.343  20.623  0.00  0.00    +0.000 NA
ATOM      5  N   UNL     1       2.022   4.195  20.011  0.00  0.00    +0.000 N 
ATOM      6  C   UNL     1       2.846   4.352  18.932  0.00  0.00    +0.000 A 
ATOM      7  C   UNL     1       3.417   3.423  18.057  0.00  0.00    +0.000 A 
ATOM      8  C   UNL     1       4.216   3.924  17.021  0.00  0.00    +0.000 A 
ATOM      9  C   UNL     1       4.437   5.304  16.862  0.00  0.00    +0.000 A 
ATOM     10  C   UNL     1       3.839   6.210  17.764  0.00  0.00    +0.000 A 
ATOM     11  C   UNL     1       3.037   5.724  18.819  0.00  0.00    +0.000 A 
ATOM     12  H   UNL     1       2.900   8.236  19.791  0.00  0.00    +0.000 HD
ATOM     13  H   UNL     1       1.653   3.326  20.377  0.00  0.00    +0.000 HD
BRANCH   9  14
ATOM     14  C   UNL     1       5.291   5.824  15.732  0.00  0.00    +0.000 C 
ATOM     15  F   UNL     1       4.878   7.031  15.247  0.00  0.00    +0.000 F 
ATOM     16  F   UNL     1       6.591   5.995  16.096  0.00  0.00    +0.000 F 
ATOM     17  F   UNL     1       5.307   4.980  14.664  0.00  0.00    +0.000 F 
ENDBRANCH   9  14
ENDBRANCH   1   2
BRANCH   1  19
ATOM     18  O   UNL     1      -0.467   9.768  21.328  0.00  0.00    +0.000 OA
ATOM     19  C   UNL     1       0.440   9.286  20.651  0.00  0.00    +0.000 C 
ATOM     20  N   UNL     1       0.732   9.699  19.366  0.00  0.00    +0.000 N 
ATOM     21  H   UNL     1       1.272   9.022  18.825  0.00  0.00    +0.000 HD
BRANCH  20  22
ATOM     22  C   UNL     1      -0.128  10.677  18.671  0.00  0.00    +0.000 C 
ATOM     23  C   UNL     1      -1.447  10.141  18.019  0.00  0.00    +0.000 C 
ATOM     24  N   UNL     1      -2.039  11.444  18.413  0.00  0.00    +0.000 NA
ATOM     25  C   UNL     1      -1.120  11.457  19.579  0.00  0.00    +0.000 C 
BRANCH  24  26
ATOM     26  C   UNL     1      -3.473  11.460  18.706  0.00  0.00    +0.000 C 
ATOM     27  C   UNL     1      -4.029  12.468  19.731  0.00  0.00    +0.000 C 
ATOM     28  C   UNL     1      -5.563  12.448  19.793  0.00  0.00    +0.000 C 
ATOM     29  C   UNL     1      -6.208  12.635  18.421  0.00  0.00    +0.000 C 
ATOM     30  C   UNL     1      -5.691  11.604  17.424  0.00  0.00    +0.000 C 
ATOM     31  C   UNL     1      -4.168  11.597  17.333  0.00  0.00    +0.000 C 
BRANCH  29  32
ATOM     32  O   UNL     1      -5.972  13.957  17.939  0.00  0.00    +0.000 OA
ATOM     33  H   UNL     1      -6.696  14.534  18.228  0.00  0.00    +0.000 HD
ENDBRANCH  29  32
ENDBRANCH  24  26
ENDBRANCH  20  22
ENDBRANCH   1  19
TORSDOF 6
ENDMDL
