MODEL 1
REMARK VINA RESULT:      -6.0      0.000      0.000
REMARK  Name = 
REMARK  0 active torsions:
REMARK  status: ('A' for Active; 'I' for Inactive)
REMARK                            x       y       z     vdW  Elec       q    Type
REMARK                         _______ _______ _______ _____ _____    ______ ____
ROOT
ATOM      1  O   UNL     1       7.355   4.636  14.920  0.00  0.00    +0.000 OA
ATOM      2  S   UNL     1       7.280   4.892  16.338  0.00  0.00    +0.000 S 
ATOM      3  O   UNL     1       8.081   4.218  17.330  0.00  0.00    +0.000 OA
ATOM      4  N   UNL     1       7.461   6.579  16.537  0.00  0.00    +0.000 NA
ATOM      5  C   UNL     1       6.301   7.130  17.295  0.00  0.00    +0.000 C 
ATOM      6  C   UNL     1       5.223   6.090  17.350  0.00  0.00    +0.000 A 
ATOM      7  C   UNL     1       3.936   6.244  17.845  0.00  0.00    +0.000 A 
ATOM      8  C   UNL     1       3.060   5.153  17.792  0.00  0.00    +0.000 A 
ATOM      9  C   UNL     1       3.469   3.924  17.246  0.00  0.00    +0.000 A 
ATOM     10  C   UNL     1       4.766   3.763  16.763  0.00  0.00    +0.000 A 
ATOM     11  C   UNL     1       5.613   4.854  16.845  0.00  0.00    +0.000 A 
ATOM     12  H   UNL     1       7.559   6.989  15.608  0.00  0.00    +0.000 HD
ENDROOT
TORSDOF 0
ENDMDL
MODEL 2
REMARK VINA RESULT:      -5.8      3.285      4.276
REMARK  Name = 
REMARK  0 active torsions:
REMARK  status: ('A' for Active; 'I' for Inactive)
REMARK                            x       y       z     vdW  Elec       q    Type
REMARK                         _______ _______ _______ _____ _____    ______ ____
ROOT
ATOM      1  O   UNL     1       5.872   4.111  18.943  0.00  0.00    +0.000 OA
ATOM      2  S   UNL     1       4.707   4.102  18.093  0.00  0.00    +0.000 S 
ATOM      3  O   UNL     1       4.533   4.954  16.942  0.00  0.00    +0.000 OA
ATOM      4  N   UNL     1       4.465   2.479  17.618  0.00  0.00    +0.000 NA
ATOM      5  C   UNL     1       3.086   2.043  17.980  0.00  0.00    +0.000 C 
ATOM      6  C   UNL     1       2.489   3.053  18.913  0.00  0.00    +0.000 A 
ATOM      7  C   UNL     1       1.279   2.959  19.587  0.00  0.00    +0.000 A 
ATOM      8  C   UNL     1       0.900   4.006  20.435  0.00  0.00    +0.000 A 
ATOM      9  C   UNL     1       1.725   5.131  20.609  0.00  0.00    +0.000 A 
ATOM     10  C   UNL     1       2.933   5.234  19.922  0.00  0.00    +0.000 A 
ATOM     11  C   UNL     1       3.271   4.192  19.077  0.00  0.00    +0.000 A 
ATOM     12  H   UNL     1       5.190   1.916  18.065  0.00  0.00    +0.000 HD
ENDROOT
TORSDOF 0
ENDMDL
MODEL 3
REMARK VINA RESULT:      -5.8      3.739      4.252
REMARK  Name = 
REMARK  0 active torsions:
REMARK  status: ('A' for Active; 'I' for Inactive)
REMARK                            x       y       z     vdW  Elec       q    Type
REMARK                         _______ _______ _______ _____ _____    ______ ____
ROOT
ATOM      1  O   UNL     1       3.741   1.401  18.507  0.00  0.00    +0.000 OA
ATOM      2  S   UNL     1       4.309   2.285  19.495  0.00  0.00    +0.000 S 
ATOM      3  O   UNL     1       4.950   1.843  20.709  0.00  0.00    +0.000 OA
ATOM      4  N   UNL     1       5.372   3.329  18.659  0.00  0.00    +0.000 NA
ATOM      5  C   UNL     1       5.001   4.749  18.920  0.00  0.00    +0.000 C 
ATOM      6  C   UNL     1       3.646   4.785  19.559  0.00  0.00    +0.000 A 
ATOM      7  C   UNL     1       2.883   5.909  19.841  0.00  0.00    +0.000 A 
ATOM      8  C   UNL     1       1.623   5.736  20.427  0.00  0.00    +0.000 A 
ATOM      9  C   UNL     1       1.134   4.452  20.724  0.00  0.00    +0.000 A 
ATOM     10  C   UNL     1       1.906   3.323  20.457  0.00  0.00    +0.000 A 
ATOM     11  C   UNL     1       3.153   3.527  19.893  0.00  0.00    +0.000 A 
ATOM     12  H   UNL     1       5.330   3.083  17.670  0.00  0.00    +0.000 HD
ENDROOT
TORSDOF 0
ENDMDL
MODEL 4
REMARK VINA RESULT:      -5.7      1.584      2.332
REMARK  Name = 
REMARK  0 active torsions:
REMARK  status: ('A' for Active; 'I' for Inactive)
REMARK                            x       y       z     vdW  Elec       q    Type
REMARK                         _______ _______ _______ _____ _____    ______ ____
ROOT
ATOM      1  O   UNL     1       8.222   4.156  17.703  0.00  0.00    +0.000 OA
ATOM      2  S   UNL     1       7.286   5.014  17.018  0.00  0.00    +0.000 S 
ATOM      3  O   UNL     1       7.541   6.394  16.684  0.00  0.00    +0.000 OA
ATOM      4  N   UNL     1       6.814   4.183  15.601  0.00  0.00    +0.000 NA
ATOM      5  C   UNL     1       5.330   4.049  15.561  0.00  0.00    +0.000 C 
ATOM      6  C   UNL     1       4.776   4.398  16.909  0.00  0.00    +0.000 A 
ATOM      7  C   UNL     1       3.460   4.277  17.331  0.00  0.00    +0.000 A 
ATOM      8  C   UNL     1       3.139   4.640  18.645  0.00  0.00    +0.000 A 
ATOM      9  C   UNL     1       4.126   5.116  19.525  0.00  0.00    +0.000 A 
ATOM     10  C   UNL     1       5.446   5.254  19.098  0.00  0.00    +0.000 A 
ATOM     11  C   UNL     1       5.728   4.903  17.790  0.00  0.00    +0.000 A 
ATOM     12  H   UNL     1       7.294   3.282  15.599  0.00  0.00    +0.000 HD
ENDROOT
TORSDOF 0
ENDMDL
MODEL 5
REMARK VINA RESULT:      -5.6      3.639      4.472
REMARK  Name = 
REMARK  0 active torsions:
REMARK  status: ('A' for Active; 'I' for Inactive)
REMARK                            x       y       z     vdW  Elec       q    Type
REMARK                         _______ _______ _______ _____ _____    ______ ____
ROOT
ATOM      1  O   UNL     1       4.767   5.622  18.432  0.00  0.00    +0.000 OA
ATOM      2  S   UNL     1       4.301   4.270  18.246  0.00  0.00    +0.000 S 
ATOM      3  O   UNL     1       3.963   3.694  16.968  0.00  0.00    +0.000 OA
ATOM      4  N   UNL     1       5.434   3.255  19.025  0.00  0.00    +0.000 NA
ATOM      5  C   UNL     1       4.742   2.393  20.025  0.00  0.00    +0.000 C 
ATOM      6  C   UNL     1       3.355   2.920  20.240  0.00  0.00    +0.000 A 
ATOM      7  C   UNL     1       2.432   2.489  21.182  0.00  0.00    +0.000 A 
ATOM      8  C   UNL     1       1.185   3.123  21.241  0.00  0.00    +0.000 A 
ATOM      9  C   UNL     1       0.870   4.179  20.368  0.00  0.00    +0.000 A 
ATOM     10  C   UNL     1       1.790   4.603  19.410  0.00  0.00    +0.000 A 
ATOM     11  C   UNL     1       3.006   3.945  19.366  0.00  0.00    +0.000 A 
ATOM     12  H   UNL     1       6.147   3.855  19.442  0.00  0.00    +0.000 HD
ENDROOT
TORSDOF 0
ENDMDL
MODEL 6
REMARK VINA RESULT:      -5.6      1.852      2.523
REMARK  Name = 
REMARK  0 active torsions:
REMARK  status: ('A' for Active; 'I' for Inactive)
REMARK                            x       y       z     vdW  Elec       q    Type
REMARK                         _______ _______ _______ _____ _____    ______ ____
ROOT
ATOM      1  O   UNL     1       8.079   4.914  19.263  0.00  0.00    +0.000 OA
ATOM      2  S   UNL     1       7.415   5.531  18.142  0.00  0.00    +0.000 S 
ATOM      3  O   UNL     1       7.537   6.924  17.788  0.00  0.00    +0.000 OA
ATOM      4  N   UNL     1       7.792   4.581  16.773  0.00  0.00    +0.000 NA
ATOM      5  C   UNL     1       6.538   4.127  16.106  0.00  0.00    +0.000 C 
ATOM      6  C   UNL     1       5.382   4.384  17.026  0.00  0.00    +0.000 A 
ATOM      7  C   UNL     1       4.064   3.991  16.843  0.00  0.00    +0.000 A 
ATOM      8  C   UNL     1       3.125   4.310  17.832  0.00  0.00    +0.000 A 
ATOM      9  C   UNL     1       3.504   5.011  18.989  0.00  0.00    +0.000 A 
ATOM     10  C   UNL     1       4.824   5.421  19.167  0.00  0.00    +0.000 A 
ATOM     11  C   UNL     1       5.725   5.106  18.165  0.00  0.00    +0.000 A 
ATOM     12  H   UNL     1       8.376   3.805  17.088  0.00  0.00    +0.000 HD
ENDROOT
TORSDOF 0
ENDMDL
MODEL 7
REMARK VINA RESULT:      -5.6      2.863      3.423
REMARK  Name = 
REMARK  0 active torsions:
REMARK  status: ('A' for Active; 'I' for Inactive)
REMARK                            x       y       z     vdW  Elec       q    Type
REMARK                         _______ _______ _______ _____ _____    ______ ____
ROOT
ATOM      1  O   UNL     1       5.117   3.248  19.615  0.00  0.00    +0.000 OA
ATOM      2  S   UNL     1       5.224   4.606  19.141  0.00  0.00    +0.000 S 
ATOM      3  O   UNL     1       4.234   5.629  19.369  0.00  0.00    +0.000 OA
ATOM      4  N   UNL     1       6.744   5.184  19.665  0.00  0.00    +0.000 NA
ATOM      5  C   UNL     1       7.533   5.673  18.499  0.00  0.00    +0.000 C 
ATOM      6  C   UNL     1       6.871   5.206  17.238  0.00  0.00    +0.000 A 
ATOM      7  C   UNL     1       7.353   5.332  15.943  0.00  0.00    +0.000 A 
ATOM      8  C   UNL     1       6.592   4.812  14.889  0.00  0.00    +0.000 A 
ATOM      9  C   UNL     1       5.365   4.170  15.131  0.00  0.00    +0.000 A 
ATOM     10  C   UNL     1       4.872   4.056  16.430  0.00  0.00    +0.000 A 
ATOM     11  C   UNL     1       5.638   4.596  17.448  0.00  0.00    +0.000 A 
ATOM     12  H   UNL     1       7.206   4.424  20.167  0.00  0.00    +0.000 HD
ENDROOT
TORSDOF 0
ENDMDL
MODEL 8
REMARK VINA RESULT:      -5.6      3.182      4.164
REMARK  Name = 
REMARK  0 active torsions:
REMARK  status: ('A' for Active; 'I' for Inactive)
REMARK                            x       y       z     vdW  Elec       q    Type
REMARK                         _______ _______ _______ _____ _____    ______ ____
ROOT
ATOM      1  O   UNL     1       6.336   4.568  19.011  0.00  0.00    +0.000 OA
ATOM      2  S   UNL     1       5.095   3.959  18.601  0.00  0.00    +0.000 S 
ATOM      3  O   UNL     1       4.749   3.655  17.234  0.00  0.00    +0.000 OA
ATOM      4  N   UNL     1       4.915   2.544  19.542  0.00  0.00    +0.000 NA
ATOM      5  C   UNL     1       3.612   2.576  20.266  0.00  0.00    +0.000 C 
ATOM      6  C   UNL     1       3.046   3.961  20.181  0.00  0.00    +0.000 A 
ATOM      7  C   UNL     1       1.919   4.447  20.829  0.00  0.00    +0.000 A 
ATOM      8  C   UNL     1       1.558   5.786  20.636  0.00  0.00    +0.000 A 
ATOM      9  C   UNL     1       2.319   6.628  19.807  0.00  0.00    +0.000 A 
ATOM     10  C   UNL     1       3.442   6.138  19.143  0.00  0.00    +0.000 A 
ATOM     11  C   UNL     1       3.763   4.807  19.340  0.00  0.00    +0.000 A 
ATOM     12  H   UNL     1       5.717   2.489  20.171  0.00  0.00    +0.000 HD
ENDROOT
TORSDOF 0
ENDMDL
MODEL 9
REMARK VINA RESULT:      -5.5      3.709      4.333
REMARK  Name = 
REMARK  0 active torsions:
REMARK  status: ('A' for Active; 'I' for Inactive)
REMARK                            x       y       z     vdW  Elec       q    Type
REMARK                         _______ _______ _______ _____ _____    ______ ____
ROOT
ATOM      1  O   UNL     1       3.761   6.549  17.789  0.00  0.00    +0.000 OA
ATOM      2  S   UNL     1       3.819   5.760  18.994  0.00  0.00    +0.000 S 
ATOM      3  O   UNL     1       5.040   5.391  19.668  0.00  0.00    +0.000 OA
ATOM      4  N   UNL     1       2.777   6.515  20.119  0.00  0.00    +0.000 NA
ATOM      5  C   UNL     1       1.762   5.539  20.608  0.00  0.00    +0.000 C 
ATOM      6  C   UNL     1       1.793   4.328  19.726  0.00  0.00    +0.000 A 
ATOM      7  C   UNL     1       0.922   3.248  19.756  0.00  0.00    +0.000 A 
ATOM      8  C   UNL     1       1.103   2.212  18.831  0.00  0.00    +0.000 A 
ATOM      9  C   UNL     1       2.142   2.261  17.886  0.00  0.00    +0.000 A 
ATOM     10  C   UNL     1       3.028   3.337  17.864  0.00  0.00    +0.000 A 
ATOM     11  C   UNL     1       2.833   4.336  18.802  0.00  0.00    +0.000 A 
ATOM     12  H   UNL     1       2.360   7.324  19.656  0.00  0.00    +0.000 HD
ENDROOT
TORSDOF 0
ENDMDL
