MODEL 1
REMARK VINA RESULT:      -7.2      0.000      0.000
REMARK  Name = 
REMARK  11 active torsions:
REMARK  status: ('A' for Active; 'I' for Inactive)
REMARK    1  A    between atoms: C_2  and  O_3
REMARK    2  A    between atoms: C_2  and  C_4
REMARK    3  A    between atoms: C_4  and  C_5
REMARK    4  A    between atoms: C_5  and  C_6
REMARK    5  A    between atoms: C_6  and  C_7
REMARK    6  A    between atoms: C_7  and  C_8
REMARK    7  A    between atoms: C_11  and  O_12
REMARK    8  A    between atoms: O_12  and  C_13
REMARK    9  A    between atoms: C_13  and  C_14
REMARK   10  A    between atoms: C_14  and  N_15
REMARK   11  A    between atoms: N_15  and  C_16
REMARK                            x       y       z     vdW  Elec       q    Type
REMARK                         _______ _______ _______ _____ _____    ______ ____
ROOT
ATOM      1  O   UNL     1       1.128   8.114  21.662  0.00  0.00    +0.000 OA
ENDROOT
BRANCH   1   5
ATOM      2  C   UNL     1       2.558   5.621  18.592  0.00  0.00    +0.000 A 
ATOM      3  C   UNL     1       2.190   5.071  19.821  0.00  0.00    +0.000 A 
ATOM      4  C   UNL     1       1.700   5.873  20.840  0.00  0.00    +0.000 A 
ATOM      5  C   UNL     1       1.606   7.260  20.687  0.00  0.00    +0.000 A 
ATOM      6  C   UNL     1       2.022   7.823  19.478  0.00  0.00    +0.000 A 
ATOM      7  C   UNL     1       2.491   7.010  18.431  0.00  0.00    +0.000 A 
BRANCH   2   8
ATOM      8  C   UNL     1       2.948   4.687  17.474  0.00  0.00    +0.000 C 
BRANCH   8   9
ATOM      9  C   UNL     1       4.261   3.973  17.822  0.00  0.00    +0.000 C 
BRANCH   9  10
ATOM     10  C   UNL     1       5.428   4.941  17.969  0.00  0.00    +0.000 C 
BRANCH  10  11
ATOM     11  C   UNL     1       5.868   5.462  16.600  0.00  0.00    +0.000 C 
BRANCH  11  13
ATOM     12  O   UNL     1       7.960   4.264  16.914  0.00  0.00    +0.000 OA
ATOM     13  C   UNL     1       7.224   4.936  16.203  0.00  0.00    +0.000 C 
BRANCH  13  14
ATOM     14  O   UNL     1       7.562   5.286  14.941  0.00  0.00    +0.000 OA
ATOM     15  H   UNL     1       7.103   6.084  14.619  0.00  0.00    +0.000 HD
ENDBRANCH  13  14
ENDBRANCH  11  13
ENDBRANCH  10  11
ENDBRANCH   9  10
ENDBRANCH   8   9
ENDBRANCH   2   8
ENDBRANCH   1   5
BRANCH   1  16
ATOM     16  C   UNL     1       0.167   9.057  21.162  0.00  0.00    +0.000 C 
BRANCH  16  17
ATOM     17  C   UNL     1       0.534  10.525  21.399  0.00  0.00    +0.000 C 
BRANCH  17  18
ATOM     18  N   UNL     1       0.388  11.295  20.137  0.00  0.00    +0.000 N 
ATOM     19  C   UNL     1       1.426  12.234  19.888  0.00  0.00    +0.000 A 
ATOM     20  C   UNL     1       1.767  12.582  18.571  0.00  0.00    +0.000 A 
ATOM     21  C   UNL     1       2.695  13.590  18.319  0.00  0.00    +0.000 A 
ATOM     22  C   UNL     1       3.302  14.225  19.388  0.00  0.00    +0.000 A 
ATOM     23  C   UNL     1       2.970  13.795  20.659  0.00  0.00    +0.000 A 
ATOM     24  N   UNL     1       2.071  12.815  20.924  0.00  0.00    +0.000 NA
BRANCH  18  25
ATOM     25  C   UNL     1      -0.711  11.041  19.290  0.00  0.00    +0.000 A 
ATOM     26  C   UNL     1      -0.690  10.130  18.229  0.00  0.00    +0.000 A 
ATOM     27  C   UNL     1      -1.773  10.029  17.350  0.00  0.00    +0.000 A 
ATOM     28  C   UNL     1      -2.883  10.822  17.569  0.00  0.00    +0.000 A 
ATOM     29  N   UNL     1      -2.989  11.673  18.605  0.00  0.00    +0.000 NA
ATOM     30  C   UNL     1      -1.916  11.746  19.433  0.00  0.00    +0.000 A 
ENDBRANCH  18  25
ENDBRANCH  17  18
ENDBRANCH  16  17
ENDBRANCH   1  16
TORSDOF 11
ENDMDL
MODEL 2
REMARK VINA RESULT:      -7.1      2.466      3.146
REMARK  Name = 
REMARK  11 active torsions:
REMARK  status: ('A' for Active; 'I' for Inactive)
REMARK    1  A    between atoms: C_2  and  O_3
REMARK    2  A    between atoms: C_2  and  C_4
REMARK    3  A    between atoms: C_4  and  C_5
REMARK    4  A    between atoms: C_5  and  C_6
REMARK    5  A    between atoms: C_6  and  C_7
REMARK    6  A    between atoms: C_7  and  C_8
REMARK    7  A    between atoms: C_11  and  O_12
REMARK    8  A    between atoms: O_12  and  C_13
REMARK    9  A    between atoms: C_13  and  C_14
REMARK   10  A    between atoms: C_14  and  N_15
REMARK   11  A    between atoms: N_15  and  C_16
REMARK                            x       y       z     vdW  Elec       q    Type
REMARK                         _______ _______ _______ _____ _____    ______ ____
ROOT
ATOM      1  O   UNL     1       1.141   9.724  20.575  0.00  0.00    +0.000 OA
ENDROOT
BRANCH   1   5
ATOM      2  C   UNL     1       2.565   6.349  18.509  0.00  0.00    +0.000 A 
ATOM      3  C   UNL     1       2.251   6.255  19.866  0.00  0.00    +0.000 A 
ATOM      4  C   UNL     1       1.764   7.351  20.561  0.00  0.00    +0.000 A 
ATOM      5  C   UNL     1       1.619   8.596  19.939  0.00  0.00    +0.000 A 
ATOM      6  C   UNL     1       1.981   8.711  18.595  0.00  0.00    +0.000 A 
ATOM      7  C   UNL     1       2.446   7.594  17.878  0.00  0.00    +0.000 A 
BRANCH   2   8
ATOM      8  C   UNL     1       2.953   5.093  17.772  0.00  0.00    +0.000 C 
BRANCH   8   9
ATOM      9  C   UNL     1       1.742   4.156  17.660  0.00  0.00    +0.000 C 
BRANCH   9  10
ATOM     10  C   UNL     1       2.110   2.699  17.913  0.00  0.00    +0.000 C 
BRANCH  10  11
ATOM     11  C   UNL     1       1.291   2.133  19.074  0.00  0.00    +0.000 C 
BRANCH  11  13
ATOM     12  O   UNL     1       3.008   2.697  20.700  0.00  0.00    +0.000 OA
ATOM     13  C   UNL     1       1.824   2.577  20.413  0.00  0.00    +0.000 C 
BRANCH  13  14
ATOM     14  O   UNL     1       0.836   2.845  21.296  0.00  0.00    +0.000 OA
ATOM     15  H   UNL     1       0.047   2.282  21.185  0.00  0.00    +0.000 HD
ENDBRANCH  13  14
ENDBRANCH  11  13
ENDBRANCH  10  11
ENDBRANCH   9  10
ENDBRANCH   8   9
ENDBRANCH   2   8
ENDBRANCH   1   5
BRANCH   1  16
ATOM     16  C   UNL     1      -0.166   9.539  21.142  0.00  0.00    +0.000 C 
BRANCH  16  17
ATOM     17  C   UNL     1      -1.002  10.819  21.244  0.00  0.00    +0.000 C 
BRANCH  17  18
ATOM     18  N   UNL     1      -0.935  11.572  19.964  0.00  0.00    +0.000 N 
ATOM     19  C   UNL     1      -0.002  12.644  19.953  0.00  0.00    +0.000 A 
ATOM     20  C   UNL     1       0.602  13.045  18.750  0.00  0.00    +0.000 A 
ATOM     21  C   UNL     1       1.422  14.171  18.706  0.00  0.00    +0.000 A 
ATOM     22  C   UNL     1       1.658  14.874  19.874  0.00  0.00    +0.000 A 
ATOM     23  C   UNL     1       1.086  14.393  21.036  0.00  0.00    +0.000 A 
ATOM     24  N   UNL     1       0.287  13.299  21.099  0.00  0.00    +0.000 NA
BRANCH  18  25
ATOM     25  C   UNL     1      -1.749  11.179  18.882  0.00  0.00    +0.000 A 
ATOM     26  C   UNL     1      -1.364  10.255  17.905  0.00  0.00    +0.000 A 
ATOM     27  C   UNL     1      -2.170  10.014  16.789  0.00  0.00    +0.000 A 
ATOM     28  C   UNL     1      -3.376  10.682  16.684  0.00  0.00    +0.000 A 
ATOM     29  N   UNL     1      -3.830  11.536  17.617  0.00  0.00    +0.000 NA
ATOM     30  C   UNL     1      -3.018  11.746  18.684  0.00  0.00    +0.000 A 
ENDBRANCH  18  25
ENDBRANCH  17  18
ENDBRANCH  16  17
ENDBRANCH   1  16
TORSDOF 11
ENDMDL
MODEL 3
REMARK VINA RESULT:      -7.1      3.972      9.477
REMARK  Name = 
REMARK  11 active torsions:
REMARK  status: ('A' for Active; 'I' for Inactive)
REMARK    1  A    between atoms: C_2  and  O_3
REMARK    2  A    between atoms: C_2  and  C_4
REMARK    3  A    between atoms: C_4  and  C_5
REMARK    4  A    between atoms: C_5  and  C_6
REMARK    5  A    between atoms: C_6  and  C_7
REMARK    6  A    between atoms: C_7  and  C_8
REMARK    7  A    between atoms: C_11  and  O_12
REMARK    8  A    between atoms: O_12  and  C_13
REMARK    9  A    between atoms: C_13  and  C_14
REMARK   10  A    between atoms: C_14  and  N_15
REMARK   11  A    between atoms: N_15  and  C_16
REMARK                            x       y       z     vdW  Elec       q    Type
REMARK                         _______ _______ _______ _____ _____    ______ ____
ROOT
ATOM      1  O   UNL     1       1.002   9.175  18.515  0.00  0.00    +0.000 OA
ENDROOT
BRANCH   1   5
ATOM      2  C   UNL     1      -0.765  11.116  21.800  0.00  0.00    +0.000 A 
ATOM      3  C   UNL     1      -0.182   9.859  21.964  0.00  0.00    +0.000 A 
ATOM      4  C   UNL     1       0.421   9.209  20.899  0.00  0.00    +0.000 A 
ATOM      5  C   UNL     1       0.420   9.770  19.617  0.00  0.00    +0.000 A 
ATOM      6  C   UNL     1      -0.207  11.005  19.434  0.00  0.00    +0.000 A 
ATOM      7  C   UNL     1      -0.793  11.680  20.519  0.00  0.00    +0.000 A 
BRANCH   2   8
ATOM      8  C   UNL     1      -1.277  11.837  23.021  0.00  0.00    +0.000 C 
BRANCH   8   9
ATOM      9  C   UNL     1      -2.273  12.928  22.605  0.00  0.00    +0.000 C 
BRANCH   9  10
ATOM     10  C   UNL     1      -2.846  13.679  23.802  0.00  0.00    +0.000 C 
BRANCH  10  11
ATOM     11  C   UNL     1      -4.329  13.983  23.584  0.00  0.00    +0.000 C 
BRANCH  11  13
ATOM     12  O   UNL     1      -6.153  12.383  23.422  0.00  0.00    +0.000 OA
ATOM     13  C   UNL     1      -5.212  12.852  24.049  0.00  0.00    +0.000 C 
BRANCH  13  14
ATOM     14  O   UNL     1      -4.851  12.385  25.266  0.00  0.00    +0.000 OA
ATOM     15  H   UNL     1      -4.012  12.759  25.596  0.00  0.00    +0.000 HD
ENDBRANCH  13  14
ENDBRANCH  11  13
ENDBRANCH  10  11
ENDBRANCH   9  10
ENDBRANCH   8   9
ENDBRANCH   2   8
ENDBRANCH   1   5
BRANCH   1  16
ATOM     16  C   UNL     1       2.016   8.219  18.862  0.00  0.00    +0.000 C 
BRANCH  16  17
ATOM     17  C   UNL     1       2.475   7.329  17.702  0.00  0.00    +0.000 C 
BRANCH  17  18
ATOM     18  N   UNL     1       3.123   6.100  18.231  0.00  0.00    +0.000 N 
ATOM     19  C   UNL     1       4.544   6.133  18.240  0.00  0.00    +0.000 A 
ATOM     20  C   UNL     1       5.264   5.390  19.191  0.00  0.00    +0.000 A 
ATOM     21  C   UNL     1       6.654   5.317  19.131  0.00  0.00    +0.000 A 
ATOM     22  C   UNL     1       7.320   6.013  18.139  0.00  0.00    +0.000 A 
ATOM     23  C   UNL     1       6.560   6.776  17.273  0.00  0.00    +0.000 A 
ATOM     24  N   UNL     1       5.207   6.861  17.315  0.00  0.00    +0.000 NA
BRANCH  18  25
ATOM     25  C   UNL     1       2.322   5.035  18.692  0.00  0.00    +0.000 A 
ATOM     26  C   UNL     1       1.951   4.853  20.029  0.00  0.00    +0.000 A 
ATOM     27  C   UNL     1       1.268   3.702  20.432  0.00  0.00    +0.000 A 
ATOM     28  C   UNL     1       0.933   2.759  19.478  0.00  0.00    +0.000 A 
ATOM     29  N   UNL     1       1.207   2.903  18.170  0.00  0.00    +0.000 NA
ATOM     30  C   UNL     1       1.874   4.032  17.818  0.00  0.00    +0.000 A 
ENDBRANCH  18  25
ENDBRANCH  17  18
ENDBRANCH  16  17
ENDBRANCH   1  16
TORSDOF 11
ENDMDL
MODEL 4
REMARK VINA RESULT:      -7.1      1.228      1.682
REMARK  Name = 
REMARK  11 active torsions:
REMARK  status: ('A' for Active; 'I' for Inactive)
REMARK    1  A    between atoms: C_2  and  O_3
REMARK    2  A    between atoms: C_2  and  C_4
REMARK    3  A    between atoms: C_4  and  C_5
REMARK    4  A    between atoms: C_5  and  C_6
REMARK    5  A    between atoms: C_6  and  C_7
REMARK    6  A    between atoms: C_7  and  C_8
REMARK    7  A    between atoms: C_11  and  O_12
REMARK    8  A    between atoms: O_12  and  C_13
REMARK    9  A    between atoms: C_13  and  C_14
REMARK   10  A    between atoms: C_14  and  N_15
REMARK   11  A    between atoms: N_15  and  C_16
REMARK                            x       y       z     vdW  Elec       q    Type
REMARK                         _______ _______ _______ _____ _____    ______ ____
ROOT
ATOM      1  O   UNL     1       1.413   8.117  20.903  0.00  0.00    +0.000 OA
ENDROOT
BRANCH   1   5
ATOM      2  C   UNL     1       2.764   4.936  18.508  0.00  0.00    +0.000 A 
ATOM      3  C   UNL     1       2.840   6.246  18.034  0.00  0.00    +0.000 A 
ATOM      4  C   UNL     1       2.417   7.311  18.814  0.00  0.00    +0.000 A 
ATOM      5  C   UNL     1       1.855   7.102  20.078  0.00  0.00    +0.000 A 
ATOM      6  C   UNL     1       1.728   5.789  20.538  0.00  0.00    +0.000 A 
ATOM      7  C   UNL     1       2.185   4.709  19.762  0.00  0.00    +0.000 A 
BRANCH   2   8
ATOM      8  C   UNL     1       3.371   3.834  17.677  0.00  0.00    +0.000 C 
BRANCH   8   9
ATOM      9  C   UNL     1       4.844   4.149  17.384  0.00  0.00    +0.000 C 
BRANCH   9  10
ATOM     10  C   UNL     1       5.115   4.324  15.894  0.00  0.00    +0.000 C 
BRANCH  10  11
ATOM     11  C   UNL     1       6.611   4.193  15.603  0.00  0.00    +0.000 C 
BRANCH  11  13
ATOM     12  O   UNL     1       6.483   4.007  13.182  0.00  0.00    +0.000 OA
ATOM     13  C   UNL     1       6.942   4.553  14.176  0.00  0.00    +0.000 C 
BRANCH  13  14
ATOM     14  O   UNL     1       7.822   5.578  14.096  0.00  0.00    +0.000 OA
ATOM     15  H   UNL     1       8.275   5.772  14.938  0.00  0.00    +0.000 HD
ENDBRANCH  13  14
ENDBRANCH  11  13
ENDBRANCH  10  11
ENDBRANCH   9  10
ENDBRANCH   8   9
ENDBRANCH   2   8
ENDBRANCH   1   5
BRANCH   1  16
ATOM     16  C   UNL     1       1.128   9.334  20.194  0.00  0.00    +0.000 C 
BRANCH  16  17
ATOM     17  C   UNL     1      -0.244   9.941  20.500  0.00  0.00    +0.000 C 
BRANCH  17  18
ATOM     18  N   UNL     1      -0.540  11.037  19.540  0.00  0.00    +0.000 N 
ATOM     19  C   UNL     1       0.282  12.188  19.678  0.00  0.00    +0.000 A 
ATOM     20  C   UNL     1       0.552  13.004  18.567  0.00  0.00    +0.000 A 
ATOM     21  C   UNL     1       1.252  14.199  18.717  0.00  0.00    +0.000 A 
ATOM     22  C   UNL     1       1.708  14.557  19.973  0.00  0.00    +0.000 A 
ATOM     23  C   UNL     1       1.465  13.681  21.014  0.00  0.00    +0.000 A 
ATOM     24  N   UNL     1       0.787  12.514  20.889  0.00  0.00    +0.000 NA
BRANCH  18  25
ATOM     25  C   UNL     1      -1.557  10.863  18.578  0.00  0.00    +0.000 A 
ATOM     26  C   UNL     1      -1.451  10.019  17.468  0.00  0.00    +0.000 A 
ATOM     27  C   UNL     1      -2.447  10.000  16.486  0.00  0.00    +0.000 A 
ATOM     28  C   UNL     1      -3.557  10.807  16.649  0.00  0.00    +0.000 A 
ATOM     29  N   UNL     1      -3.745  11.595  17.722  0.00  0.00    +0.000 NA
ATOM     30  C   UNL     1      -2.756  11.588  18.651  0.00  0.00    +0.000 A 
ENDBRANCH  18  25
ENDBRANCH  17  18
ENDBRANCH  16  17
ENDBRANCH   1  16
TORSDOF 11
ENDMDL
MODEL 5
REMARK VINA RESULT:      -7.1      1.415      1.496
REMARK  Name = 
REMARK  11 active torsions:
REMARK  status: ('A' for Active; 'I' for Inactive)
REMARK    1  A    between atoms: C_2  and  O_3
REMARK    2  A    between atoms: C_2  and  C_4
REMARK    3  A    between atoms: C_4  and  C_5
REMARK    4  A    between atoms: C_5  and  C_6
REMARK    5  A    between atoms: C_6  and  C_7
REMARK    6  A    between atoms: C_7  and  C_8
REMARK    7  A    between atoms: C_11  and  O_12
REMARK    8  A    between atoms: O_12  and  C_13
REMARK    9  A    between atoms: C_13  and  C_14
REMARK   10  A    between atoms: C_14  and  N_15
REMARK   11  A    between atoms: N_15  and  C_16
REMARK                            x       y       z     vdW  Elec       q    Type
REMARK                         _______ _______ _______ _____ _____    ______ ____
ROOT
ATOM      1  O   UNL     1       1.502   8.716  20.903  0.00  0.00    +0.000 OA
ENDROOT
BRANCH   1   5
ATOM      2  C   UNL     1       2.324   5.320  18.562  0.00  0.00    +0.000 A 
ATOM      3  C   UNL     1       1.925   5.170  19.891  0.00  0.00    +0.000 A 
ATOM      4  C   UNL     1       1.633   6.275  20.675  0.00  0.00    +0.000 A 
ATOM      5  C   UNL     1       1.776   7.574  20.175  0.00  0.00    +0.000 A 
ATOM      6  C   UNL     1       2.225   7.733  18.861  0.00  0.00    +0.000 A 
ATOM      7  C   UNL     1       2.492   6.613  18.054  0.00  0.00    +0.000 A 
BRANCH   2   8
ATOM      8  C   UNL     1       2.489   4.082  17.717  0.00  0.00    +0.000 C 
BRANCH   8   9
ATOM      9  C   UNL     1       3.912   3.528  17.872  0.00  0.00    +0.000 C 
BRANCH   9  10
ATOM     10  C   UNL     1       4.724   3.643  16.587  0.00  0.00    +0.000 C 
BRANCH  10  11
ATOM     11  C   UNL     1       5.588   4.905  16.610  0.00  0.00    +0.000 C 
BRANCH  11  13
ATOM     12  O   UNL     1       7.409   4.409  18.142  0.00  0.00    +0.000 OA
ATOM     13  C   UNL     1       7.013   4.607  17.001  0.00  0.00    +0.000 C 
BRANCH  13  14
ATOM     14  O   UNL     1       7.843   4.572  15.933  0.00  0.00    +0.000 OA
ATOM     15  H   UNL     1       8.566   5.224  15.977  0.00  0.00    +0.000 HD
ENDBRANCH  13  14
ENDBRANCH  11  13
ENDBRANCH  10  11
ENDBRANCH   9  10
ENDBRANCH   8   9
ENDBRANCH   2   8
ENDBRANCH   1   5
BRANCH   1  16
ATOM     16  C   UNL     1       0.987   9.787  20.096  0.00  0.00    +0.000 C 
BRANCH  16  17
ATOM     17  C   UNL     1      -0.495  10.101  20.327  0.00  0.00    +0.000 C 
BRANCH  17  18
ATOM     18  N   UNL     1      -0.930  11.191  19.415  0.00  0.00    +0.000 N 
ATOM     19  C   UNL     1      -0.318  12.450  19.658  0.00  0.00    +0.000 A 
ATOM     20  C   UNL     1      -0.144  13.368  18.609  0.00  0.00    +0.000 A 
ATOM     21  C   UNL     1       0.341  14.650  18.859  0.00  0.00    +0.000 A 
ATOM     22  C   UNL     1       0.680  14.998  20.154  0.00  0.00    +0.000 A 
ATOM     23  C   UNL     1       0.545  14.030  21.132  0.00  0.00    +0.000 A 
ATOM     24  N   UNL     1       0.077  12.778  20.909  0.00  0.00    +0.000 NA
BRANCH  18  25
ATOM     25  C   UNL     1      -1.865  10.914  18.396  0.00  0.00    +0.000 A 
ATOM     26  C   UNL     1      -1.619  10.060  17.316  0.00  0.00    +0.000 A 
ATOM     27  C   UNL     1      -2.543   9.939  16.274  0.00  0.00    +0.000 A 
ATOM     28  C   UNL     1      -3.725  10.652  16.347  0.00  0.00    +0.000 A 
ATOM     29  N   UNL     1      -4.047  11.442  17.386  0.00  0.00    +0.000 NA
ATOM     30  C   UNL     1      -3.123  11.537  18.376  0.00  0.00    +0.000 A 
ENDBRANCH  18  25
ENDBRANCH  17  18
ENDBRANCH  16  17
ENDBRANCH   1  16
TORSDOF 11
ENDMDL
MODEL 6
REMARK VINA RESULT:      -7.1      3.970      9.465
REMARK  Name = 
REMARK  11 active torsions:
REMARK  status: ('A' for Active; 'I' for Inactive)
REMARK    1  A    between atoms: C_2  and  O_3
REMARK    2  A    between atoms: C_2  and  C_4
REMARK    3  A    between atoms: C_4  and  C_5
REMARK    4  A    between atoms: C_5  and  C_6
REMARK    5  A    between atoms: C_6  and  C_7
REMARK    6  A    between atoms: C_7  and  C_8
REMARK    7  A    between atoms: C_11  and  O_12
REMARK    8  A    between atoms: O_12  and  C_13
REMARK    9  A    between atoms: C_13  and  C_14
REMARK   10  A    between atoms: C_14  and  N_15
REMARK   11  A    between atoms: N_15  and  C_16
REMARK                            x       y       z     vdW  Elec       q    Type
REMARK                         _______ _______ _______ _____ _____    ______ ____
ROOT
ATOM      1  O   UNL     1       2.047   8.696  18.367  0.00  0.00    +0.000 OA
ENDROOT
BRANCH   1   5
ATOM      2  C   UNL     1      -0.272  10.774  21.193  0.00  0.00    +0.000 A 
ATOM      3  C   UNL     1       0.349   9.575  21.547  0.00  0.00    +0.000 A 
ATOM      4  C   UNL     1       1.132   8.884  20.636  0.00  0.00    +0.000 A 
ATOM      5  C   UNL     1       1.283   9.338  19.322  0.00  0.00    +0.000 A 
ATOM      6  C   UNL     1       0.623  10.510  18.945  0.00  0.00    +0.000 A 
ATOM      7  C   UNL     1      -0.147  11.231  19.875  0.00  0.00    +0.000 A 
BRANCH   2   8
ATOM      8  C   UNL     1      -0.991  11.555  22.263  0.00  0.00    +0.000 C 
BRANCH   8   9
ATOM      9  C   UNL     1      -1.899  12.612  21.619  0.00  0.00    +0.000 C 
BRANCH   9  10
ATOM     10  C   UNL     1      -3.253  12.715  22.311  0.00  0.00    +0.000 C 
BRANCH  10  11
ATOM     11  C   UNL     1      -3.182  12.122  23.719  0.00  0.00    +0.000 C 
BRANCH  11  13
ATOM     12  O   UNL     1      -5.407  11.989  24.691  0.00  0.00    +0.000 OA
ATOM     13  C   UNL     1      -4.336  12.571  24.580  0.00  0.00    +0.000 C 
BRANCH  13  14
ATOM     14  O   UNL     1      -4.064  13.716  25.247  0.00  0.00    +0.000 OA
ATOM     15  H   UNL     1      -3.187  13.723  25.673  0.00  0.00    +0.000 HD
ENDBRANCH  13  14
ENDBRANCH  11  13
ENDBRANCH  10  11
ENDBRANCH   9  10
ENDBRANCH   8   9
ENDBRANCH   2   8
ENDBRANCH   1   5
BRANCH   1  16
ATOM     16  C   UNL     1       2.463   7.382  18.771  0.00  0.00    +0.000 C 
BRANCH  16  17
ATOM     17  C   UNL     1       2.927   6.481  17.622  0.00  0.00    +0.000 C 
BRANCH  17  18
ATOM     18  N   UNL     1       3.892   5.470  18.128  0.00  0.00    +0.000 N 
ATOM     19  C   UNL     1       5.234   5.928  18.232  0.00  0.00    +0.000 A 
ATOM     20  C   UNL     1       6.100   5.373  19.188  0.00  0.00    +0.000 A 
ATOM     21  C   UNL     1       7.448   5.726  19.217  0.00  0.00    +0.000 A 
ATOM     22  C   UNL     1       7.916   6.658  18.308  0.00  0.00    +0.000 A 
ATOM     23  C   UNL     1       7.001   7.214  17.434  0.00  0.00    +0.000 A 
ATOM     24  N   UNL     1       5.687   6.885  17.392  0.00  0.00    +0.000 NA
BRANCH  18  25
ATOM     25  C   UNL     1       3.433   4.184  18.479  0.00  0.00    +0.000 A 
ATOM     26  C   UNL     1       3.606   3.045  17.686  0.00  0.00    +0.000 A 
ATOM     27  C   UNL     1       3.007   1.831  18.037  0.00  0.00    +0.000 A 
ATOM     28  C   UNL     1       2.267   1.766  19.203  0.00  0.00    +0.000 A 
ATOM     29  N   UNL     1       2.114   2.809  20.038  0.00  0.00    +0.000 NA
ATOM     30  C   UNL     1       2.708   3.970  19.662  0.00  0.00    +0.000 A 
ENDBRANCH  18  25
ENDBRANCH  17  18
ENDBRANCH  16  17
ENDBRANCH   1  16
TORSDOF 11
ENDMDL
MODEL 7
REMARK VINA RESULT:      -7.1      1.139      1.681
REMARK  Name = 
REMARK  11 active torsions:
REMARK  status: ('A' for Active; 'I' for Inactive)
REMARK    1  A    between atoms: C_2  and  O_3
REMARK    2  A    between atoms: C_2  and  C_4
REMARK    3  A    between atoms: C_4  and  C_5
REMARK    4  A    between atoms: C_5  and  C_6
REMARK    5  A    between atoms: C_6  and  C_7
REMARK    6  A    between atoms: C_7  and  C_8
REMARK    7  A    between atoms: C_11  and  O_12
REMARK    8  A    between atoms: O_12  and  C_13
REMARK    9  A    between atoms: C_13  and  C_14
REMARK   10  A    between atoms: C_14  and  N_15
REMARK   11  A    between atoms: N_15  and  C_16
REMARK                            x       y       z     vdW  Elec       q    Type
REMARK                         _______ _______ _______ _____ _____    ______ ____
ROOT
ATOM      1  O   UNL     1       1.336   8.821  19.282  0.00  0.00    +0.000 OA
ENDROOT
BRANCH   1   5
ATOM      2  C   UNL     1       3.974   5.602  18.676  0.00  0.00    +0.000 A 
ATOM      3  C   UNL     1       3.903   6.632  17.736  0.00  0.00    +0.000 A 
ATOM      4  C   UNL     1       3.053   7.710  17.925  0.00  0.00    +0.000 A 
ATOM      5  C   UNL     1       2.205   7.776  19.036  0.00  0.00    +0.000 A 
ATOM      6  C   UNL     1       2.233   6.724  19.955  0.00  0.00    +0.000 A 
ATOM      7  C   UNL     1       3.116   5.644  19.782  0.00  0.00    +0.000 A 
BRANCH   2   8
ATOM      8  C   UNL     1       5.017   4.530  18.491  0.00  0.00    +0.000 C 
BRANCH   8   9
ATOM      9  C   UNL     1       6.375   5.169  18.169  0.00  0.00    +0.000 C 
BRANCH   9  10
ATOM     10  C   UNL     1       7.007   4.587  16.911  0.00  0.00    +0.000 C 
BRANCH  10  11
ATOM     11  C   UNL     1       6.140   4.887  15.687  0.00  0.00    +0.000 C 
BRANCH  11  13
ATOM     12  O   UNL     1       7.788   5.396  13.973  0.00  0.00    +0.000 OA
ATOM     13  C   UNL     1       6.892   4.678  14.397  0.00  0.00    +0.000 C 
BRANCH  13  14
ATOM     14  O   UNL     1       6.471   3.578  13.730  0.00  0.00    +0.000 OA
ATOM     15  H   UNL     1       6.926   2.759  13.999  0.00  0.00    +0.000 HD
ENDBRANCH  13  14
ENDBRANCH  11  13
ENDBRANCH  10  11
ENDBRANCH   9  10
ENDBRANCH   8   9
ENDBRANCH   2   8
ENDBRANCH   1   5
BRANCH   1  16
ATOM     16  C   UNL     1       1.097   9.036  20.681  0.00  0.00    +0.000 C 
BRANCH  16  17
ATOM     17  C   UNL     1       0.022  10.083  20.989  0.00  0.00    +0.000 C 
BRANCH  17  18
ATOM     18  N   UNL     1      -0.100  11.034  19.854  0.00  0.00    +0.000 N 
ATOM     19  C   UNL     1       0.939  12.000  19.771  0.00  0.00    +0.000 A 
ATOM     20  C   UNL     1       1.307  12.542  18.528  0.00  0.00    +0.000 A 
ATOM     21  C   UNL     1       2.237  13.576  18.450  0.00  0.00    +0.000 A 
ATOM     22  C   UNL     1       2.818  14.044  19.615  0.00  0.00    +0.000 A 
ATOM     23  C   UNL     1       2.461  13.428  20.799  0.00  0.00    +0.000 A 
ATOM     24  N   UNL     1       1.561  12.420  20.896  0.00  0.00    +0.000 NA
BRANCH  18  25
ATOM     25  C   UNL     1      -1.180  10.909  18.955  0.00  0.00    +0.000 A 
ATOM     26  C   UNL     1      -1.173  10.077  17.831  0.00  0.00    +0.000 A 
ATOM     27  C   UNL     1      -2.227  10.105  16.912  0.00  0.00    +0.000 A 
ATOM     28  C   UNL     1      -3.296  10.948  17.152  0.00  0.00    +0.000 A 
ATOM     29  N   UNL     1      -3.389  11.728  18.244  0.00  0.00    +0.000 NA
ATOM     30  C   UNL     1      -2.346  11.675  19.110  0.00  0.00    +0.000 A 
ENDBRANCH  18  25
ENDBRANCH  17  18
ENDBRANCH  16  17
ENDBRANCH   1  16
TORSDOF 11
ENDMDL
MODEL 8
REMARK VINA RESULT:      -7.1      3.844      9.001
REMARK  Name = 
REMARK  11 active torsions:
REMARK  status: ('A' for Active; 'I' for Inactive)
REMARK    1  A    between atoms: C_2  and  O_3
REMARK    2  A    between atoms: C_2  and  C_4
REMARK    3  A    between atoms: C_4  and  C_5
REMARK    4  A    between atoms: C_5  and  C_6
REMARK    5  A    between atoms: C_6  and  C_7
REMARK    6  A    between atoms: C_7  and  C_8
REMARK    7  A    between atoms: C_11  and  O_12
REMARK    8  A    between atoms: O_12  and  C_13
REMARK    9  A    between atoms: C_13  and  C_14
REMARK   10  A    between atoms: C_14  and  N_15
REMARK   11  A    between atoms: N_15  and  C_16
REMARK                            x       y       z     vdW  Elec       q    Type
REMARK                         _______ _______ _______ _____ _____    ______ ____
ROOT
ATOM      1  O   UNL     1       2.067   7.865  19.771  0.00  0.00    +0.000 OA
ENDROOT
BRANCH   1   5
ATOM      2  C   UNL     1      -0.720  10.821  18.685  0.00  0.00    +0.000 A 
ATOM      3  C   UNL     1       0.217  10.370  17.753  0.00  0.00    +0.000 A 
ATOM      4  C   UNL     1       1.133   9.385  18.085  0.00  0.00    +0.000 A 
ATOM      5  C   UNL     1       1.180   8.847  19.377  0.00  0.00    +0.000 A 
ATOM      6  C   UNL     1       0.280   9.330  20.329  0.00  0.00    +0.000 A 
ATOM      7  C   UNL     1      -0.671  10.308  19.987  0.00  0.00    +0.000 A 
BRANCH   2   8
ATOM      8  C   UNL     1      -1.782  11.788  18.227  0.00  0.00    +0.000 C 
BRANCH   8   9
ATOM      9  C   UNL     1      -3.119  11.054  18.054  0.00  0.00    +0.000 C 
BRANCH   9  10
ATOM     10  C   UNL     1      -3.134  10.153  16.826  0.00  0.00    +0.000 C 
BRANCH  10  11
ATOM     11  C   UNL     1      -3.296  10.984  15.553  0.00  0.00    +0.000 C 
BRANCH  11  13
ATOM     12  O   UNL     1      -2.395   9.757  13.657  0.00  0.00    +0.000 OA
ATOM     13  C   UNL     1      -3.359  10.121  14.318  0.00  0.00    +0.000 C 
BRANCH  13  14
ATOM     14  O   UNL     1      -4.626   9.770  14.001  0.00  0.00    +0.000 OA
ATOM     15  H   UNL     1      -5.303  10.200  14.556  0.00  0.00    +0.000 HD
ENDBRANCH  13  14
ENDBRANCH  11  13
ENDBRANCH  10  11
ENDBRANCH   9  10
ENDBRANCH   8   9
ENDBRANCH   2   8
ENDBRANCH   1   5
BRANCH   1  16
ATOM     16  C   UNL     1       2.984   7.486  18.733  0.00  0.00    +0.000 C 
BRANCH  16  17
ATOM     17  C   UNL     1       2.680   6.134  18.078  0.00  0.00    +0.000 C 
BRANCH  17  18
ATOM     18  N   UNL     1       3.562   5.083  18.650  0.00  0.00    +0.000 N 
ATOM     19  C   UNL     1       2.914   4.180  19.536  0.00  0.00    +0.000 A 
ATOM     20  C   UNL     1       3.388   2.865  19.679  0.00  0.00    +0.000 A 
ATOM     21  C   UNL     1       2.839   2.011  20.634  0.00  0.00    +0.000 A 
ATOM     22  C   UNL     1       1.796   2.467  21.420  0.00  0.00    +0.000 A 
ATOM     23  C   UNL     1       1.333   3.748  21.188  0.00  0.00    +0.000 A 
ATOM     24  N   UNL     1       1.853   4.593  20.264  0.00  0.00    +0.000 NA
BRANCH  18  25
ATOM     25  C   UNL     1       4.921   5.036  18.276  0.00  0.00    +0.000 A 
ATOM     26  C   UNL     1       5.373   4.662  17.007  0.00  0.00    +0.000 A 
ATOM     27  C   UNL     1       6.739   4.509  16.749  0.00  0.00    +0.000 A 
ATOM     28  C   UNL     1       7.640   4.770  17.764  0.00  0.00    +0.000 A 
ATOM     29  N   UNL     1       7.272   5.190  18.987  0.00  0.00    +0.000 NA
ATOM     30  C   UNL     1       5.938   5.323  19.199  0.00  0.00    +0.000 A 
ENDBRANCH  18  25
ENDBRANCH  17  18
ENDBRANCH  16  17
ENDBRANCH   1  16
TORSDOF 11
ENDMDL
MODEL 9
REMARK VINA RESULT:      -7.1      3.510      8.114
REMARK  Name = 
REMARK  11 active torsions:
REMARK  status: ('A' for Active; 'I' for Inactive)
REMARK    1  A    between atoms: C_2  and  O_3
REMARK    2  A    between atoms: C_2  and  C_4
REMARK    3  A    between atoms: C_4  and  C_5
REMARK    4  A    between atoms: C_5  and  C_6
REMARK    5  A    between atoms: C_6  and  C_7
REMARK    6  A    between atoms: C_7  and  C_8
REMARK    7  A    between atoms: C_11  and  O_12
REMARK    8  A    between atoms: O_12  and  C_13
REMARK    9  A    between atoms: C_13  and  C_14
REMARK   10  A    between atoms: C_14  and  N_15
REMARK   11  A    between atoms: N_15  and  C_16
REMARK                            x       y       z     vdW  Elec       q    Type
REMARK                         _______ _______ _______ _____ _____    ______ ____
ROOT
ATOM      1  O   UNL     1       2.107   9.138  17.551  0.00  0.00    +0.000 OA
ENDROOT
BRANCH   1   5
ATOM      2  C   UNL     1      -0.291  11.961  19.542  0.00  0.00    +0.000 A 
ATOM      3  C   UNL     1      -0.865  10.798  19.028  0.00  0.00    +0.000 A 
ATOM      4  C   UNL     1      -0.090   9.846  18.384  0.00  0.00    +0.000 A 
ATOM      5  C   UNL     1       1.280  10.045  18.185  0.00  0.00    +0.000 A 
ATOM      6  C   UNL     1       1.853  11.231  18.651  0.00  0.00    +0.000 A 
ATOM      7  C   UNL     1       1.075  12.184  19.332  0.00  0.00    +0.000 A 
BRANCH   2   8
ATOM      8  C   UNL     1      -1.154  12.890  20.357  0.00  0.00    +0.000 C 
BRANCH   8   9
ATOM      9  C   UNL     1      -0.887  12.676  21.854  0.00  0.00    +0.000 C 
BRANCH   9  10
ATOM     10  C   UNL     1      -1.648  11.480  22.414  0.00  0.00    +0.000 C 
BRANCH  10  11
ATOM     11  C   UNL     1      -0.700  10.550  23.173  0.00  0.00    +0.000 C 
BRANCH  11  13
ATOM     12  O   UNL     1      -0.580   8.558  21.783  0.00  0.00    +0.000 OA
ATOM     13  C   UNL     1      -0.040   9.548  22.259  0.00  0.00    +0.000 C 
BRANCH  13  14
ATOM     14  O   UNL     1       1.251   9.860  22.001  0.00  0.00    +0.000 OA
ATOM     15  H   UNL     1       1.410  10.144  21.082  0.00  0.00    +0.000 HD
ENDBRANCH  13  14
ENDBRANCH  11  13
ENDBRANCH  10  11
ENDBRANCH   9  10
ENDBRANCH   8   9
ENDBRANCH   2   8
ENDBRANCH   1   5
BRANCH   1  16
ATOM     16  C   UNL     1       2.359   7.963  18.338  0.00  0.00    +0.000 C 
BRANCH  16  17
ATOM     17  C   UNL     1       2.522   6.675  17.524  0.00  0.00    +0.000 C 
BRANCH  17  18
ATOM     18  N   UNL     1       3.300   5.677  18.303  0.00  0.00    +0.000 N 
ATOM     19  C   UNL     1       4.711   5.830  18.226  0.00  0.00    +0.000 A 
ATOM     20  C   UNL     1       5.528   5.412  19.289  0.00  0.00    +0.000 A 
ATOM     21  C   UNL     1       6.916   5.444  19.174  0.00  0.00    +0.000 A 
ATOM     22  C   UNL     1       7.482   5.922  18.006  0.00  0.00    +0.000 A 
ATOM     23  C   UNL     1       6.625   6.377  17.021  0.00  0.00    +0.000 A 
ATOM     24  N   UNL     1       5.273   6.356  17.115  0.00  0.00    +0.000 NA
BRANCH  18  25
ATOM     25  C   UNL     1       2.619   4.698  19.056  0.00  0.00    +0.000 A 
ATOM     26  C   UNL     1       1.944   3.607  18.498  0.00  0.00    +0.000 A 
ATOM     27  C   UNL     1       1.179   2.753  19.298  0.00  0.00    +0.000 A 
ATOM     28  C   UNL     1       1.129   2.985  20.660  0.00  0.00    +0.000 A 
ATOM     29  N   UNL     1       1.802   3.979  21.264  0.00  0.00    +0.000 NA
ATOM     30  C   UNL     1       2.530   4.788  20.454  0.00  0.00    +0.000 A 
ENDBRANCH  18  25
ENDBRANCH  17  18
ENDBRANCH  16  17
ENDBRANCH   1  16
TORSDOF 11
ENDMDL
