MODEL 1
REMARK VINA RESULT:      -7.9      0.000      0.000
REMARK  Name = 
REMARK  7 active torsions:
REMARK  status: ('A' for Active; 'I' for Inactive)
REMARK    1  A    between atoms: C_1  and  C_2
REMARK    2  A    between atoms: C_2  and  S_3
REMARK    3  A    between atoms: S_3  and  N_6
REMARK    4  A    between atoms: N_13  and  C_14
REMARK    5  A    between atoms: C_14  and  C_15
REMARK    6  A    between atoms: C_17  and  O_18
REMARK    7  A    between atoms: O_18  and  C_19
REMARK                            x       y       z     vdW  Elec       q    Type
REMARK                         _______ _______ _______ _____ _____    ______ ____
ROOT
ATOM      1  N   UNL     1       5.627   4.389  17.547  0.00  0.00    +0.000 NA
ATOM      2  C   UNL     1       4.576   5.192  16.896  0.00  0.00    +0.000 C 
ATOM      3  C   UNL     1       3.284   4.653  17.476  0.00  0.00    +0.000 C 
ATOM      4  C   UNL     1       3.626   4.268  18.928  0.00  0.00    +0.000 C 
ATOM      5  C   UNL     1       2.851   3.008  19.352  0.00  0.00    +0.000 C 
ATOM      6  C   UNL     1       1.365   3.306  19.464  0.00  0.00    +0.000 C 
ATOM      7  C   UNL     1       1.108   4.472  20.420  0.00  0.00    +0.000 C 
ATOM      8  N   UNL     1       1.851   5.693  20.047  0.00  0.00    +0.000 NA
ATOM      9  C   UNL     1       3.302   5.409  19.928  0.00  0.00    +0.000 C 
ATOM     10  C   UNL     1       5.143   3.979  18.893  0.00  0.00    +0.000 C 
ENDROOT
BRANCH   1  11
ATOM     11  S   UNL     1       7.210   4.983  17.501  0.00  0.00    +0.000 S 
ATOM     12  O   UNL     1       7.852   4.410  16.340  0.00  0.00    +0.000 OA
ATOM     13  O   UNL     1       7.778   4.819  18.826  0.00  0.00    +0.000 OA
BRANCH  11  15
ATOM     14  C   UNL     1       7.917   7.573  17.989  0.00  0.00    +0.000 C 
ATOM     15  C   UNL     1       6.942   6.728  17.191  0.00  0.00    +0.000 C 
ENDBRANCH  11  15
ENDBRANCH   1  11
BRANCH   8  16
ATOM     16  C   UNL     1       1.638   6.772  21.051  0.00  0.00    +0.000 C 
BRANCH  16  17
ATOM     17  C   UNL     1       1.186   8.095  20.464  0.00  0.00    +0.000 A 
ATOM     18  C   UNL     1       1.828   8.671  19.357  0.00  0.00    +0.000 A 
ATOM     19  C   UNL     1       1.338   9.845  18.766  0.00  0.00    +0.000 A 
ATOM     20  C   UNL     1       0.170  10.429  19.267  0.00  0.00    +0.000 A 
ATOM     21  C   UNL     1      -0.443   9.900  20.400  0.00  0.00    +0.000 A 
ATOM     22  C   UNL     1       0.077   8.761  21.001  0.00  0.00    +0.000 A 
ATOM     23  F   UNL     1      -0.509   8.302  22.113  0.00  0.00    +0.000 F 
BRANCH  19  24
ATOM     24  O   UNL     1       2.072  10.324  17.713  0.00  0.00    +0.000 OA
ATOM     25  C   UNL     1       2.513  11.675  17.807  0.00  0.00    +0.000 C 
ENDBRANCH  19  24
ENDBRANCH  16  17
ENDBRANCH   8  16
TORSDOF 5
ENDMDL
MODEL 2
REMARK VINA RESULT:      -7.8      1.586      2.049
REMARK  Name = 
REMARK  7 active torsions:
REMARK  status: ('A' for Active; 'I' for Inactive)
REMARK    1  A    between atoms: C_1  and  C_2
REMARK    2  A    between atoms: C_2  and  S_3
REMARK    3  A    between atoms: S_3  and  N_6
REMARK    4  A    between atoms: N_13  and  C_14
REMARK    5  A    between atoms: C_14  and  C_15
REMARK    6  A    between atoms: C_17  and  O_18
REMARK    7  A    between atoms: O_18  and  C_19
REMARK                            x       y       z     vdW  Elec       q    Type
REMARK                         _______ _______ _______ _____ _____    ______ ____
ROOT
ATOM      1  N   UNL     1       5.814   4.469  17.356  0.00  0.00    +0.000 NA
ATOM      2  C   UNL     1       4.728   5.184  16.661  0.00  0.00    +0.000 C 
ATOM      3  C   UNL     1       3.469   4.725  17.369  0.00  0.00    +0.000 C 
ATOM      4  C   UNL     1       3.884   4.527  18.839  0.00  0.00    +0.000 C 
ATOM      5  C   UNL     1       3.138   3.333  19.458  0.00  0.00    +0.000 C 
ATOM      6  C   UNL     1       1.657   3.644  19.605  0.00  0.00    +0.000 C 
ATOM      7  C   UNL     1       1.442   4.922  20.416  0.00  0.00    +0.000 C 
ATOM      8  N   UNL     1       2.159   6.085  19.855  0.00  0.00    +0.000 NA
ATOM      9  C   UNL     1       3.604   5.787  19.701  0.00  0.00    +0.000 C 
ATOM     10  C   UNL     1       5.399   4.235  18.766  0.00  0.00    +0.000 C 
ENDROOT
BRANCH   1  11
ATOM     11  S   UNL     1       7.390   5.051  17.157  0.00  0.00    +0.000 S 
ATOM     12  O   UNL     1       7.493   5.563  15.810  0.00  0.00    +0.000 OA
ATOM     13  O   UNL     1       8.299   4.029  17.640  0.00  0.00    +0.000 OA
BRANCH  11  15
ATOM     14  C   UNL     1       7.621   7.743  17.538  0.00  0.00    +0.000 C 
ATOM     15  C   UNL     1       7.416   6.440  18.289  0.00  0.00    +0.000 C 
ENDBRANCH  11  15
ENDBRANCH   1  11
BRANCH   8  16
ATOM     16  C   UNL     1       1.990   7.284  20.722  0.00  0.00    +0.000 C 
BRANCH  16  17
ATOM     17  C   UNL     1       1.334   8.466  20.038  0.00  0.00    +0.000 A 
ATOM     18  C   UNL     1       0.394   9.274  20.698  0.00  0.00    +0.000 A 
ATOM     19  C   UNL     1      -0.131  10.422  20.086  0.00  0.00    +0.000 A 
ATOM     20  C   UNL     1       0.316  10.784  18.811  0.00  0.00    +0.000 A 
ATOM     21  C   UNL     1       1.203   9.961  18.123  0.00  0.00    +0.000 A 
ATOM     22  C   UNL     1       1.684   8.805  18.725  0.00  0.00    +0.000 A 
ATOM     23  F   UNL     1       2.501   8.012  18.022  0.00  0.00    +0.000 F 
BRANCH  19  24
ATOM     24  O   UNL     1      -1.063  11.106  20.820  0.00  0.00    +0.000 OA
ATOM     25  C   UNL     1      -0.566  11.956  21.849  0.00  0.00    +0.000 C 
ENDBRANCH  19  24
ENDBRANCH  16  17
ENDBRANCH   8  16
TORSDOF 5
ENDMDL
MODEL 3
REMARK VINA RESULT:      -7.3      1.178      1.349
REMARK  Name = 
REMARK  7 active torsions:
REMARK  status: ('A' for Active; 'I' for Inactive)
REMARK    1  A    between atoms: C_1  and  C_2
REMARK    2  A    between atoms: C_2  and  S_3
REMARK    3  A    between atoms: S_3  and  N_6
REMARK    4  A    between atoms: N_13  and  C_14
REMARK    5  A    between atoms: C_14  and  C_15
REMARK    6  A    between atoms: C_17  and  O_18
REMARK    7  A    between atoms: O_18  and  C_19
REMARK                            x       y       z     vdW  Elec       q    Type
REMARK                         _______ _______ _______ _____ _____    ______ ____
ROOT
ATOM      1  N   UNL     1       5.688   4.732  17.196  0.00  0.00    +0.000 NA
ATOM      2  C   UNL     1       4.644   5.622  16.658  0.00  0.00    +0.000 C 
ATOM      3  C   UNL     1       3.369   5.143  17.324  0.00  0.00    +0.000 C 
ATOM      4  C   UNL     1       3.798   4.685  18.730  0.00  0.00    +0.000 C 
ATOM      5  C   UNL     1       2.980   3.461  19.175  0.00  0.00    +0.000 C 
ATOM      6  C   UNL     1       1.529   3.846  19.417  0.00  0.00    +0.000 C 
ATOM      7  C   UNL     1       1.424   4.989  20.426  0.00  0.00    +0.000 C 
ATOM      8  N   UNL     1       2.213   6.175  20.033  0.00  0.00    +0.000 NA
ATOM      9  C   UNL     1       3.628   5.807  19.789  0.00  0.00    +0.000 C 
ATOM     10  C   UNL     1       5.286   4.304  18.563  0.00  0.00    +0.000 C 
ENDROOT
BRANCH   1  11
ATOM     11  S   UNL     1       7.298   5.229  17.042  0.00  0.00    +0.000 S 
ATOM     12  O   UNL     1       7.436   5.845  15.743  0.00  0.00    +0.000 OA
ATOM     13  O   UNL     1       8.140   4.114  17.434  0.00  0.00    +0.000 OA
BRANCH  11  15
ATOM     14  C   UNL     1       7.698   7.859  17.647  0.00  0.00    +0.000 C 
ATOM     15  C   UNL     1       7.410   6.513  18.287  0.00  0.00    +0.000 C 
ENDBRANCH  11  15
ENDBRANCH   1  11
BRANCH   8  16
ATOM     16  C   UNL     1       2.149   7.228  21.084  0.00  0.00    +0.000 C 
BRANCH  16  17
ATOM     17  C   UNL     1       1.304   8.431  20.717  0.00  0.00    +0.000 A 
ATOM     18  C   UNL     1       0.951   8.710  19.388  0.00  0.00    +0.000 A 
ATOM     19  C   UNL     1       0.088   9.770  19.074  0.00  0.00    +0.000 A 
ATOM     20  C   UNL     1      -0.456  10.539  20.107  0.00  0.00    +0.000 A 
ATOM     21  C   UNL     1      -0.069  10.310  21.425  0.00  0.00    +0.000 A 
ATOM     22  C   UNL     1       0.819   9.283  21.717  0.00  0.00    +0.000 A 
ATOM     23  F   UNL     1       1.205   9.115  22.988  0.00  0.00    +0.000 F 
BRANCH  19  24
ATOM     24  O   UNL     1      -0.152   9.959  17.739  0.00  0.00    +0.000 OA
ATOM     25  C   UNL     1      -1.517  10.036  17.341  0.00  0.00    +0.000 C 
ENDBRANCH  19  24
ENDBRANCH  16  17
ENDBRANCH   8  16
TORSDOF 5
ENDMDL
MODEL 4
REMARK VINA RESULT:      -7.0      2.342      3.088
REMARK  Name = 
REMARK  7 active torsions:
REMARK  status: ('A' for Active; 'I' for Inactive)
REMARK    1  A    between atoms: C_1  and  C_2
REMARK    2  A    between atoms: C_2  and  S_3
REMARK    3  A    between atoms: S_3  and  N_6
REMARK    4  A    between atoms: N_13  and  C_14
REMARK    5  A    between atoms: C_14  and  C_15
REMARK    6  A    between atoms: C_17  and  O_18
REMARK    7  A    between atoms: O_18  and  C_19
REMARK                            x       y       z     vdW  Elec       q    Type
REMARK                         _______ _______ _______ _____ _____    ______ ____
ROOT
ATOM      1  N   UNL     1       5.605   4.742  17.308  0.00  0.00    +0.000 NA
ATOM      2  C   UNL     1       4.344   4.687  16.547  0.00  0.00    +0.000 C 
ATOM      3  C   UNL     1       3.277   5.023  17.571  0.00  0.00    +0.000 C 
ATOM      4  C   UNL     1       3.939   6.038  18.521  0.00  0.00    +0.000 C 
ATOM      5  C   UNL     1       3.453   5.827  19.965  0.00  0.00    +0.000 C 
ATOM      6  C   UNL     1       1.987   6.206  20.098  0.00  0.00    +0.000 C 
ATOM      7  C   UNL     1       1.745   7.641  19.627  0.00  0.00    +0.000 C 
ATOM      8  N   UNL     1       2.216   7.879  18.248  0.00  0.00    +0.000 NA
ATOM      9  C   UNL     1       3.644   7.505  18.108  0.00  0.00    +0.000 C 
ATOM     10  C   UNL     1       5.448   5.728  18.412  0.00  0.00    +0.000 C 
ENDROOT
BRANCH   1  11
ATOM     11  S   UNL     1       7.046   4.867  16.430  0.00  0.00    +0.000 S 
ATOM     12  O   UNL     1       8.052   4.117  17.146  0.00  0.00    +0.000 OA
ATOM     13  O   UNL     1       7.245   6.268  16.111  0.00  0.00    +0.000 OA
BRANCH  11  15
ATOM     14  C   UNL     1       7.002   4.794  13.703  0.00  0.00    +0.000 C 
ATOM     15  C   UNL     1       6.643   3.975  14.929  0.00  0.00    +0.000 C 
ENDBRANCH  11  15
ENDBRANCH   1  11
BRANCH   8  16
ATOM     16  C   UNL     1       2.038   9.307  17.864  0.00  0.00    +0.000 C 
BRANCH  16  17
ATOM     17  C   UNL     1       0.672   9.879  18.185  0.00  0.00    +0.000 A 
ATOM     18  C   UNL     1      -0.462   9.559  17.422  0.00  0.00    +0.000 A 
ATOM     19  C   UNL     1      -1.735  10.018  17.789  0.00  0.00    +0.000 A 
ATOM     20  C   UNL     1      -1.881  10.776  18.955  0.00  0.00    +0.000 A 
ATOM     21  C   UNL     1      -0.758  11.148  19.689  0.00  0.00    +0.000 A 
ATOM     22  C   UNL     1       0.502  10.721  19.291  0.00  0.00    +0.000 A 
ATOM     23  F   UNL     1       1.566  11.131  19.992  0.00  0.00    +0.000 F 
BRANCH  19  24
ATOM     24  O   UNL     1      -2.754   9.665  16.944  0.00  0.00    +0.000 OA
ATOM     25  C   UNL     1      -2.720  10.225  15.635  0.00  0.00    +0.000 C 
ENDBRANCH  19  24
ENDBRANCH  16  17
ENDBRANCH   8  16
TORSDOF 5
ENDMDL
MODEL 5
REMARK VINA RESULT:      -7.0      1.010      1.303
REMARK  Name = 
REMARK  7 active torsions:
REMARK  status: ('A' for Active; 'I' for Inactive)
REMARK    1  A    between atoms: C_1  and  C_2
REMARK    2  A    between atoms: C_2  and  S_3
REMARK    3  A    between atoms: S_3  and  N_6
REMARK    4  A    between atoms: N_13  and  C_14
REMARK    5  A    between atoms: C_14  and  C_15
REMARK    6  A    between atoms: C_17  and  O_18
REMARK    7  A    between atoms: O_18  and  C_19
REMARK                            x       y       z     vdW  Elec       q    Type
REMARK                         _______ _______ _______ _____ _____    ______ ____
ROOT
ATOM      1  N   UNL     1       5.405   4.509  17.429  0.00  0.00    +0.000 NA
ATOM      2  C   UNL     1       4.273   5.241  16.834  0.00  0.00    +0.000 C 
ATOM      3  C   UNL     1       3.053   4.662  17.523  0.00  0.00    +0.000 C 
ATOM      4  C   UNL     1       3.517   4.339  18.956  0.00  0.00    +0.000 C 
ATOM      5  C   UNL     1       2.837   3.059  19.471  0.00  0.00    +0.000 C 
ATOM      6  C   UNL     1       1.350   3.291  19.683  0.00  0.00    +0.000 C 
ATOM      7  C   UNL     1       1.106   4.474  20.622  0.00  0.00    +0.000 C 
ATOM      8  N   UNL     1       1.760   5.715  20.161  0.00  0.00    +0.000 NA
ATOM      9  C   UNL     1       3.211   5.496  19.944  0.00  0.00    +0.000 C 
ATOM     10  C   UNL     1       5.040   4.120  18.818  0.00  0.00    +0.000 C 
ENDROOT
BRANCH   1  11
ATOM     11  S   UNL     1       6.951   5.174  17.251  0.00  0.00    +0.000 S 
ATOM     12  O   UNL     1       7.839   4.440  18.123  0.00  0.00    +0.000 OA
ATOM     13  O   UNL     1       6.823   6.615  17.356  0.00  0.00    +0.000 OA
BRANCH  11  15
ATOM     14  C   UNL     1       6.234   3.915  14.939  0.00  0.00    +0.000 C 
ATOM     15  C   UNL     1       7.345   4.744  15.557  0.00  0.00    +0.000 C 
ENDBRANCH  11  15
ENDBRANCH   1  11
BRANCH   8  16
ATOM     16  C   UNL     1       1.567   6.815  21.146  0.00  0.00    +0.000 C 
BRANCH  16  17
ATOM     17  C   UNL     1       1.131   8.133  20.539  0.00  0.00    +0.000 A 
ATOM     18  C   UNL     1       1.783   8.687  19.426  0.00  0.00    +0.000 A 
ATOM     19  C   UNL     1       1.308   9.856  18.815  0.00  0.00    +0.000 A 
ATOM     20  C   UNL     1       0.145  10.460  19.302  0.00  0.00    +0.000 A 
ATOM     21  C   UNL     1      -0.479   9.954  20.440  0.00  0.00    +0.000 A 
ATOM     22  C   UNL     1       0.027   8.818  21.060  0.00  0.00    +0.000 A 
ATOM     23  F   UNL     1      -0.569   8.382  22.177  0.00  0.00    +0.000 F 
BRANCH  19  24
ATOM     24  O   UNL     1       2.051  10.313  17.759  0.00  0.00    +0.000 OA
ATOM     25  C   UNL     1       2.499  11.663  17.831  0.00  0.00    +0.000 C 
ENDBRANCH  19  24
ENDBRANCH  16  17
ENDBRANCH   8  16
TORSDOF 5
ENDMDL
MODEL 6
REMARK VINA RESULT:      -6.9      1.831      2.358
REMARK  Name = 
REMARK  7 active torsions:
REMARK  status: ('A' for Active; 'I' for Inactive)
REMARK    1  A    between atoms: C_1  and  C_2
REMARK    2  A    between atoms: C_2  and  S_3
REMARK    3  A    between atoms: S_3  and  N_6
REMARK    4  A    between atoms: N_13  and  C_14
REMARK    5  A    between atoms: C_14  and  C_15
REMARK    6  A    between atoms: C_17  and  O_18
REMARK    7  A    between atoms: O_18  and  C_19
REMARK                            x       y       z     vdW  Elec       q    Type
REMARK                         _______ _______ _______ _____ _____    ______ ____
ROOT
ATOM      1  N   UNL     1       5.577   4.409  17.154  0.00  0.00    +0.000 NA
ATOM      2  C   UNL     1       4.373   5.021  16.564  0.00  0.00    +0.000 C 
ATOM      3  C   UNL     1       3.238   4.528  17.441  0.00  0.00    +0.000 C 
ATOM      4  C   UNL     1       3.837   4.434  18.856  0.00  0.00    +0.000 C 
ATOM      5  C   UNL     1       3.249   3.233  19.616  0.00  0.00    +0.000 C 
ATOM      6  C   UNL     1       1.779   3.465  19.929  0.00  0.00    +0.000 C 
ATOM      7  C   UNL     1       1.581   4.770  20.700  0.00  0.00    +0.000 C 
ATOM      8  N   UNL     1       2.150   5.941  20.002  0.00  0.00    +0.000 NA
ATOM      9  C   UNL     1       3.582   5.720  19.687  0.00  0.00    +0.000 C 
ATOM     10  C   UNL     1       5.349   4.226  18.612  0.00  0.00    +0.000 C 
ENDROOT
BRANCH   1  11
ATOM     11  S   UNL     1       7.078   5.070  16.737  0.00  0.00    +0.000 S 
ATOM     12  O   UNL     1       8.093   4.139  17.170  0.00  0.00    +0.000 OA
ATOM     13  O   UNL     1       7.088   6.450  17.184  0.00  0.00    +0.000 OA
BRANCH  11  15
ATOM     14  C   UNL     1       6.323   3.774  14.457  0.00  0.00    +0.000 C 
ATOM     15  C   UNL     1       7.012   5.035  14.946  0.00  0.00    +0.000 C 
ENDBRANCH  11  15
ENDBRANCH   1  11
BRANCH   8  16
ATOM     16  C   UNL     1       2.008   7.173  20.827  0.00  0.00    +0.000 C 
BRANCH  16  17
ATOM     17  C   UNL     1       1.375   8.344  20.104  0.00  0.00    +0.000 A 
ATOM     18  C   UNL     1       0.443   9.185  20.732  0.00  0.00    +0.000 A 
ATOM     19  C   UNL     1      -0.060  10.322  20.082  0.00  0.00    +0.000 A 
ATOM     20  C   UNL     1       0.401  10.640  18.801  0.00  0.00    +0.000 A 
ATOM     21  C   UNL     1       1.280   9.783  18.144  0.00  0.00    +0.000 A 
ATOM     22  C   UNL     1       1.739   8.638  18.784  0.00  0.00    +0.000 A 
ATOM     23  F   UNL     1       2.549   7.812  18.111  0.00  0.00    +0.000 F 
BRANCH  19  24
ATOM     24  O   UNL     1      -0.987  11.042  20.789  0.00  0.00    +0.000 OA
ATOM     25  C   UNL     1      -0.519  12.219  21.439  0.00  0.00    +0.000 C 
ENDBRANCH  19  24
ENDBRANCH  16  17
ENDBRANCH   8  16
TORSDOF 5
ENDMDL
MODEL 7
REMARK VINA RESULT:      -6.8      2.264      3.002
REMARK  Name = 
REMARK  7 active torsions:
REMARK  status: ('A' for Active; 'I' for Inactive)
REMARK    1  A    between atoms: C_1  and  C_2
REMARK    2  A    between atoms: C_2  and  S_3
REMARK    3  A    between atoms: S_3  and  N_6
REMARK    4  A    between atoms: N_13  and  C_14
REMARK    5  A    between atoms: C_14  and  C_15
REMARK    6  A    between atoms: C_17  and  O_18
REMARK    7  A    between atoms: O_18  and  C_19
REMARK                            x       y       z     vdW  Elec       q    Type
REMARK                         _______ _______ _______ _____ _____    ______ ____
ROOT
ATOM      1  N   UNL     1       5.634   4.709  17.377  0.00  0.00    +0.000 NA
ATOM      2  C   UNL     1       4.385   4.625  16.598  0.00  0.00    +0.000 C 
ATOM      3  C   UNL     1       3.299   4.950  17.605  0.00  0.00    +0.000 C 
ATOM      4  C   UNL     1       3.929   5.984  18.556  0.00  0.00    +0.000 C 
ATOM      5  C   UNL     1       3.426   5.775  19.995  0.00  0.00    +0.000 C 
ATOM      6  C   UNL     1       1.951   6.129  20.103  0.00  0.00    +0.000 C 
ATOM      7  C   UNL     1       1.691   7.556  19.618  0.00  0.00    +0.000 C 
ATOM      8  N   UNL     1       2.178   7.792  18.244  0.00  0.00    +0.000 NA
ATOM      9  C   UNL     1       3.614   7.442  18.127  0.00  0.00    +0.000 C 
ATOM     10  C   UNL     1       5.445   5.699  18.471  0.00  0.00    +0.000 C 
ENDROOT
BRANCH   1  11
ATOM     11  S   UNL     1       7.086   4.852  16.519  0.00  0.00    +0.000 S 
ATOM     12  O   UNL     1       8.099   4.145  17.267  0.00  0.00    +0.000 OA
ATOM     13  O   UNL     1       7.252   6.251  16.171  0.00  0.00    +0.000 OA
BRANCH  11  15
ATOM     14  C   UNL     1       6.885   4.787  13.799  0.00  0.00    +0.000 C 
ATOM     15  C   UNL     1       6.730   3.917  15.032  0.00  0.00    +0.000 C 
ENDBRANCH  11  15
ENDBRANCH   1  11
BRANCH   8  16
ATOM     16  C   UNL     1       1.980   9.214  17.847  0.00  0.00    +0.000 C 
BRANCH  16  17
ATOM     17  C   UNL     1       0.883   9.932  18.606  0.00  0.00    +0.000 A 
ATOM     18  C   UNL     1       1.139  10.617  19.804  0.00  0.00    +0.000 A 
ATOM     19  C   UNL     1       0.135  11.358  20.444  0.00  0.00    +0.000 A 
ATOM     20  C   UNL     1      -1.132  11.445  19.858  0.00  0.00    +0.000 A 
ATOM     21  C   UNL     1      -1.415  10.724  18.701  0.00  0.00    +0.000 A 
ATOM     22  C   UNL     1      -0.422   9.960  18.100  0.00  0.00    +0.000 A 
ATOM     23  F   UNL     1      -0.737   9.244  17.013  0.00  0.00    +0.000 F 
BRANCH  19  24
ATOM     24  O   UNL     1       0.501  11.952  21.622  0.00  0.00    +0.000 OA
ATOM     25  C   UNL     1      -0.048  13.240  21.885  0.00  0.00    +0.000 C 
ENDBRANCH  19  24
ENDBRANCH  16  17
ENDBRANCH   8  16
TORSDOF 5
ENDMDL
MODEL 8
REMARK VINA RESULT:      -6.8      1.369      1.678
REMARK  Name = 
REMARK  7 active torsions:
REMARK  status: ('A' for Active; 'I' for Inactive)
REMARK    1  A    between atoms: C_1  and  C_2
REMARK    2  A    between atoms: C_2  and  S_3
REMARK    3  A    between atoms: S_3  and  N_6
REMARK    4  A    between atoms: N_13  and  C_14
REMARK    5  A    between atoms: C_14  and  C_15
REMARK    6  A    between atoms: C_17  and  O_18
REMARK    7  A    between atoms: O_18  and  C_19
REMARK                            x       y       z     vdW  Elec       q    Type
REMARK                         _______ _______ _______ _____ _____    ______ ____
ROOT
ATOM      1  N   UNL     1       5.456   4.127  17.409  0.00  0.00    +0.000 NA
ATOM      2  C   UNL     1       4.133   4.469  16.858  0.00  0.00    +0.000 C 
ATOM      3  C   UNL     1       3.154   3.787  17.793  0.00  0.00    +0.000 C 
ATOM      4  C   UNL     1       3.812   3.856  19.183  0.00  0.00    +0.000 C 
ATOM      5  C   UNL     1       3.504   2.585  19.993  0.00  0.00    +0.000 C 
ATOM      6  C   UNL     1       2.030   2.529  20.363  0.00  0.00    +0.000 C 
ATOM      7  C   UNL     1       1.604   3.791  21.113  0.00  0.00    +0.000 C 
ATOM      8  N   UNL     1       1.901   5.030  20.367  0.00  0.00    +0.000 NA
ATOM      9  C   UNL     1       3.336   5.089  19.996  0.00  0.00    +0.000 C 
ATOM     10  C   UNL     1       5.324   3.945  18.880  0.00  0.00    +0.000 C 
ENDROOT
BRANCH   1  11
ATOM     11  S   UNL     1       6.778   5.060  16.914  0.00  0.00    +0.000 S 
ATOM     12  O   UNL     1       7.931   4.191  16.882  0.00  0.00    +0.000 OA
ATOM     13  O   UNL     1       6.779   6.274  17.709  0.00  0.00    +0.000 OA
BRANCH  11  15
ATOM     14  C   UNL     1       6.735   4.348  14.281  0.00  0.00    +0.000 C 
ATOM     15  C   UNL     1       6.333   5.465  15.226  0.00  0.00    +0.000 C 
ENDBRANCH  11  15
ENDBRANCH   1  11
BRANCH   8  16
ATOM     16  C   UNL     1       1.548   6.233  21.170  0.00  0.00    +0.000 C 
BRANCH  16  17
ATOM     17  C   UNL     1       1.503   7.525  20.380  0.00  0.00    +0.000 A 
ATOM     18  C   UNL     1       2.118   7.646  19.124  0.00  0.00    +0.000 A 
ATOM     19  C   UNL     1       1.986   8.816  18.362  0.00  0.00    +0.000 A 
ATOM     20  C   UNL     1       1.199   9.865  18.847  0.00  0.00    +0.000 A 
ATOM     21  C   UNL     1       0.632   9.781  20.116  0.00  0.00    +0.000 A 
ATOM     22  C   UNL     1       0.805   8.632  20.878  0.00  0.00    +0.000 A 
ATOM     23  F   UNL     1       0.284   8.599  22.111  0.00  0.00    +0.000 F 
BRANCH  19  24
ATOM     24  O   UNL     1       2.661   8.822  17.170  0.00  0.00    +0.000 OA
ATOM     25  C   UNL     1       3.712   7.872  17.028  0.00  0.00    +0.000 C 
ENDBRANCH  19  24
ENDBRANCH  16  17
ENDBRANCH   8  16
TORSDOF 5
ENDMDL
MODEL 9
REMARK VINA RESULT:      -6.5      3.621      6.267
REMARK  Name = 
REMARK  7 active torsions:
REMARK  status: ('A' for Active; 'I' for Inactive)
REMARK    1  A    between atoms: C_1  and  C_2
REMARK    2  A    between atoms: C_2  and  S_3
REMARK    3  A    between atoms: S_3  and  N_6
REMARK    4  A    between atoms: N_13  and  C_14
REMARK    5  A    between atoms: C_14  and  C_15
REMARK    6  A    between atoms: C_17  and  O_18
REMARK    7  A    between atoms: O_18  and  C_19
REMARK                            x       y       z     vdW  Elec       q    Type
REMARK                         _______ _______ _______ _____ _____    ______ ____
ROOT
ATOM      1  N   UNL     1       1.589   3.956  19.874  0.00  0.00    +0.000 NA
ATOM      2  C   UNL     1       1.300   3.846  18.432  0.00  0.00    +0.000 C 
ATOM      3  C   UNL     1       1.495   5.255  17.907  0.00  0.00    +0.000 C 
ATOM      4  C   UNL     1       2.639   5.844  18.753  0.00  0.00    +0.000 C 
ATOM      5  C   UNL     1       2.405   7.341  19.015  0.00  0.00    +0.000 C 
ATOM      6  C   UNL     1       2.544   8.139  17.728  0.00  0.00    +0.000 C 
ATOM      7  C   UNL     1       3.901   7.889  17.070  0.00  0.00    +0.000 C 
ATOM      8  N   UNL     1       4.162   6.457  16.820  0.00  0.00    +0.000 NA
ATOM      9  C   UNL     1       4.022   5.670  18.069  0.00  0.00    +0.000 C 
ATOM     10  C   UNL     1       2.575   5.051  20.077  0.00  0.00    +0.000 C 
ENDROOT
BRANCH   1  11
ATOM     11  S   UNL     1       1.915   2.527  20.719  0.00  0.00    +0.000 S 
ATOM     12  O   UNL     1       1.592   1.425  19.843  0.00  0.00    +0.000 OA
ATOM     13  O   UNL     1       1.303   2.644  22.030  0.00  0.00    +0.000 OA
BRANCH  11  15
ATOM     14  C   UNL     1       4.383   1.982  19.692  0.00  0.00    +0.000 C 
ATOM     15  C   UNL     1       3.697   2.601  20.896  0.00  0.00    +0.000 C 
ENDBRANCH  11  15
ENDBRANCH   1  11
BRANCH   8  16
ATOM     16  C   UNL     1       5.527   6.255  16.258  0.00  0.00    +0.000 C 
BRANCH  16  17
ATOM     17  C   UNL     1       6.655   6.630  17.197  0.00  0.00    +0.000 A 
ATOM     18  C   UNL     1       7.178   7.932  17.243  0.00  0.00    +0.000 A 
ATOM     19  C   UNL     1       8.154   8.289  18.185  0.00  0.00    +0.000 A 
ATOM     20  C   UNL     1       8.586   7.340  19.116  0.00  0.00    +0.000 A 
ATOM     21  C   UNL     1       8.119   6.030  19.045  0.00  0.00    +0.000 A 
ATOM     22  C   UNL     1       7.183   5.680  18.080  0.00  0.00    +0.000 A 
ATOM     23  F   UNL     1       6.785   4.404  18.010  0.00  0.00    +0.000 F 
BRANCH  19  24
ATOM     24  O   UNL     1       8.606   9.579  18.104  0.00  0.00    +0.000 OA
ATOM     25  C   UNL     1       9.225  10.112  19.271  0.00  0.00    +0.000 C 
ENDBRANCH  19  24
ENDBRANCH  16  17
ENDBRANCH   8  16
TORSDOF 5
ENDMDL
