MODEL 1
REMARK VINA RESULT:      -6.9      0.000      0.000
REMARK  Name = 
REMARK  7 active torsions:
REMARK  status: ('A' for Active; 'I' for Inactive)
REMARK    1  A    between atoms: C_1  and  C_2
REMARK    2  A    between atoms: C_2  and  C_3
REMARK    3  A    between atoms: C_2  and  C_4
REMARK    4  A    between atoms: C_9  and  C_10
REMARK    5  A    between atoms: C_10  and  C_11
REMARK    6  A    between atoms: N_13  and  C_14
REMARK    7  A    between atoms: C_14  and  C_15
REMARK                            x       y       z     vdW  Elec       q    Type
REMARK                         _______ _______ _______ _____ _____    ______ ____
ROOT
ATOM      1  C   UNL     1       5.918   6.359  16.552  0.00  0.00    +0.000 C 
ENDROOT
BRANCH   1   7
ATOM      2  C   UNL     1       6.374   3.704  12.695  0.00  0.00    +0.000 C 
ATOM      3  O   UNL     1       7.017   4.488  11.993  0.00  0.00    +0.000 OA
ATOM      4  N   UNL     1       6.363   3.837  14.066  0.00  0.00    +0.000 N 
ATOM      5  C   UNL     1       5.773   2.968  15.060  0.00  0.00    +0.000 C 
ATOM      6  C   UNL     1       5.392   3.926  16.170  0.00  0.00    +0.000 C 
ATOM      7  C   UNL     1       6.493   4.999  16.147  0.00  0.00    +0.000 C 
ATOM      8  C   UNL     1       7.042   4.955  14.709  0.00  0.00    +0.000 C 
BRANCH   2  10
ATOM      9  C   UNL     1       4.337   3.251  11.292  0.00  0.00    +0.000 C 
ATOM     10  C   UNL     1       5.503   2.609  12.055  0.00  0.00    +0.000 C 
ATOM     11  C   UNL     1       6.274   1.701  11.101  0.00  0.00    +0.000 C 
ENDBRANCH   2  10
ENDBRANCH   1   7
BRANCH   1  12
ATOM     12  C   UNL     1       5.117   6.335  17.840  0.00  0.00    +0.000 C 
ATOM     13  O   UNL     1       5.593   6.035  18.927  0.00  0.00    +0.000 OA
ATOM     14  N   UNL     1       3.794   6.673  17.644  0.00  0.00    +0.000 N 
ATOM     15  H   UNL     1       3.503   7.026  16.743  0.00  0.00    +0.000 HD
BRANCH  14  16
ATOM     16  C   UNL     1       2.855   6.761  18.738  0.00  0.00    +0.000 C 
BRANCH  16  17
ATOM     17  C   UNL     1       2.180   5.439  18.994  0.00  0.00    +0.000 A 
ATOM     18  C   UNL     1       1.952   4.527  17.960  0.00  0.00    +0.000 A 
ATOM     19  C   UNL     1       1.322   3.327  18.260  0.00  0.00    +0.000 A 
ATOM     20  N   UNL     1       0.906   2.984  19.497  0.00  0.00    +0.000 NA
ATOM     21  C   UNL     1       1.125   3.884  20.479  0.00  0.00    +0.000 A 
ATOM     22  C   UNL     1       1.746   5.107  20.280  0.00  0.00    +0.000 A 
ENDBRANCH  16  17
ENDBRANCH  14  16
ENDBRANCH   1  12
TORSDOF 5
ENDMDL
MODEL 2
REMARK VINA RESULT:      -6.9      3.531      5.427
REMARK  Name = 
REMARK  7 active torsions:
REMARK  status: ('A' for Active; 'I' for Inactive)
REMARK    1  A    between atoms: C_1  and  C_2
REMARK    2  A    between atoms: C_2  and  C_3
REMARK    3  A    between atoms: C_2  and  C_4
REMARK    4  A    between atoms: C_9  and  C_10
REMARK    5  A    between atoms: C_10  and  C_11
REMARK    6  A    between atoms: N_13  and  C_14
REMARK    7  A    between atoms: C_14  and  C_15
REMARK                            x       y       z     vdW  Elec       q    Type
REMARK                         _______ _______ _______ _____ _____    ______ ____
ROOT
ATOM      1  C   UNL     1       1.868   2.656  19.674  0.00  0.00    +0.000 C 
ENDROOT
BRANCH   1   7
ATOM      2  C   UNL     1       5.860   4.915  18.624  0.00  0.00    +0.000 C 
ATOM      3  O   UNL     1       6.297   5.079  19.765  0.00  0.00    +0.000 OA
ATOM      4  N   UNL     1       4.935   3.928  18.363  0.00  0.00    +0.000 N 
ATOM      5  C   UNL     1       4.389   3.505  17.092  0.00  0.00    +0.000 C 
ATOM      6  C   UNL     1       2.993   3.043  17.455  0.00  0.00    +0.000 C 
ATOM      7  C   UNL     1       3.143   2.431  18.857  0.00  0.00    +0.000 C 
ATOM      8  C   UNL     1       4.392   3.114  19.443  0.00  0.00    +0.000 C 
BRANCH   2  10
ATOM      9  C   UNL     1       5.138   6.847  17.187  0.00  0.00    +0.000 C 
ATOM     10  C   UNL     1       6.273   5.858  17.481  0.00  0.00    +0.000 C 
ATOM     11  C   UNL     1       7.548   6.644  17.774  0.00  0.00    +0.000 C 
ENDBRANCH   2  10
ENDBRANCH   1   7
BRANCH   1  12
ATOM     12  C   UNL     1       1.988   3.748  20.721  0.00  0.00    +0.000 C 
ATOM     13  O   UNL     1       2.185   3.526  21.909  0.00  0.00    +0.000 OA
ATOM     14  N   UNL     1       1.836   5.010  20.186  0.00  0.00    +0.000 N 
ATOM     15  H   UNL     1       1.800   5.120  19.182  0.00  0.00    +0.000 HD
BRANCH  14  16
ATOM     16  C   UNL     1       1.958   6.203  20.991  0.00  0.00    +0.000 C 
BRANCH  16  17
ATOM     17  C   UNL     1       1.751   7.447  20.168  0.00  0.00    +0.000 A 
ATOM     18  C   UNL     1       1.086   8.560  20.687  0.00  0.00    +0.000 A 
ATOM     19  C   UNL     1       0.925   9.675  19.876  0.00  0.00    +0.000 A 
ATOM     20  N   UNL     1       1.369   9.752  18.604  0.00  0.00    +0.000 NA
ATOM     21  C   UNL     1       1.999   8.661  18.118  0.00  0.00    +0.000 A 
ATOM     22  C   UNL     1       2.208   7.502  18.848  0.00  0.00    +0.000 A 
ENDBRANCH  16  17
ENDBRANCH  14  16
ENDBRANCH   1  12
TORSDOF 5
ENDMDL
MODEL 3
REMARK VINA RESULT:      -6.9      3.098      5.058
REMARK  Name = 
REMARK  7 active torsions:
REMARK  status: ('A' for Active; 'I' for Inactive)
REMARK    1  A    between atoms: C_1  and  C_2
REMARK    2  A    between atoms: C_2  and  C_3
REMARK    3  A    between atoms: C_2  and  C_4
REMARK    4  A    between atoms: C_9  and  C_10
REMARK    5  A    between atoms: C_10  and  C_11
REMARK    6  A    between atoms: N_13  and  C_14
REMARK    7  A    between atoms: C_14  and  C_15
REMARK                            x       y       z     vdW  Elec       q    Type
REMARK                         _______ _______ _______ _____ _____    ______ ____
ROOT
ATOM      1  C   UNL     1       2.489   2.951  20.605  0.00  0.00    +0.000 C 
ENDROOT
BRANCH   1   7
ATOM      2  C   UNL     1       6.043   4.663  18.040  0.00  0.00    +0.000 C 
ATOM      3  O   UNL     1       6.939   4.605  18.886  0.00  0.00    +0.000 OA
ATOM      4  N   UNL     1       4.917   3.878  18.158  0.00  0.00    +0.000 N 
ATOM      5  C   UNL     1       3.819   3.717  17.230  0.00  0.00    +0.000 C 
ATOM      6  C   UNL     1       2.640   3.439  18.139  0.00  0.00    +0.000 C 
ATOM      7  C   UNL     1       3.234   2.634  19.306  0.00  0.00    +0.000 C 
ATOM      8  C   UNL     1       4.722   3.027  19.325  0.00  0.00    +0.000 C 
BRANCH   2  10
ATOM      9  C   UNL     1       6.853   6.936  17.338  0.00  0.00    +0.000 C 
ATOM     10  C   UNL     1       6.122   5.668  16.879  0.00  0.00    +0.000 C 
ATOM     11  C   UNL     1       6.825   5.114  15.644  0.00  0.00    +0.000 C 
ENDBRANCH   2  10
ENDBRANCH   1   7
BRANCH   1  12
ATOM     12  C   UNL     1       1.651   4.214  20.547  0.00  0.00    +0.000 C 
ATOM     13  O   UNL     1       0.471   4.228  20.222  0.00  0.00    +0.000 OA
ATOM     14  N   UNL     1       2.371   5.340  20.886  0.00  0.00    +0.000 N 
ATOM     15  H   UNL     1       3.304   5.236  21.261  0.00  0.00    +0.000 HD
BRANCH  14  16
ATOM     16  C   UNL     1       1.764   6.650  20.944  0.00  0.00    +0.000 C 
BRANCH  16  17
ATOM     17  C   UNL     1       2.030   7.438  19.689  0.00  0.00    +0.000 A 
ATOM     18  C   UNL     1       2.955   7.001  18.738  0.00  0.00    +0.000 A 
ATOM     19  C   UNL     1       3.157   7.774  17.604  0.00  0.00    +0.000 A 
ATOM     20  N   UNL     1       2.514   8.935  17.360  0.00  0.00    +0.000 NA
ATOM     21  C   UNL     1       1.632   9.346  18.296  0.00  0.00    +0.000 A 
ATOM     22  C   UNL     1       1.362   8.644  19.460  0.00  0.00    +0.000 A 
ENDBRANCH  16  17
ENDBRANCH  14  16
ENDBRANCH   1  12
TORSDOF 5
ENDMDL
MODEL 4
REMARK VINA RESULT:      -6.9      3.097      5.118
REMARK  Name = 
REMARK  7 active torsions:
REMARK  status: ('A' for Active; 'I' for Inactive)
REMARK    1  A    between atoms: C_1  and  C_2
REMARK    2  A    between atoms: C_2  and  C_3
REMARK    3  A    between atoms: C_2  and  C_4
REMARK    4  A    between atoms: C_9  and  C_10
REMARK    5  A    between atoms: C_10  and  C_11
REMARK    6  A    between atoms: N_13  and  C_14
REMARK    7  A    between atoms: C_14  and  C_15
REMARK                            x       y       z     vdW  Elec       q    Type
REMARK                         _______ _______ _______ _____ _____    ______ ____
ROOT
ATOM      1  C   UNL     1       2.481   2.989  20.653  0.00  0.00    +0.000 C 
ENDROOT
BRANCH   1   7
ATOM      2  C   UNL     1       6.016   4.672  18.044  0.00  0.00    +0.000 C 
ATOM      3  O   UNL     1       6.920   4.615  18.881  0.00  0.00    +0.000 OA
ATOM      4  N   UNL     1       4.887   3.893  18.177  0.00  0.00    +0.000 N 
ATOM      5  C   UNL     1       3.780   3.731  17.261  0.00  0.00    +0.000 C 
ATOM      6  C   UNL     1       2.608   3.463  18.183  0.00  0.00    +0.000 C 
ATOM      7  C   UNL     1       3.211   2.661  19.348  0.00  0.00    +0.000 C 
ATOM      8  C   UNL     1       4.701   3.049  19.350  0.00  0.00    +0.000 C 
BRANCH   2  10
ATOM      9  C   UNL     1       6.802   6.951  17.330  0.00  0.00    +0.000 C 
ATOM     10  C   UNL     1       6.087   5.671  16.877  0.00  0.00    +0.000 C 
ATOM     11  C   UNL     1       6.801   5.118  15.647  0.00  0.00    +0.000 C 
ENDBRANCH   2  10
ENDBRANCH   1   7
BRANCH   1  12
ATOM     12  C   UNL     1       1.642   4.251  20.595  0.00  0.00    +0.000 C 
ATOM     13  O   UNL     1       0.460   4.264  20.277  0.00  0.00    +0.000 OA
ATOM     14  N   UNL     1       2.364   5.379  20.924  0.00  0.00    +0.000 N 
ATOM     15  H   UNL     1       3.299   5.277  21.294  0.00  0.00    +0.000 HD
BRANCH  14  16
ATOM     16  C   UNL     1       1.757   6.689  20.981  0.00  0.00    +0.000 C 
BRANCH  16  17
ATOM     17  C   UNL     1       2.018   7.473  19.721  0.00  0.00    +0.000 A 
ATOM     18  C   UNL     1       1.371   8.685  19.473  0.00  0.00    +0.000 A 
ATOM     19  C   UNL     1       1.652   9.358  18.292  0.00  0.00    +0.000 A 
ATOM     20  N   UNL     1       2.514   8.908  17.356  0.00  0.00    +0.000 NA
ATOM     21  C   UNL     1       3.121   7.729  17.610  0.00  0.00    +0.000 A 
ATOM     22  C   UNL     1       2.906   6.984  18.759  0.00  0.00    +0.000 A 
ENDBRANCH  16  17
ENDBRANCH  14  16
ENDBRANCH   1  12
TORSDOF 5
ENDMDL
MODEL 5
REMARK VINA RESULT:      -6.9      3.561      8.088
REMARK  Name = 
REMARK  7 active torsions:
REMARK  status: ('A' for Active; 'I' for Inactive)
REMARK    1  A    between atoms: C_1  and  C_2
REMARK    2  A    between atoms: C_2  and  C_3
REMARK    3  A    between atoms: C_2  and  C_4
REMARK    4  A    between atoms: C_9  and  C_10
REMARK    5  A    between atoms: C_10  and  C_11
REMARK    6  A    between atoms: N_13  and  C_14
REMARK    7  A    between atoms: C_14  and  C_15
REMARK                            x       y       z     vdW  Elec       q    Type
REMARK                         _______ _______ _______ _____ _____    ______ ____
ROOT
ATOM      1  C   UNL     1       2.011   5.835  20.036  0.00  0.00    +0.000 C 
ENDROOT
BRANCH   1   7
ATOM      2  C   UNL     1      -0.022  10.043  19.483  0.00  0.00    +0.000 C 
ATOM      3  O   UNL     1      -0.561  10.145  20.587  0.00  0.00    +0.000 OA
ATOM      4  N   UNL     1       1.047   9.193  19.301  0.00  0.00    +0.000 N 
ATOM      5  C   UNL     1       1.879   9.014  18.131  0.00  0.00    +0.000 C 
ATOM      6  C   UNL     1       2.281   7.556  18.216  0.00  0.00    +0.000 C 
ATOM      7  C   UNL     1       2.411   7.280  19.723  0.00  0.00    +0.000 C 
ATOM      8  C   UNL     1       1.509   8.336  20.386  0.00  0.00    +0.000 C 
BRANCH   2  10
ATOM      9  C   UNL     1      -1.874  10.129  17.785  0.00  0.00    +0.000 C 
ATOM     10  C   UNL     1      -0.578  10.797  18.264  0.00  0.00    +0.000 C 
ATOM     11  C   UNL     1      -0.858  12.272  18.538  0.00  0.00    +0.000 C 
ENDBRANCH   2  10
ENDBRANCH   1   7
BRANCH   1  12
ATOM     12  C   UNL     1       2.763   4.795  19.227  0.00  0.00    +0.000 C 
ATOM     13  O   UNL     1       2.223   4.038  18.431  0.00  0.00    +0.000 OA
ATOM     14  N   UNL     1       4.115   4.791  19.501  0.00  0.00    +0.000 N 
ATOM     15  H   UNL     1       4.505   5.525  20.076  0.00  0.00    +0.000 HD
BRANCH  14  16
ATOM     16  C   UNL     1       5.034   3.914  18.813  0.00  0.00    +0.000 C 
BRANCH  16  17
ATOM     17  C   UNL     1       5.884   4.669  17.826  0.00  0.00    +0.000 A 
ATOM     18  C   UNL     1       6.454   5.902  18.152  0.00  0.00    +0.000 A 
ATOM     19  C   UNL     1       7.225   6.550  17.197  0.00  0.00    +0.000 A 
ATOM     20  N   UNL     1       7.456   6.065  15.960  0.00  0.00    +0.000 NA
ATOM     21  C   UNL     1       6.886   4.878  15.661  0.00  0.00    +0.000 A 
ATOM     22  C   UNL     1       6.102   4.155  16.545  0.00  0.00    +0.000 A 
ENDBRANCH  16  17
ENDBRANCH  14  16
ENDBRANCH   1  12
TORSDOF 5
ENDMDL
MODEL 6
REMARK VINA RESULT:      -6.8      3.333      5.314
REMARK  Name = 
REMARK  7 active torsions:
REMARK  status: ('A' for Active; 'I' for Inactive)
REMARK    1  A    between atoms: C_1  and  C_2
REMARK    2  A    between atoms: C_2  and  C_3
REMARK    3  A    between atoms: C_2  and  C_4
REMARK    4  A    between atoms: C_9  and  C_10
REMARK    5  A    between atoms: C_10  and  C_11
REMARK    6  A    between atoms: N_13  and  C_14
REMARK    7  A    between atoms: C_14  and  C_15
REMARK                            x       y       z     vdW  Elec       q    Type
REMARK                         _______ _______ _______ _____ _____    ______ ____
ROOT
ATOM      1  C   UNL     1       1.116   3.103  20.215  0.00  0.00    +0.000 C 
ENDROOT
BRANCH   1   7
ATOM      2  C   UNL     1       5.242   4.070  18.170  0.00  0.00    +0.000 C 
ATOM      3  O   UNL     1       5.980   3.938  19.149  0.00  0.00    +0.000 OA
ATOM      4  N   UNL     1       3.999   3.476  18.144  0.00  0.00    +0.000 N 
ATOM      5  C   UNL     1       3.041   3.417  17.062  0.00  0.00    +0.000 C 
ATOM      6  C   UNL     1       1.710   3.386  17.784  0.00  0.00    +0.000 C 
ATOM      7  C   UNL     1       1.987   2.585  19.067  0.00  0.00    +0.000 C 
ATOM      8  C   UNL     1       3.499   2.749  19.304  0.00  0.00    +0.000 C 
BRANCH   2  10
ATOM      9  C   UNL     1       5.631   6.439  17.423  0.00  0.00    +0.000 C 
ATOM     10  C   UNL     1       5.653   4.967  16.990  0.00  0.00    +0.000 C 
ATOM     11  C   UNL     1       7.036   4.640  16.433  0.00  0.00    +0.000 C 
ENDBRANCH   2  10
ENDBRANCH   1   7
BRANCH   1  12
ATOM     12  C   UNL     1       1.703   4.294  20.949  0.00  0.00    +0.000 C 
ATOM     13  O   UNL     1       2.484   4.193  21.886  0.00  0.00    +0.000 OA
ATOM     14  N   UNL     1       1.246   5.497  20.452  0.00  0.00    +0.000 N 
ATOM     15  H   UNL     1       0.701   5.504  19.601  0.00  0.00    +0.000 HD
BRANCH  14  16
ATOM     16  C   UNL     1       1.707   6.765  20.968  0.00  0.00    +0.000 C 
BRANCH  16  17
ATOM     17  C   UNL     1       1.716   7.825  19.899  0.00  0.00    +0.000 A 
ATOM     18  C   UNL     1       2.356   7.618  18.675  0.00  0.00    +0.000 A 
ATOM     19  C   UNL     1       2.330   8.636  17.732  0.00  0.00    +0.000 A 
ATOM     20  N   UNL     1       1.727   9.827  17.926  0.00  0.00    +0.000 NA
ATOM     21  C   UNL     1       1.125  10.012  19.120  0.00  0.00    +0.000 A 
ATOM     22  C   UNL     1       1.095   9.057  20.124  0.00  0.00    +0.000 A 
ENDBRANCH  16  17
ENDBRANCH  14  16
ENDBRANCH   1  12
TORSDOF 5
ENDMDL
MODEL 7
REMARK VINA RESULT:      -6.8      0.260      1.056
REMARK  Name = 
REMARK  7 active torsions:
REMARK  status: ('A' for Active; 'I' for Inactive)
REMARK    1  A    between atoms: C_1  and  C_2
REMARK    2  A    between atoms: C_2  and  C_3
REMARK    3  A    between atoms: C_2  and  C_4
REMARK    4  A    between atoms: C_9  and  C_10
REMARK    5  A    between atoms: C_10  and  C_11
REMARK    6  A    between atoms: N_13  and  C_14
REMARK    7  A    between atoms: C_14  and  C_15
REMARK                            x       y       z     vdW  Elec       q    Type
REMARK                         _______ _______ _______ _____ _____    ______ ____
ROOT
ATOM      1  C   UNL     1       5.794   6.232  16.838  0.00  0.00    +0.000 C 
ENDROOT
BRANCH   1   7
ATOM      2  C   UNL     1       6.397   3.759  12.881  0.00  0.00    +0.000 C 
ATOM      3  O   UNL     1       7.098   4.558  12.257  0.00  0.00    +0.000 OA
ATOM      4  N   UNL     1       6.312   3.824  14.254  0.00  0.00    +0.000 N 
ATOM      5  C   UNL     1       5.645   2.925  15.169  0.00  0.00    +0.000 C 
ATOM      6  C   UNL     1       5.227   3.837  16.304  0.00  0.00    +0.000 C 
ATOM      7  C   UNL     1       6.355   4.878  16.395  0.00  0.00    +0.000 C 
ATOM      8  C   UNL     1       6.983   4.889  14.990  0.00  0.00    +0.000 C 
BRANCH   2  10
ATOM      9  C   UNL     1       4.435   3.435  11.343  0.00  0.00    +0.000 C 
ATOM     10  C   UNL     1       5.536   2.723  12.139  0.00  0.00    +0.000 C 
ATOM     11  C   UNL     1       6.336   1.838  11.188  0.00  0.00    +0.000 C 
ENDBRANCH   2  10
ENDBRANCH   1   7
BRANCH   1  12
ATOM     12  C   UNL     1       4.918   6.166  18.075  0.00  0.00    +0.000 C 
ATOM     13  O   UNL     1       5.297   5.717  19.148  0.00  0.00    +0.000 OA
ATOM     14  N   UNL     1       3.648   6.655  17.848  0.00  0.00    +0.000 N 
ATOM     15  H   UNL     1       3.447   7.121  16.974  0.00  0.00    +0.000 HD
BRANCH  14  16
ATOM     16  C   UNL     1       2.658   6.733  18.897  0.00  0.00    +0.000 C 
BRANCH  16  17
ATOM     17  C   UNL     1       2.035   5.390  19.169  0.00  0.00    +0.000 A 
ATOM     18  C   UNL     1       1.736   4.976  20.469  0.00  0.00    +0.000 A 
ATOM     19  C   UNL     1       1.165   3.725  20.653  0.00  0.00    +0.000 A 
ATOM     20  N   UNL     1       0.882   2.871  19.647  0.00  0.00    +0.000 NA
ATOM     21  C   UNL     1       1.190   3.285  18.399  0.00  0.00    +0.000 A 
ATOM     22  C   UNL     1       1.761   4.515  18.114  0.00  0.00    +0.000 A 
ENDBRANCH  16  17
ENDBRANCH  14  16
ENDBRANCH   1  12
TORSDOF 5
ENDMDL
MODEL 8
REMARK VINA RESULT:      -6.7      3.289      5.190
REMARK  Name = 
REMARK  7 active torsions:
REMARK  status: ('A' for Active; 'I' for Inactive)
REMARK    1  A    between atoms: C_1  and  C_2
REMARK    2  A    between atoms: C_2  and  C_3
REMARK    3  A    between atoms: C_2  and  C_4
REMARK    4  A    between atoms: C_9  and  C_10
REMARK    5  A    between atoms: C_10  and  C_11
REMARK    6  A    between atoms: N_13  and  C_14
REMARK    7  A    between atoms: C_14  and  C_15
REMARK                            x       y       z     vdW  Elec       q    Type
REMARK                         _______ _______ _______ _____ _____    ______ ____
ROOT
ATOM      1  C   UNL     1       6.325   6.083  17.252  0.00  0.00    +0.000 C 
ENDROOT
BRANCH   1   7
ATOM      2  C   UNL     1       2.674   3.212  18.002  0.00  0.00    +0.000 C 
ATOM      3  O   UNL     1       2.185   3.219  16.870  0.00  0.00    +0.000 OA
ATOM      4  N   UNL     1       3.995   3.550  18.197  0.00  0.00    +0.000 N 
ATOM      5  C   UNL     1       4.778   3.497  19.412  0.00  0.00    +0.000 C 
ATOM      6  C   UNL     1       5.767   4.631  19.232  0.00  0.00    +0.000 C 
ATOM      7  C   UNL     1       6.059   4.651  17.723  0.00  0.00    +0.000 C 
ATOM      8  C   UNL     1       4.819   4.002  17.083  0.00  0.00    +0.000 C 
BRANCH   2  10
ATOM      9  C   UNL     1       1.368   4.219  19.900  0.00  0.00    +0.000 C 
ATOM     10  C   UNL     1       1.803   2.908  19.233  0.00  0.00    +0.000 C 
ATOM     11  C   UNL     1       0.559   2.085  18.907  0.00  0.00    +0.000 C 
ENDBRANCH   2  10
ENDBRANCH   1   7
BRANCH   1  12
ATOM     12  C   UNL     1       5.128   6.757  16.608  0.00  0.00    +0.000 C 
ATOM     13  O   UNL     1       5.022   6.938  15.402  0.00  0.00    +0.000 OA
ATOM     14  N   UNL     1       4.185   7.153  17.533  0.00  0.00    +0.000 N 
ATOM     15  H   UNL     1       4.284   6.860  18.496  0.00  0.00    +0.000 HD
BRANCH  14  16
ATOM     16  C   UNL     1       2.941   7.774  17.142  0.00  0.00    +0.000 C 
BRANCH  16  17
ATOM     17  C   UNL     1       2.188   8.301  18.336  0.00  0.00    +0.000 A 
ATOM     18  C   UNL     1       1.467   9.495  18.271  0.00  0.00    +0.000 A 
ATOM     19  C   UNL     1       0.797   9.928  19.407  0.00  0.00    +0.000 A 
ATOM     20  N   UNL     1       0.803   9.267  20.582  0.00  0.00    +0.000 NA
ATOM     21  C   UNL     1       1.516   8.121  20.628  0.00  0.00    +0.000 A 
ATOM     22  C   UNL     1       2.216   7.607  19.548  0.00  0.00    +0.000 A 
ENDBRANCH  16  17
ENDBRANCH  14  16
ENDBRANCH   1  12
TORSDOF 5
ENDMDL
MODEL 9
REMARK VINA RESULT:      -6.7      3.275      5.206
REMARK  Name = 
REMARK  7 active torsions:
REMARK  status: ('A' for Active; 'I' for Inactive)
REMARK    1  A    between atoms: C_1  and  C_2
REMARK    2  A    between atoms: C_2  and  C_3
REMARK    3  A    between atoms: C_2  and  C_4
REMARK    4  A    between atoms: C_9  and  C_10
REMARK    5  A    between atoms: C_10  and  C_11
REMARK    6  A    between atoms: N_13  and  C_14
REMARK    7  A    between atoms: C_14  and  C_15
REMARK                            x       y       z     vdW  Elec       q    Type
REMARK                         _______ _______ _______ _____ _____    ______ ____
ROOT
ATOM      1  C   UNL     1       6.327   6.081  17.209  0.00  0.00    +0.000 C 
ENDROOT
BRANCH   1   7
ATOM      2  C   UNL     1       2.678   3.210  17.972  0.00  0.00    +0.000 C 
ATOM      3  O   UNL     1       2.189   3.212  16.840  0.00  0.00    +0.000 OA
ATOM      4  N   UNL     1       3.999   3.550  18.166  0.00  0.00    +0.000 N 
ATOM      5  C   UNL     1       4.782   3.504  19.380  0.00  0.00    +0.000 C 
ATOM      6  C   UNL     1       5.770   4.638  19.195  0.00  0.00    +0.000 C 
ATOM      7  C   UNL     1       6.062   4.651  17.686  0.00  0.00    +0.000 C 
ATOM      8  C   UNL     1       4.822   3.997  17.049  0.00  0.00    +0.000 C 
BRANCH   2  10
ATOM      9  C   UNL     1       1.383   4.224  19.873  0.00  0.00    +0.000 C 
ATOM     10  C   UNL     1       1.808   2.911  19.204  0.00  0.00    +0.000 C 
ATOM     11  C   UNL     1       0.557   2.097  18.880  0.00  0.00    +0.000 C 
ENDBRANCH   2  10
ENDBRANCH   1   7
BRANCH   1  12
ATOM     12  C   UNL     1       5.119   6.763  16.593  0.00  0.00    +0.000 C 
ATOM     13  O   UNL     1       4.997   6.967  15.393  0.00  0.00    +0.000 OA
ATOM     14  N   UNL     1       4.187   7.138  17.538  0.00  0.00    +0.000 N 
ATOM     15  H   UNL     1       4.300   6.827  18.494  0.00  0.00    +0.000 HD
BRANCH  14  16
ATOM     16  C   UNL     1       2.936   7.763  17.176  0.00  0.00    +0.000 C 
BRANCH  16  17
ATOM     17  C   UNL     1       2.210   8.287  18.386  0.00  0.00    +0.000 A 
ATOM     18  C   UNL     1       2.199   7.580  19.591  0.00  0.00    +0.000 A 
ATOM     19  C   UNL     1       1.509   8.115  20.669  0.00  0.00    +0.000 A 
ATOM     20  N   UNL     1       0.835   9.284  20.626  0.00  0.00    +0.000 NA
ATOM     21  C   UNL     1       0.848   9.946  19.450  0.00  0.00    +0.000 A 
ATOM     22  C   UNL     1       1.508   9.494  18.318  0.00  0.00    +0.000 A 
ENDBRANCH  16  17
ENDBRANCH  14  16
ENDBRANCH   1  12
TORSDOF 5
ENDMDL
