MODEL 1
REMARK VINA RESULT:      -7.4      0.000      0.000
REMARK  Name = 
REMARK  9 active torsions:
REMARK  status: ('A' for Active; 'I' for Inactive)
REMARK    1  A    between atoms: C_1  and  O_2
REMARK    2  A    between atoms: O_2  and  C_3
REMARK    3  A    between atoms: C_6  and  C_7
REMARK    4  A    between atoms: C_7  and  N_8
REMARK    5  A    between atoms: N_8  and  C_9
REMARK    6  A    between atoms: N_8  and  S_16
REMARK    7  A    between atoms: C_12  and  C_13
REMARK    8  A    between atoms: S_16  and  C_19
REMARK    9  A    between atoms: C_25  and  C_26
REMARK                            x       y       z     vdW  Elec       q    Type
REMARK                         _______ _______ _______ _____ _____    ______ ____
ROOT
ATOM      1  N   UNL     1       2.827   7.200  18.642  0.00  0.00    +0.000 N 
ENDROOT
BRANCH   1   2
ATOM      2  C   UNL     1       2.235   5.908  18.779  0.00  0.00    +0.000 A 
ATOM      3  C   UNL     1       1.915   5.155  17.649  0.00  0.00    +0.000 A 
ATOM      4  C   UNL     1       1.421   3.854  17.792  0.00  0.00    +0.000 A 
ATOM      5  C   UNL     1       1.237   3.304  19.066  0.00  0.00    +0.000 A 
ATOM      6  C   UNL     1       0.762   1.890  19.236  0.00  0.00    +0.000 C 
ATOM      7  C   UNL     1       1.559   4.071  20.193  0.00  0.00    +0.000 A 
ATOM      8  C   UNL     1       2.062   5.366  20.049  0.00  0.00    +0.000 A 
ENDBRANCH   1   2
BRANCH   1   9
ATOM      9  S   UNL     1       1.848   8.516  18.215  0.00  0.00    +0.000 S 
ATOM     10  O   UNL     1       2.729   9.570  17.729  0.00  0.00    +0.000 OA
ATOM     11  O   UNL     1       0.771   8.049  17.368  0.00  0.00    +0.000 OA
BRANCH   9  12
ATOM     12  C   UNL     1       1.142   9.044  19.729  0.00  0.00    +0.000 A 
ATOM     13  C   UNL     1       1.590   8.489  21.006  0.00  0.00    +0.000 A 
ATOM     14  C   UNL     1       1.139   8.978  22.179  0.00  0.00    +0.000 A 
ATOM     15  C   UNL     1       0.200  10.045  22.176  0.00  0.00    +0.000 A 
ATOM     16  N   UNL     1      -0.378  10.726  23.138  0.00  0.00    +0.000 NA
ATOM     17  N   UNL     1      -1.180  11.681  22.556  0.00  0.00    +0.000 NA
ATOM     18  C   UNL     1      -1.080  11.565  21.246  0.00  0.00    +0.000 A 
ATOM     19  C   UNL     1      -1.713  12.441  20.236  0.00  0.00    +0.000 C 
ATOM     20  N   UNL     1      -0.233  10.521  20.946  0.00  0.00    +0.000 N 
ATOM     21  C   UNL     1       0.212  10.016  19.727  0.00  0.00    +0.000 A 
ENDBRANCH   9  12
ENDBRANCH   1   9
BRANCH   1  22
ATOM     22  C   UNL     1       4.291   7.299  18.550  0.00  0.00    +0.000 C 
BRANCH  22  26
ATOM     23  C   UNL     1       5.900   4.576  15.593  0.00  0.00    +0.000 A 
ATOM     24  C   UNL     1       6.007   4.279  16.953  0.00  0.00    +0.000 A 
ATOM     25  C   UNL     1       5.530   5.177  17.919  0.00  0.00    +0.000 A 
ATOM     26  C   UNL     1       4.942   6.387  17.532  0.00  0.00    +0.000 A 
ATOM     27  C   UNL     1       4.901   6.706  16.169  0.00  0.00    +0.000 A 
ATOM     28  C   UNL     1       5.379   5.810  15.207  0.00  0.00    +0.000 A 
BRANCH  23  30
ATOM     29  C   UNL     1       5.996   3.793  13.365  0.00  0.00    +0.000 C 
ATOM     30  O   UNL     1       6.363   3.618  14.733  0.00  0.00    +0.000 OA
ENDBRANCH  23  30
ENDBRANCH  22  26
ENDBRANCH   1  22
TORSDOF 6
ENDMDL
MODEL 2
REMARK VINA RESULT:      -7.3      3.429      7.930
REMARK  Name = 
REMARK  9 active torsions:
REMARK  status: ('A' for Active; 'I' for Inactive)
REMARK    1  A    between atoms: C_1  and  O_2
REMARK    2  A    between atoms: O_2  and  C_3
REMARK    3  A    between atoms: C_6  and  C_7
REMARK    4  A    between atoms: C_7  and  N_8
REMARK    5  A    between atoms: N_8  and  C_9
REMARK    6  A    between atoms: N_8  and  S_16
REMARK    7  A    between atoms: C_12  and  C_13
REMARK    8  A    between atoms: S_16  and  C_19
REMARK    9  A    between atoms: C_25  and  C_26
REMARK                            x       y       z     vdW  Elec       q    Type
REMARK                         _______ _______ _______ _____ _____    ______ ____
ROOT
ATOM      1  N   UNL     1       0.329  10.726  20.541  0.00  0.00    +0.000 N 
ENDROOT
BRANCH   1   2
ATOM      2  C   UNL     1      -0.810  10.857  19.689  0.00  0.00    +0.000 A 
ATOM      3  C   UNL     1      -1.853  11.716  20.033  0.00  0.00    +0.000 A 
ATOM      4  C   UNL     1      -2.922  11.907  19.151  0.00  0.00    +0.000 A 
ATOM      5  C   UNL     1      -2.954  11.233  17.924  0.00  0.00    +0.000 A 
ATOM      6  C   UNL     1      -4.064  11.470  16.942  0.00  0.00    +0.000 C 
ATOM      7  C   UNL     1      -1.902  10.370  17.592  0.00  0.00    +0.000 A 
ATOM      8  C   UNL     1      -0.831  10.187  18.470  0.00  0.00    +0.000 A 
ENDBRANCH   1   2
BRANCH   1   9
ATOM      9  S   UNL     1       0.629   9.240  21.298  0.00  0.00    +0.000 S 
ATOM     10  O   UNL     1       1.548   9.493  22.399  0.00  0.00    +0.000 OA
ATOM     11  O   UNL     1      -0.633   8.583  21.567  0.00  0.00    +0.000 OA
BRANCH   9  12
ATOM     12  C   UNL     1       1.471   8.296  20.085  0.00  0.00    +0.000 A 
ATOM     13  C   UNL     1       1.959   8.912  18.852  0.00  0.00    +0.000 A 
ATOM     14  C   UNL     1       2.714   8.220  17.974  0.00  0.00    +0.000 A 
ATOM     15  C   UNL     1       3.030   6.861  18.245  0.00  0.00    +0.000 A 
ATOM     16  N   UNL     1       3.750   5.969  17.604  0.00  0.00    +0.000 NA
ATOM     17  N   UNL     1       3.746   4.811  18.347  0.00  0.00    +0.000 NA
ATOM     18  C   UNL     1       3.020   5.015  19.429  0.00  0.00    +0.000 A 
ATOM     19  C   UNL     1       2.814   4.060  20.540  0.00  0.00    +0.000 C 
ATOM     20  N   UNL     1       2.518   6.297  19.404  0.00  0.00    +0.000 N 
ATOM     21  C   UNL     1       1.726   6.994  20.312  0.00  0.00    +0.000 A 
ENDBRANCH   9  12
ENDBRANCH   1   9
BRANCH   1  22
ATOM     22  C   UNL     1       1.012  11.946  20.997  0.00  0.00    +0.000 C 
BRANCH  22  26
ATOM     23  C   UNL     1       2.723  14.554  17.995  0.00  0.00    +0.000 A 
ATOM     24  C   UNL     1       1.921  15.081  19.007  0.00  0.00    +0.000 A 
ATOM     25  C   UNL     1       1.325  14.239  19.956  0.00  0.00    +0.000 A 
ATOM     26  C   UNL     1       1.524  12.854  19.900  0.00  0.00    +0.000 A 
ATOM     27  C   UNL     1       2.276  12.329  18.841  0.00  0.00    +0.000 A 
ATOM     28  C   UNL     1       2.869  13.171  17.894  0.00  0.00    +0.000 A 
BRANCH  23  30
ATOM     29  C   UNL     1       3.085  16.834  17.487  0.00  0.00    +0.000 C 
ATOM     30  O   UNL     1       3.287  15.464  17.142  0.00  0.00    +0.000 OA
ENDBRANCH  23  30
ENDBRANCH  22  26
ENDBRANCH   1  22
TORSDOF 6
ENDMDL
MODEL 3
REMARK VINA RESULT:      -7.2      3.433      8.578
REMARK  Name = 
REMARK  9 active torsions:
REMARK  status: ('A' for Active; 'I' for Inactive)
REMARK    1  A    between atoms: C_1  and  O_2
REMARK    2  A    between atoms: O_2  and  C_3
REMARK    3  A    between atoms: C_6  and  C_7
REMARK    4  A    between atoms: C_7  and  N_8
REMARK    5  A    between atoms: N_8  and  C_9
REMARK    6  A    between atoms: N_8  and  S_16
REMARK    7  A    between atoms: C_12  and  C_13
REMARK    8  A    between atoms: S_16  and  C_19
REMARK    9  A    between atoms: C_25  and  C_26
REMARK                            x       y       z     vdW  Elec       q    Type
REMARK                         _______ _______ _______ _____ _____    ______ ____
ROOT
ATOM      1  N   UNL     1       0.517  10.239  19.438  0.00  0.00    +0.000 N 
ENDROOT
BRANCH   1   2
ATOM      2  C   UNL     1       1.147  11.521  19.456  0.00  0.00    +0.000 A 
ATOM      3  C   UNL     1       2.022  11.892  18.436  0.00  0.00    +0.000 A 
ATOM      4  C   UNL     1       2.564  13.181  18.413  0.00  0.00    +0.000 A 
ATOM      5  C   UNL     1       2.237  14.103  19.415  0.00  0.00    +0.000 A 
ATOM      6  C   UNL     1       2.763  15.508  19.374  0.00  0.00    +0.000 C 
ATOM      7  C   UNL     1       1.359  13.717  20.436  0.00  0.00    +0.000 A 
ATOM      8  C   UNL     1       0.812  12.432  20.454  0.00  0.00    +0.000 A 
ENDBRANCH   1   2
BRANCH   1   9
ATOM      9  S   UNL     1       0.827   9.148  20.697  0.00  0.00    +0.000 S 
ATOM     10  O   UNL     1       1.743   9.803  21.621  0.00  0.00    +0.000 OA
ATOM     11  O   UNL     1      -0.430   8.631  21.196  0.00  0.00    +0.000 OA
BRANCH   9  12
ATOM     12  C   UNL     1       1.677   7.824  19.926  0.00  0.00    +0.000 A 
ATOM     13  C   UNL     1       2.441   8.030  18.696  0.00  0.00    +0.000 A 
ATOM     14  C   UNL     1       3.197   7.045  18.168  0.00  0.00    +0.000 A 
ATOM     15  C   UNL     1       3.242   5.779  18.810  0.00  0.00    +0.000 A 
ATOM     16  N   UNL     1       3.895   4.670  18.548  0.00  0.00    +0.000 NA
ATOM     17  N   UNL     1       3.589   3.758  19.533  0.00  0.00    +0.000 NA
ATOM     18  C   UNL     1       2.751   4.326  20.378  0.00  0.00    +0.000 A 
ATOM     19  C   UNL     1       2.225   3.730  21.626  0.00  0.00    +0.000 C 
ATOM     20  N   UNL     1       2.474   5.606  19.953  0.00  0.00    +0.000 N 
ATOM     21  C   UNL     1       1.679   6.608  20.502  0.00  0.00    +0.000 A 
ENDBRANCH   9  12
ENDBRANCH   1   9
BRANCH   1  22
ATOM     22  C   UNL     1      -0.108   9.778  18.190  0.00  0.00    +0.000 C 
BRANCH  22  26
ATOM     23  C   UNL     1      -4.112  11.258  17.469  0.00  0.00    +0.000 A 
ATOM     24  C   UNL     1      -3.466  10.484  16.504  0.00  0.00    +0.000 A 
ATOM     25  C   UNL     1      -2.152  10.039  16.709  0.00  0.00    +0.000 A 
ATOM     26  C   UNL     1      -1.468  10.369  17.885  0.00  0.00    +0.000 A 
ATOM     27  C   UNL     1      -2.101  11.201  18.817  0.00  0.00    +0.000 A 
ATOM     28  C   UNL     1      -3.411  11.645  18.610  0.00  0.00    +0.000 A 
BRANCH  23  30
ATOM     29  C   UNL     1      -6.368  11.246  18.175  0.00  0.00    +0.000 C 
ATOM     30  O   UNL     1      -5.405  11.609  17.187  0.00  0.00    +0.000 OA
ENDBRANCH  23  30
ENDBRANCH  22  26
ENDBRANCH   1  22
TORSDOF 6
ENDMDL
MODEL 4
REMARK VINA RESULT:      -7.1      3.456      8.741
REMARK  Name = 
REMARK  9 active torsions:
REMARK  status: ('A' for Active; 'I' for Inactive)
REMARK    1  A    between atoms: C_1  and  O_2
REMARK    2  A    between atoms: O_2  and  C_3
REMARK    3  A    between atoms: C_6  and  C_7
REMARK    4  A    between atoms: C_7  and  N_8
REMARK    5  A    between atoms: N_8  and  C_9
REMARK    6  A    between atoms: N_8  and  S_16
REMARK    7  A    between atoms: C_12  and  C_13
REMARK    8  A    between atoms: S_16  and  C_19
REMARK    9  A    between atoms: C_25  and  C_26
REMARK                            x       y       z     vdW  Elec       q    Type
REMARK                         _______ _______ _______ _____ _____    ______ ____
ROOT
ATOM      1  N   UNL     1       0.422  10.514  19.478  0.00  0.00    +0.000 N 
ENDROOT
BRANCH   1   2
ATOM      2  C   UNL     1       1.112  11.764  19.466  0.00  0.00    +0.000 A 
ATOM      3  C   UNL     1       0.935  12.678  20.505  0.00  0.00    +0.000 A 
ATOM      4  C   UNL     1       1.682  13.860  20.532  0.00  0.00    +0.000 A 
ATOM      5  C   UNL     1       2.605  14.136  19.515  0.00  0.00    +0.000 A 
ATOM      6  C   UNL     1       3.456  15.372  19.559  0.00  0.00    +0.000 C 
ATOM      7  C   UNL     1       2.772  13.212  18.476  0.00  0.00    +0.000 A 
ATOM      8  C   UNL     1       2.031  12.027  18.455  0.00  0.00    +0.000 A 
ENDBRANCH   1   2
BRANCH   1   9
ATOM      9  S   UNL     1       0.767   9.392  20.701  0.00  0.00    +0.000 S 
ATOM     10  O   UNL     1       1.708  10.025  21.615  0.00  0.00    +0.000 OA
ATOM     11  O   UNL     1      -0.476   8.862  21.221  0.00  0.00    +0.000 OA
BRANCH   9  12
ATOM     12  C   UNL     1       1.595   8.088  19.875  0.00  0.00    +0.000 A 
ATOM     13  C   UNL     1       2.316   8.322  18.624  0.00  0.00    +0.000 A 
ATOM     14  C   UNL     1       3.057   7.353  18.050  0.00  0.00    +0.000 A 
ATOM     15  C   UNL     1       3.129   6.073  18.664  0.00  0.00    +0.000 A 
ATOM     16  N   UNL     1       3.777   4.973  18.357  0.00  0.00    +0.000 NA
ATOM     17  N   UNL     1       3.509   4.040  19.333  0.00  0.00    +0.000 NA
ATOM     18  C   UNL     1       2.698   4.586  20.217  0.00  0.00    +0.000 A 
ATOM     19  C   UNL     1       2.218   3.963  21.470  0.00  0.00    +0.000 C 
ATOM     20  N   UNL     1       2.402   5.873  19.829  0.00  0.00    +0.000 N 
ATOM     21  C   UNL     1       1.621   6.860  20.425  0.00  0.00    +0.000 A 
ENDBRANCH   9  12
ENDBRANCH   1   9
BRANCH   1  22
ATOM     22  C   UNL     1      -0.309  10.100  18.272  0.00  0.00    +0.000 C 
BRANCH  22  26
ATOM     23  C   UNL     1      -4.376  11.535  17.894  0.00  0.00    +0.000 A 
ATOM     24  C   UNL     1      -3.568  11.986  18.938  0.00  0.00    +0.000 A 
ATOM     25  C   UNL     1      -2.265  11.491  19.095  0.00  0.00    +0.000 A 
ATOM     26  C   UNL     1      -1.758  10.535  18.208  0.00  0.00    +0.000 A 
ATOM     27  C   UNL     1      -2.600  10.041  17.204  0.00  0.00    +0.000 A 
ATOM     28  C   UNL     1      -3.900  10.534  17.049  0.00  0.00    +0.000 A 
BRANCH  23  30
ATOM     29  C   UNL     1      -6.706  11.271  18.195  0.00  0.00    +0.000 C 
ATOM     30  O   UNL     1      -5.617  12.107  17.808  0.00  0.00    +0.000 OA
ENDBRANCH  23  30
ENDBRANCH  22  26
ENDBRANCH   1  22
TORSDOF 6
ENDMDL
MODEL 5
REMARK VINA RESULT:      -7.1      3.443      6.850
REMARK  Name = 
REMARK  9 active torsions:
REMARK  status: ('A' for Active; 'I' for Inactive)
REMARK    1  A    between atoms: C_1  and  O_2
REMARK    2  A    between atoms: O_2  and  C_3
REMARK    3  A    between atoms: C_6  and  C_7
REMARK    4  A    between atoms: C_7  and  N_8
REMARK    5  A    between atoms: N_8  and  C_9
REMARK    6  A    between atoms: N_8  and  S_16
REMARK    7  A    between atoms: C_12  and  C_13
REMARK    8  A    between atoms: S_16  and  C_19
REMARK    9  A    between atoms: C_25  and  C_26
REMARK                            x       y       z     vdW  Elec       q    Type
REMARK                         _______ _______ _______ _____ _____    ______ ____
ROOT
ATOM      1  N   UNL     1       0.843  10.133  20.025  0.00  0.00    +0.000 N 
ENDROOT
BRANCH   1   2
ATOM      2  C   UNL     1       1.502   9.035  19.394  0.00  0.00    +0.000 A 
ATOM      3  C   UNL     1       2.000   9.162  18.096  0.00  0.00    +0.000 A 
ATOM      4  C   UNL     1       2.724   8.113  17.519  0.00  0.00    +0.000 A 
ATOM      5  C   UNL     1       2.947   6.930  18.235  0.00  0.00    +0.000 A 
ATOM      6  C   UNL     1       3.770   5.819  17.653  0.00  0.00    +0.000 C 
ATOM      7  C   UNL     1       2.440   6.814  19.536  0.00  0.00    +0.000 A 
ATOM      8  C   UNL     1       1.725   7.865  20.115  0.00  0.00    +0.000 A 
ENDBRANCH   1   2
BRANCH   1   9
ATOM      9  S   UNL     1       0.380   9.996  21.649  0.00  0.00    +0.000 S 
ATOM     10  O   UNL     1      -0.755   9.085  21.700  0.00  0.00    +0.000 OA
ATOM     11  O   UNL     1       1.551   9.712  22.453  0.00  0.00    +0.000 OA
BRANCH   9  12
ATOM     12  C   UNL     1      -0.183  11.599  22.079  0.00  0.00    +0.000 A 
ATOM     13  C   UNL     1       0.494  12.796  21.580  0.00  0.00    +0.000 A 
ATOM     14  C   UNL     1      -0.007  14.028  21.805  0.00  0.00    +0.000 A 
ATOM     15  C   UNL     1      -1.207  14.169  22.553  0.00  0.00    +0.000 A 
ATOM     16  N   UNL     1      -1.926  15.213  22.897  0.00  0.00    +0.000 NA
ATOM     17  N   UNL     1      -3.021  14.759  23.596  0.00  0.00    +0.000 NA
ATOM     18  C   UNL     1      -2.950  13.444  23.670  0.00  0.00    +0.000 A 
ATOM     19  C   UNL     1      -3.960  12.543  24.267  0.00  0.00    +0.000 C 
ATOM     20  N   UNL     1      -1.801  13.015  23.044  0.00  0.00    +0.000 N 
ATOM     21  C   UNL     1      -1.288  11.738  22.833  0.00  0.00    +0.000 A 
ENDBRANCH   9  12
ENDBRANCH   1   9
BRANCH   1  22
ATOM     22  C   UNL     1       0.294  11.205  19.182  0.00  0.00    +0.000 C 
BRANCH  22  26
ATOM     23  C   UNL     1      -3.768  10.844  17.727  0.00  0.00    +0.000 A 
ATOM     24  C   UNL     1      -3.459  11.774  18.721  0.00  0.00    +0.000 A 
ATOM     25  C   UNL     1      -2.155  11.866  19.230  0.00  0.00    +0.000 A 
ATOM     26  C   UNL     1      -1.146  11.023  18.752  0.00  0.00    +0.000 A 
ATOM     27  C   UNL     1      -1.482  10.049  17.804  0.00  0.00    +0.000 A 
ATOM     28  C   UNL     1      -2.783   9.957  17.297  0.00  0.00    +0.000 A 
BRANCH  23  30
ATOM     29  C   UNL     1      -5.649  12.154  17.149  0.00  0.00    +0.000 C 
ATOM     30  O   UNL     1      -5.059  10.861  17.273  0.00  0.00    +0.000 OA
ENDBRANCH  23  30
ENDBRANCH  22  26
ENDBRANCH   1  22
TORSDOF 6
ENDMDL
MODEL 6
REMARK VINA RESULT:      -7.0      3.698      6.683
REMARK  Name = 
REMARK  9 active torsions:
REMARK  status: ('A' for Active; 'I' for Inactive)
REMARK    1  A    between atoms: C_1  and  O_2
REMARK    2  A    between atoms: O_2  and  C_3
REMARK    3  A    between atoms: C_6  and  C_7
REMARK    4  A    between atoms: C_7  and  N_8
REMARK    5  A    between atoms: N_8  and  C_9
REMARK    6  A    between atoms: N_8  and  S_16
REMARK    7  A    between atoms: C_12  and  C_13
REMARK    8  A    between atoms: S_16  and  C_19
REMARK    9  A    between atoms: C_25  and  C_26
REMARK                            x       y       z     vdW  Elec       q    Type
REMARK                         _______ _______ _______ _____ _____    ______ ____
ROOT
ATOM      1  N   UNL     1       0.068  10.442  19.640  0.00  0.00    +0.000 N 
ENDROOT
BRANCH   1   2
ATOM      2  C   UNL     1       1.036   9.444  19.316  0.00  0.00    +0.000 A 
ATOM      3  C   UNL     1       1.269   8.378  20.185  0.00  0.00    +0.000 A 
ATOM      4  C   UNL     1       2.152   7.356  19.818  0.00  0.00    +0.000 A 
ATOM      5  C   UNL     1       2.811   7.401  18.583  0.00  0.00    +0.000 A 
ATOM      6  C   UNL     1       3.717   6.285  18.150  0.00  0.00    +0.000 C 
ATOM      7  C   UNL     1       2.571   8.478  17.721  0.00  0.00    +0.000 A 
ATOM      8  C   UNL     1       1.682   9.493  18.084  0.00  0.00    +0.000 A 
ENDBRANCH   1   2
BRANCH   1   9
ATOM      9  S   UNL     1       0.562  11.830  20.479  0.00  0.00    +0.000 S 
ATOM     10  O   UNL     1       1.571  11.416  21.444  0.00  0.00    +0.000 OA
ATOM     11  O   UNL     1       0.882  12.870  19.524  0.00  0.00    +0.000 OA
BRANCH   9  12
ATOM     12  C   UNL     1      -0.865  12.338  21.359  0.00  0.00    +0.000 A 
ATOM     13  C   UNL     1      -1.369  11.566  22.494  0.00  0.00    +0.000 A 
ATOM     14  C   UNL     1      -2.390  12.017  23.250  0.00  0.00    +0.000 A 
ATOM     15  C   UNL     1      -3.000  13.259  22.931  0.00  0.00    +0.000 A 
ATOM     16  N   UNL     1      -3.970  13.946  23.490  0.00  0.00    +0.000 NA
ATOM     17  N   UNL     1      -4.127  15.112  22.775  0.00  0.00    +0.000 NA
ATOM     18  C   UNL     1      -3.252  15.115  21.789  0.00  0.00    +0.000 A 
ATOM     19  C   UNL     1      -3.023  16.212  20.823  0.00  0.00    +0.000 C 
ATOM     20  N   UNL     1      -2.524  13.947  21.824  0.00  0.00    +0.000 N 
ATOM     21  C   UNL     1      -1.480  13.488  21.025  0.00  0.00    +0.000 A 
ENDBRANCH   9  12
ENDBRANCH   1   9
BRANCH   1  22
ATOM     22  C   UNL     1      -1.358  10.101  19.539  0.00  0.00    +0.000 C 
BRANCH  22  26
ATOM     23  C   UNL     1      -3.440  10.871  15.822  0.00  0.00    +0.000 A 
ATOM     24  C   UNL     1      -2.367   9.979  15.853  0.00  0.00    +0.000 A 
ATOM     25  C   UNL     1      -1.658   9.759  17.043  0.00  0.00    +0.000 A 
ATOM     26  C   UNL     1      -2.014  10.434  18.216  0.00  0.00    +0.000 A 
ATOM     27  C   UNL     1      -3.049  11.376  18.158  0.00  0.00    +0.000 A 
ATOM     28  C   UNL     1      -3.755  11.596  16.970  0.00  0.00    +0.000 A 
BRANCH  23  30
ATOM     29  C   UNL     1      -3.892   9.903  13.713  0.00  0.00    +0.000 C 
ATOM     30  O   UNL     1      -4.088  10.986  14.622  0.00  0.00    +0.000 OA
ENDBRANCH  23  30
ENDBRANCH  22  26
ENDBRANCH   1  22
TORSDOF 6
ENDMDL
MODEL 7
REMARK VINA RESULT:      -7.0      3.502      8.627
REMARK  Name = 
REMARK  9 active torsions:
REMARK  status: ('A' for Active; 'I' for Inactive)
REMARK    1  A    between atoms: C_1  and  O_2
REMARK    2  A    between atoms: O_2  and  C_3
REMARK    3  A    between atoms: C_6  and  C_7
REMARK    4  A    between atoms: C_7  and  N_8
REMARK    5  A    between atoms: N_8  and  C_9
REMARK    6  A    between atoms: N_8  and  S_16
REMARK    7  A    between atoms: C_12  and  C_13
REMARK    8  A    between atoms: S_16  and  C_19
REMARK    9  A    between atoms: C_25  and  C_26
REMARK                            x       y       z     vdW  Elec       q    Type
REMARK                         _______ _______ _______ _____ _____    ______ ____
ROOT
ATOM      1  N   UNL     1       0.320  10.443  20.172  0.00  0.00    +0.000 N 
ENDROOT
BRANCH   1   2
ATOM      2  C   UNL     1       0.592  11.787  20.573  0.00  0.00    +0.000 A 
ATOM      3  C   UNL     1      -0.187  12.402  21.554  0.00  0.00    +0.000 A 
ATOM      4  C   UNL     1       0.142  13.684  22.006  0.00  0.00    +0.000 A 
ATOM      5  C   UNL     1       1.247  14.359  21.473  0.00  0.00    +0.000 A 
ATOM      6  C   UNL     1       1.648  15.711  21.987  0.00  0.00    +0.000 C 
ATOM      7  C   UNL     1       2.019  13.732  20.486  0.00  0.00    +0.000 A 
ATOM      8  C   UNL     1       1.695  12.448  20.042  0.00  0.00    +0.000 A 
ENDBRANCH   1   2
BRANCH   1   9
ATOM      9  S   UNL     1       0.639   9.178  21.253  0.00  0.00    +0.000 S 
ATOM     10  O   UNL     1       1.588   9.679  22.237  0.00  0.00    +0.000 OA
ATOM     11  O   UNL     1      -0.616   8.613  21.704  0.00  0.00    +0.000 OA
BRANCH   9  12
ATOM     12  C   UNL     1       1.446   7.965  20.278  0.00  0.00    +0.000 A 
ATOM     13  C   UNL     1       2.109   8.322  19.025  0.00  0.00    +0.000 A 
ATOM     14  C   UNL     1       2.836   7.419  18.335  0.00  0.00    +0.000 A 
ATOM     15  C   UNL     1       2.948   6.091  18.827  0.00  0.00    +0.000 A 
ATOM     16  N   UNL     1       3.595   5.032  18.396  0.00  0.00    +0.000 NA
ATOM     17  N   UNL     1       3.379   4.011  19.294  0.00  0.00    +0.000 NA
ATOM     18  C   UNL     1       2.600   4.464  20.257  0.00  0.00    +0.000 A 
ATOM     19  C   UNL     1       2.181   3.723  21.467  0.00  0.00    +0.000 C 
ATOM     20  N   UNL     1       2.274   5.776  19.999  0.00  0.00    +0.000 N 
ATOM     21  C   UNL     1       1.509   6.694  20.714  0.00  0.00    +0.000 A 
ENDBRANCH   9  12
ENDBRANCH   1   9
BRANCH   1  22
ATOM     22  C   UNL     1       0.090  10.166  18.747  0.00  0.00    +0.000 C 
BRANCH  22  26
ATOM     23  C   UNL     1      -3.828  11.105  17.161  0.00  0.00    +0.000 A 
ATOM     24  C   UNL     1      -3.415  11.651  18.377  0.00  0.00    +0.000 A 
ATOM     25  C   UNL     1      -2.166  11.316  18.921  0.00  0.00    +0.000 A 
ATOM     26  C   UNL     1      -1.318  10.425  18.252  0.00  0.00    +0.000 A 
ATOM     27  C   UNL     1      -1.770   9.832  17.067  0.00  0.00    +0.000 A 
ATOM     28  C   UNL     1      -3.017  10.166  16.526  0.00  0.00    +0.000 A 
BRANCH  23  30
ATOM     29  C   UNL     1      -5.812  12.307  17.617  0.00  0.00    +0.000 C 
ATOM     30  O   UNL     1      -5.047  11.525  16.701  0.00  0.00    +0.000 OA
ENDBRANCH  23  30
ENDBRANCH  22  26
ENDBRANCH   1  22
TORSDOF 6
ENDMDL
MODEL 8
REMARK VINA RESULT:      -7.0      3.445      7.779
REMARK  Name = 
REMARK  9 active torsions:
REMARK  status: ('A' for Active; 'I' for Inactive)
REMARK    1  A    between atoms: C_1  and  O_2
REMARK    2  A    between atoms: O_2  and  C_3
REMARK    3  A    between atoms: C_6  and  C_7
REMARK    4  A    between atoms: C_7  and  N_8
REMARK    5  A    between atoms: N_8  and  C_9
REMARK    6  A    between atoms: N_8  and  S_16
REMARK    7  A    between atoms: C_12  and  C_13
REMARK    8  A    between atoms: S_16  and  C_19
REMARK    9  A    between atoms: C_25  and  C_26
REMARK                            x       y       z     vdW  Elec       q    Type
REMARK                         _______ _______ _______ _____ _____    ______ ____
ROOT
ATOM      1  N   UNL     1       0.208  10.871  20.542  0.00  0.00    +0.000 N 
ENDROOT
BRANCH   1   2
ATOM      2  C   UNL     1      -0.884  10.976  19.627  0.00  0.00    +0.000 A 
ATOM      3  C   UNL     1      -0.953  10.139  18.512  0.00  0.00    +0.000 A 
ATOM      4  C   UNL     1      -2.070  10.186  17.671  0.00  0.00    +0.000 A 
ATOM      5  C   UNL     1      -3.119  11.075  17.937  0.00  0.00    +0.000 A 
ATOM      6  C   UNL     1      -4.349  11.097  17.078  0.00  0.00    +0.000 C 
ATOM      7  C   UNL     1      -3.035  11.912  19.057  0.00  0.00    +0.000 A 
ATOM      8  C   UNL     1      -1.924  11.858  19.902  0.00  0.00    +0.000 A 
ENDBRANCH   1   2
BRANCH   1   9
ATOM      9  S   UNL     1       0.548   9.371  21.254  0.00  0.00    +0.000 S 
ATOM     10  O   UNL     1       1.452   9.617  22.369  0.00  0.00    +0.000 OA
ATOM     11  O   UNL     1      -0.696   8.669  21.494  0.00  0.00    +0.000 OA
BRANCH   9  12
ATOM     12  C   UNL     1       1.424   8.491  20.018  0.00  0.00    +0.000 A 
ATOM     13  C   UNL     1       1.883   9.155  18.799  0.00  0.00    +0.000 A 
ATOM     14  C   UNL     1       2.663   8.515  17.904  0.00  0.00    +0.000 A 
ATOM     15  C   UNL     1       3.037   7.166  18.142  0.00  0.00    +0.000 A 
ATOM     16  N   UNL     1       3.791   6.319  17.479  0.00  0.00    +0.000 NA
ATOM     17  N   UNL     1       3.838   5.145  18.196  0.00  0.00    +0.000 NA
ATOM     18  C   UNL     1       3.107   5.294  19.284  0.00  0.00    +0.000 A 
ATOM     19  C   UNL     1       2.944   4.306  20.373  0.00  0.00    +0.000 C 
ATOM     20  N   UNL     1       2.552   6.554  19.289  0.00  0.00    +0.000 N 
ATOM     21  C   UNL     1       1.734   7.196  20.215  0.00  0.00    +0.000 A 
ENDBRANCH   9  12
ENDBRANCH   1   9
BRANCH   1  22
ATOM     22  C   UNL     1       0.790  12.105  21.090  0.00  0.00    +0.000 C 
BRANCH  22  26
ATOM     23  C   UNL     1       3.413  14.390  18.512  0.00  0.00    +0.000 A 
ATOM     24  C   UNL     1       2.470  13.521  17.961  0.00  0.00    +0.000 A 
ATOM     25  C   UNL     1       1.648  12.743  18.789  0.00  0.00    +0.000 A 
ATOM     26  C   UNL     1       1.764  12.824  20.181  0.00  0.00    +0.000 A 
ATOM     27  C   UNL     1       2.758  13.648  20.723  0.00  0.00    +0.000 A 
ATOM     28  C   UNL     1       3.579  14.423  19.896  0.00  0.00    +0.000 A 
BRANCH  23  30
ATOM     29  C   UNL     1       3.440  16.215  17.011  0.00  0.00    +0.000 C 
ATOM     30  O   UNL     1       4.139  15.131  17.619  0.00  0.00    +0.000 OA
ENDBRANCH  23  30
ENDBRANCH  22  26
ENDBRANCH   1  22
TORSDOF 6
ENDMDL
MODEL 9
REMARK VINA RESULT:      -6.9      4.504      8.331
REMARK  Name = 
REMARK  9 active torsions:
REMARK  status: ('A' for Active; 'I' for Inactive)
REMARK    1  A    between atoms: C_1  and  O_2
REMARK    2  A    between atoms: O_2  and  C_3
REMARK    3  A    between atoms: C_6  and  C_7
REMARK    4  A    between atoms: C_7  and  N_8
REMARK    5  A    between atoms: N_8  and  C_9
REMARK    6  A    between atoms: N_8  and  S_16
REMARK    7  A    between atoms: C_12  and  C_13
REMARK    8  A    between atoms: S_16  and  C_19
REMARK    9  A    between atoms: C_25  and  C_26
REMARK                            x       y       z     vdW  Elec       q    Type
REMARK                         _______ _______ _______ _____ _____    ______ ____
ROOT
ATOM      1  N   UNL     1      -0.770  12.883  21.028  0.00  0.00    +0.000 N 
ENDROOT
BRANCH   1   2
ATOM      2  C   UNL     1      -1.980  12.984  21.779  0.00  0.00    +0.000 A 
ATOM      3  C   UNL     1      -3.024  13.793  21.330  0.00  0.00    +0.000 A 
ATOM      4  C   UNL     1      -4.240  13.815  22.023  0.00  0.00    +0.000 A 
ATOM      5  C   UNL     1      -4.413  13.033  23.172  0.00  0.00    +0.000 A 
ATOM      6  C   UNL     1      -5.729  13.002  23.893  0.00  0.00    +0.000 C 
ATOM      7  C   UNL     1      -3.356  12.228  23.614  0.00  0.00    +0.000 A 
ATOM      8  C   UNL     1      -2.146  12.199  22.917  0.00  0.00    +0.000 A 
ENDBRANCH   1   2
BRANCH   1   9
ATOM      9  S   UNL     1       0.565  13.823  21.484  0.00  0.00    +0.000 S 
ATOM     10  O   UNL     1       0.194  14.543  22.694  0.00  0.00    +0.000 OA
ATOM     11  O   UNL     1       1.749  12.989  21.492  0.00  0.00    +0.000 OA
BRANCH   9  12
ATOM     12  C   UNL     1       0.744  14.985  20.185  0.00  0.00    +0.000 A 
ATOM     13  C   UNL     1      -0.264  16.020  19.953  0.00  0.00    +0.000 A 
ATOM     14  C   UNL     1      -0.072  16.990  19.036  0.00  0.00    +0.000 A 
ATOM     15  C   UNL     1       1.125  17.002  18.271  0.00  0.00    +0.000 A 
ATOM     16  N   UNL     1       1.587  17.818  17.351  0.00  0.00    +0.000 NA
ATOM     17  N   UNL     1       2.829  17.364  16.970  0.00  0.00    +0.000 NA
ATOM     18  C   UNL     1       3.103  16.275  17.663  0.00  0.00    +0.000 A 
ATOM     19  C   UNL     1       4.366  15.507  17.625  0.00  0.00    +0.000 C 
ATOM     20  N   UNL     1       2.041  15.983  18.489  0.00  0.00    +0.000 N 
ATOM     21  C   UNL     1       1.851  14.966  19.421  0.00  0.00    +0.000 A 
ENDBRANCH   9  12
ENDBRANCH   1   9
BRANCH   1  22
ATOM     22  C   UNL     1      -0.810  12.236  19.709  0.00  0.00    +0.000 C 
BRANCH  22  26
ATOM     23  C   UNL     1       1.505   8.581  19.535  0.00  0.00    +0.000 A 
ATOM     24  C   UNL     1       1.347   9.366  18.392  0.00  0.00    +0.000 A 
ATOM     25  C   UNL     1       0.561  10.527  18.428  0.00  0.00    +0.000 A 
ATOM     26  C   UNL     1      -0.080  10.913  19.611  0.00  0.00    +0.000 A 
ATOM     27  C   UNL     1       0.031  10.082  20.733  0.00  0.00    +0.000 A 
ATOM     28  C   UNL     1       0.813   8.924  20.696  0.00  0.00    +0.000 A 
BRANCH  23  30
ATOM     29  C   UNL     1       2.951   7.346  18.131  0.00  0.00    +0.000 C 
ATOM     30  O   UNL     1       2.321   7.490  19.403  0.00  0.00    +0.000 OA
ENDBRANCH  23  30
ENDBRANCH  22  26
ENDBRANCH   1  22
TORSDOF 6
ENDMDL
