MODEL 1
REMARK VINA RESULT:      -8.1      0.000      0.000
REMARK  Name = 
REMARK  8 active torsions:
REMARK  status: ('A' for Active; 'I' for Inactive)
REMARK    1  A    between atoms: C_1  and  O_2
REMARK    2  A    between atoms: O_2  and  C_3
REMARK    3  A    between atoms: C_5  and  N_6
REMARK    4  A    between atoms: N_6  and  S_7
REMARK    5  A    between atoms: S_7  and  C_10
REMARK    6  A    between atoms: C_13  and  N_14
REMARK    7  A    between atoms: C_23  and  O_24
REMARK    8  A    between atoms: O_24  and  C_25
REMARK                            x       y       z     vdW  Elec       q    Type
REMARK                         _______ _______ _______ _____ _____    ______ ____
ROOT
ATOM      1  S   UNL     1       3.809   3.346  18.619  0.00  0.00    +0.000 S 
ATOM      2  O   UNL     1       3.640   3.242  17.186  0.00  0.00    +0.000 OA
ATOM      3  O   UNL     1       3.330   2.311  19.510  0.00  0.00    +0.000 OA
ENDROOT
BRANCH   1   4
ATOM      4  C   UNL     1       3.075   4.888  19.124  0.00  0.00    +0.000 A 
ATOM      5  C   UNL     1       2.424   4.966  20.354  0.00  0.00    +0.000 A 
ATOM      6  C   UNL     1       1.862   6.180  20.769  0.00  0.00    +0.000 A 
ATOM      7  C   UNL     1       1.929   7.331  19.969  0.00  0.00    +0.000 A 
ATOM      8  C   UNL     1       2.607   7.227  18.741  0.00  0.00    +0.000 A 
ATOM      9  C   UNL     1       3.192   6.021  18.325  0.00  0.00    +0.000 A 
BRANCH   7  10
ATOM     10  N   UNL     1       1.326   8.557  20.373  0.00  0.00    +0.000 N 
ATOM     11  C   UNL     1       1.303   8.996  21.751  0.00  0.00    +0.000 C 
ATOM     12  C   UNL     1       0.348  10.171  21.766  0.00  0.00    +0.000 C 
ATOM     13  C   UNL     1       0.478  10.758  20.376  0.00  0.00    +0.000 C 
ATOM     14  C   UNL     1       0.851   9.571  19.525  0.00  0.00    +0.000 C 
ATOM     15  O   UNL     1       0.762   9.583  18.306  0.00  0.00    +0.000 OA
ENDBRANCH   7  10
ENDBRANCH   1   4
BRANCH   1  16
ATOM     16  N   UNL     1       5.458   3.601  18.882  0.00  0.00    +0.000 N 
ATOM     17  H   UNL     1       5.957   2.747  19.124  0.00  0.00    +0.000 HD
BRANCH  16  20
ATOM     18  C   UNL     1       6.770   5.413  15.922  0.00  0.00    +0.000 A 
ATOM     19  C   UNL     1       6.121   4.464  16.714  0.00  0.00    +0.000 A 
ATOM     20  C   UNL     1       6.147   4.571  18.103  0.00  0.00    +0.000 A 
ATOM     21  C   UNL     1       6.844   5.611  18.710  0.00  0.00    +0.000 A 
ATOM     22  C   UNL     1       7.518   6.552  17.928  0.00  0.00    +0.000 A 
ATOM     23  C   UNL     1       7.476   6.452  16.533  0.00  0.00    +0.000 A 
BRANCH  18  25
ATOM     24  C   UNL     1       6.071   3.994  14.141  0.00  0.00    +0.000 C 
ATOM     25  O   UNL     1       6.631   5.228  14.572  0.00  0.00    +0.000 OA
ENDBRANCH  18  25
BRANCH  22  26
ATOM     26  O   UNL     1       8.174   7.521  18.638  0.00  0.00    +0.000 OA
ATOM     27  C   UNL     1       8.233   8.819  18.056  0.00  0.00    +0.000 C 
ENDBRANCH  22  26
ENDBRANCH  16  20
ENDBRANCH   1  16
TORSDOF 6
ENDMDL
MODEL 2
REMARK VINA RESULT:      -7.9      3.716      8.810
REMARK  Name = 
REMARK  8 active torsions:
REMARK  status: ('A' for Active; 'I' for Inactive)
REMARK    1  A    between atoms: C_1  and  O_2
REMARK    2  A    between atoms: O_2  and  C_3
REMARK    3  A    between atoms: C_5  and  N_6
REMARK    4  A    between atoms: N_6  and  S_7
REMARK    5  A    between atoms: S_7  and  C_10
REMARK    6  A    between atoms: C_13  and  N_14
REMARK    7  A    between atoms: C_23  and  O_24
REMARK    8  A    between atoms: O_24  and  C_25
REMARK                            x       y       z     vdW  Elec       q    Type
REMARK                         _______ _______ _______ _____ _____    ______ ____
ROOT
ATOM      1  S   UNL     1       0.425  10.434  20.515  0.00  0.00    +0.000 S 
ATOM      2  O   UNL     1       1.433  11.202  21.213  0.00  0.00    +0.000 OA
ATOM      3  O   UNL     1      -0.769   9.972  21.189  0.00  0.00    +0.000 OA
ENDROOT
BRANCH   1   4
ATOM      4  C   UNL     1       1.240   9.018  19.808  0.00  0.00    +0.000 A 
ATOM      5  C   UNL     1       1.649   9.058  18.476  0.00  0.00    +0.000 A 
ATOM      6  C   UNL     1       2.310   7.957  17.917  0.00  0.00    +0.000 A 
ATOM      7  C   UNL     1       2.569   6.799  18.666  0.00  0.00    +0.000 A 
ATOM      8  C   UNL     1       2.160   6.794  20.012  0.00  0.00    +0.000 A 
ATOM      9  C   UNL     1       1.516   7.899  20.588  0.00  0.00    +0.000 A 
BRANCH   7  10
ATOM     10  N   UNL     1       3.209   5.664  18.089  0.00  0.00    +0.000 N 
ATOM     11  C   UNL     1       4.645   5.493  18.097  0.00  0.00    +0.000 C 
ATOM     12  C   UNL     1       4.901   4.330  17.160  0.00  0.00    +0.000 C 
ATOM     13  C   UNL     1       3.644   3.494  17.274  0.00  0.00    +0.000 C 
ATOM     14  C   UNL     1       2.577   4.503  17.614  0.00  0.00    +0.000 C 
ATOM     15  O   UNL     1       1.384   4.260  17.503  0.00  0.00    +0.000 OA
ENDBRANCH   7  10
ENDBRANCH   1   4
BRANCH   1  16
ATOM     16  N   UNL     1      -0.007  11.346  19.160  0.00  0.00    +0.000 N 
ATOM     17  H   UNL     1       0.747  11.429  18.482  0.00  0.00    +0.000 HD
BRANCH  16  20
ATOM     18  C   UNL     1      -2.891  10.394  17.028  0.00  0.00    +0.000 A 
ATOM     19  C   UNL     1      -1.591  10.505  17.527  0.00  0.00    +0.000 A 
ATOM     20  C   UNL     1      -1.338  11.270  18.663  0.00  0.00    +0.000 A 
ATOM     21  C   UNL     1      -2.375  11.952  19.293  0.00  0.00    +0.000 A 
ATOM     22  C   UNL     1      -3.675  11.868  18.788  0.00  0.00    +0.000 A 
ATOM     23  C   UNL     1      -3.930  11.085  17.656  0.00  0.00    +0.000 A 
BRANCH  18  25
ATOM     24  C   UNL     1      -3.542  10.155  14.749  0.00  0.00    +0.000 C 
ATOM     25  O   UNL     1      -3.021   9.575  15.939  0.00  0.00    +0.000 OA
ENDBRANCH  18  25
BRANCH  22  26
ATOM     26  O   UNL     1      -4.607  12.587  19.485  0.00  0.00    +0.000 OA
ATOM     27  C   UNL     1      -4.387  12.746  20.883  0.00  0.00    +0.000 C 
ENDBRANCH  22  26
ENDBRANCH  16  20
ENDBRANCH   1  16
TORSDOF 6
ENDMDL
MODEL 3
REMARK VINA RESULT:      -7.9      1.010      1.597
REMARK  Name = 
REMARK  8 active torsions:
REMARK  status: ('A' for Active; 'I' for Inactive)
REMARK    1  A    between atoms: C_1  and  O_2
REMARK    2  A    between atoms: O_2  and  C_3
REMARK    3  A    between atoms: C_5  and  N_6
REMARK    4  A    between atoms: N_6  and  S_7
REMARK    5  A    between atoms: S_7  and  C_10
REMARK    6  A    between atoms: C_13  and  N_14
REMARK    7  A    between atoms: C_23  and  O_24
REMARK    8  A    between atoms: O_24  and  C_25
REMARK                            x       y       z     vdW  Elec       q    Type
REMARK                         _______ _______ _______ _____ _____    ______ ____
ROOT
ATOM      1  S   UNL     1       3.508   3.214  19.131  0.00  0.00    +0.000 S 
ATOM      2  O   UNL     1       3.144   2.654  17.846  0.00  0.00    +0.000 OA
ATOM      3  O   UNL     1       3.089   2.591  20.367  0.00  0.00    +0.000 OA
ENDROOT
BRANCH   1   4
ATOM      4  C   UNL     1       2.943   4.902  19.146  0.00  0.00    +0.000 A 
ATOM      5  C   UNL     1       2.711   5.557  17.937  0.00  0.00    +0.000 A 
ATOM      6  C   UNL     1       2.247   6.879  17.939  0.00  0.00    +0.000 A 
ATOM      7  C   UNL     1       2.012   7.572  19.136  0.00  0.00    +0.000 A 
ATOM      8  C   UNL     1       2.238   6.880  20.340  0.00  0.00    +0.000 A 
ATOM      9  C   UNL     1       2.683   5.549  20.350  0.00  0.00    +0.000 A 
BRANCH   7  10
ATOM     10  N   UNL     1       1.574   8.928  19.140  0.00  0.00    +0.000 N 
ATOM     11  C   UNL     1       1.903   9.855  18.080  0.00  0.00    +0.000 C 
ATOM     12  C   UNL     1       1.488  11.212  18.610  0.00  0.00    +0.000 C 
ATOM     13  C   UNL     1       0.339  10.897  19.545  0.00  0.00    +0.000 C 
ATOM     14  C   UNL     1       0.649   9.502  20.027  0.00  0.00    +0.000 C 
ATOM     15  O   UNL     1       0.112   9.013  21.011  0.00  0.00    +0.000 OA
ENDBRANCH   7  10
ENDBRANCH   1   4
BRANCH   1  16
ATOM     16  N   UNL     1       5.189   3.370  19.117  0.00  0.00    +0.000 N 
ATOM     17  H   UNL     1       5.671   2.484  19.258  0.00  0.00    +0.000 HD
BRANCH  16  20
ATOM     18  C   UNL     1       6.116   5.164  16.004  0.00  0.00    +0.000 A 
ATOM     19  C   UNL     1       5.553   4.233  16.879  0.00  0.00    +0.000 A 
ATOM     20  C   UNL     1       5.795   4.320  18.249  0.00  0.00    +0.000 A 
ATOM     21  C   UNL     1       6.624   5.319  18.750  0.00  0.00    +0.000 A 
ATOM     22  C   UNL     1       7.213   6.241  17.881  0.00  0.00    +0.000 A 
ATOM     23  C   UNL     1       6.954   6.163  16.508  0.00  0.00    +0.000 A 
BRANCH  18  25
ATOM     24  C   UNL     1       6.369   3.930  13.983  0.00  0.00    +0.000 C 
ATOM     25  O   UNL     1       5.764   5.005  14.690  0.00  0.00    +0.000 OA
ENDBRANCH  18  25
BRANCH  22  26
ATOM     26  O   UNL     1       8.013   7.170  18.489  0.00  0.00    +0.000 OA
ATOM     27  C   UNL     1       8.091   8.454  17.878  0.00  0.00    +0.000 C 
ENDBRANCH  22  26
ENDBRANCH  16  20
ENDBRANCH   1  16
TORSDOF 6
ENDMDL
MODEL 4
REMARK VINA RESULT:      -7.9      0.728      1.211
REMARK  Name = 
REMARK  8 active torsions:
REMARK  status: ('A' for Active; 'I' for Inactive)
REMARK    1  A    between atoms: C_1  and  O_2
REMARK    2  A    between atoms: O_2  and  C_3
REMARK    3  A    between atoms: C_5  and  N_6
REMARK    4  A    between atoms: N_6  and  S_7
REMARK    5  A    between atoms: S_7  and  C_10
REMARK    6  A    between atoms: C_13  and  N_14
REMARK    7  A    between atoms: C_23  and  O_24
REMARK    8  A    between atoms: O_24  and  C_25
REMARK                            x       y       z     vdW  Elec       q    Type
REMARK                         _______ _______ _______ _____ _____    ______ ____
ROOT
ATOM      1  S   UNL     1       3.773   3.335  18.791  0.00  0.00    +0.000 S 
ATOM      2  O   UNL     1       3.603   2.950  17.406  0.00  0.00    +0.000 OA
ATOM      3  O   UNL     1       3.250   2.520  19.866  0.00  0.00    +0.000 OA
ENDROOT
BRANCH   1   4
ATOM      4  C   UNL     1       3.102   4.974  18.967  0.00  0.00    +0.000 A 
ATOM      5  C   UNL     1       2.861   5.740  17.827  0.00  0.00    +0.000 A 
ATOM      6  C   UNL     1       2.313   7.023  17.954  0.00  0.00    +0.000 A 
ATOM      7  C   UNL     1       2.004   7.568  19.210  0.00  0.00    +0.000 A 
ATOM      8  C   UNL     1       2.241   6.765  20.340  0.00  0.00    +0.000 A 
ATOM      9  C   UNL     1       2.769   5.470  20.223  0.00  0.00    +0.000 A 
BRANCH   7  10
ATOM     10  N   UNL     1       1.480   8.887  19.343  0.00  0.00    +0.000 N 
ATOM     11  C   UNL     1       0.783   9.331  20.529  0.00  0.00    +0.000 C 
ATOM     12  C   UNL     1       0.172  10.662  20.143  0.00  0.00    +0.000 C 
ATOM     13  C   UNL     1       1.125  11.206  19.100  0.00  0.00    +0.000 C 
ATOM     14  C   UNL     1       1.707   9.965  18.472  0.00  0.00    +0.000 C 
ATOM     15  O   UNL     1       2.296   9.985  17.401  0.00  0.00    +0.000 OA
ENDBRANCH   7  10
ENDBRANCH   1   4
BRANCH   1  16
ATOM     16  N   UNL     1       5.430   3.570  19.014  0.00  0.00    +0.000 N 
ATOM     17  H   UNL     1       5.926   2.710  19.242  0.00  0.00    +0.000 HD
BRANCH  16  20
ATOM     18  C   UNL     1       6.687   5.378  16.027  0.00  0.00    +0.000 A 
ATOM     19  C   UNL     1       6.046   4.434  16.832  0.00  0.00    +0.000 A 
ATOM     20  C   UNL     1       6.111   4.534  18.220  0.00  0.00    +0.000 A 
ATOM     21  C   UNL     1       6.838   5.563  18.813  0.00  0.00    +0.000 A 
ATOM     22  C   UNL     1       7.503   6.499  18.017  0.00  0.00    +0.000 A 
ATOM     23  C   UNL     1       7.422   6.405  16.623  0.00  0.00    +0.000 A 
BRANCH  18  25
ATOM     24  C   UNL     1       5.505   4.278  14.275  0.00  0.00    +0.000 C 
ATOM     25  O   UNL     1       6.508   5.201  14.681  0.00  0.00    +0.000 OA
ENDBRANCH  18  25
BRANCH  22  26
ATOM     26  O   UNL     1       8.191   7.456  18.712  0.00  0.00    +0.000 OA
ATOM     27  C   UNL     1       8.244   8.758  18.138  0.00  0.00    +0.000 C 
ENDBRANCH  22  26
ENDBRANCH  16  20
ENDBRANCH   1  16
TORSDOF 6
ENDMDL
MODEL 5
REMARK VINA RESULT:      -7.9      0.864      2.701
REMARK  Name = 
REMARK  8 active torsions:
REMARK  status: ('A' for Active; 'I' for Inactive)
REMARK    1  A    between atoms: C_1  and  O_2
REMARK    2  A    between atoms: O_2  and  C_3
REMARK    3  A    between atoms: C_5  and  N_6
REMARK    4  A    between atoms: N_6  and  S_7
REMARK    5  A    between atoms: S_7  and  C_10
REMARK    6  A    between atoms: C_13  and  N_14
REMARK    7  A    between atoms: C_23  and  O_24
REMARK    8  A    between atoms: O_24  and  C_25
REMARK                            x       y       z     vdW  Elec       q    Type
REMARK                         _______ _______ _______ _____ _____    ______ ____
ROOT
ATOM      1  S   UNL     1       3.505   3.140  19.311  0.00  0.00    +0.000 S 
ATOM      2  O   UNL     1       3.104   2.586  18.036  0.00  0.00    +0.000 OA
ATOM      3  O   UNL     1       3.153   2.492  20.556  0.00  0.00    +0.000 OA
ENDROOT
BRANCH   1   4
ATOM      4  C   UNL     1       2.897   4.812  19.371  0.00  0.00    +0.000 A 
ATOM      5  C   UNL     1       2.812   5.552  18.193  0.00  0.00    +0.000 A 
ATOM      6  C   UNL     1       2.315   6.861  18.227  0.00  0.00    +0.000 A 
ATOM      7  C   UNL     1       1.902   7.458  19.428  0.00  0.00    +0.000 A 
ATOM      8  C   UNL     1       1.982   6.682  20.598  0.00  0.00    +0.000 A 
ATOM      9  C   UNL     1       2.459   5.362  20.572  0.00  0.00    +0.000 A 
BRANCH   7  10
ATOM     10  N   UNL     1       1.430   8.803  19.470  0.00  0.00    +0.000 N 
ATOM     11  C   UNL     1       0.857   9.389  20.660  0.00  0.00    +0.000 C 
ATOM     12  C   UNL     1       0.250  10.696  20.194  0.00  0.00    +0.000 C 
ATOM     13  C   UNL     1       1.119  11.097  19.021  0.00  0.00    +0.000 C 
ATOM     14  C   UNL     1       1.607   9.778  18.475  0.00  0.00    +0.000 C 
ATOM     15  O   UNL     1       2.096   9.669  17.361  0.00  0.00    +0.000 OA
ENDBRANCH   7  10
ENDBRANCH   1   4
BRANCH   1  16
ATOM     16  N   UNL     1       5.180   3.341  19.232  0.00  0.00    +0.000 N 
ATOM     17  H   UNL     1       5.691   2.480  19.413  0.00  0.00    +0.000 HD
BRANCH  16  20
ATOM     18  C   UNL     1       7.109   6.183  17.829  0.00  0.00    +0.000 A 
ATOM     19  C   UNL     1       6.539   5.289  18.737  0.00  0.00    +0.000 A 
ATOM     20  C   UNL     1       5.729   4.249  18.285  0.00  0.00    +0.000 A 
ATOM     21  C   UNL     1       5.460   4.113  16.926  0.00  0.00    +0.000 A 
ATOM     22  C   UNL     1       6.006   5.018  16.011  0.00  0.00    +0.000 A 
ATOM     23  C   UNL     1       6.833   6.050  16.466  0.00  0.00    +0.000 A 
BRANCH  18  25
ATOM     24  C   UNL     1       7.963   8.406  17.765  0.00  0.00    +0.000 C 
ATOM     25  O   UNL     1       7.926   7.129  18.390  0.00  0.00    +0.000 OA
ENDBRANCH  18  25
BRANCH  22  26
ATOM     26  O   UNL     1       5.664   4.787  14.706  0.00  0.00    +0.000 OA
ATOM     27  C   UNL     1       6.697   4.330  13.840  0.00  0.00    +0.000 C 
ENDBRANCH  22  26
ENDBRANCH  16  20
ENDBRANCH   1  16
TORSDOF 6
ENDMDL
MODEL 6
REMARK VINA RESULT:      -7.8      1.112      2.785
REMARK  Name = 
REMARK  8 active torsions:
REMARK  status: ('A' for Active; 'I' for Inactive)
REMARK    1  A    between atoms: C_1  and  O_2
REMARK    2  A    between atoms: O_2  and  C_3
REMARK    3  A    between atoms: C_5  and  N_6
REMARK    4  A    between atoms: N_6  and  S_7
REMARK    5  A    between atoms: S_7  and  C_10
REMARK    6  A    between atoms: C_13  and  N_14
REMARK    7  A    between atoms: C_23  and  O_24
REMARK    8  A    between atoms: O_24  and  C_25
REMARK                            x       y       z     vdW  Elec       q    Type
REMARK                         _______ _______ _______ _____ _____    ______ ____
ROOT
ATOM      1  S   UNL     1       3.269   3.139  19.171  0.00  0.00    +0.000 S 
ATOM      2  O   UNL     1       2.825   2.547  17.927  0.00  0.00    +0.000 OA
ATOM      3  O   UNL     1       2.892   2.573  20.448  0.00  0.00    +0.000 OA
ENDROOT
BRANCH   1   4
ATOM      4  C   UNL     1       2.759   4.844  19.152  0.00  0.00    +0.000 A 
ATOM      5  C   UNL     1       2.631   5.533  20.358  0.00  0.00    +0.000 A 
ATOM      6  C   UNL     1       2.250   6.881  20.352  0.00  0.00    +0.000 A 
ATOM      7  C   UNL     1       1.985   7.564  19.155  0.00  0.00    +0.000 A 
ATOM      8  C   UNL     1       2.140   6.848  17.954  0.00  0.00    +0.000 A 
ATOM      9  C   UNL     1       2.540   5.503  17.947  0.00  0.00    +0.000 A 
BRANCH   7  10
ATOM     10  N   UNL     1       1.562   8.925  19.149  0.00  0.00    +0.000 N 
ATOM     11  C   UNL     1       1.865   9.828  18.062  0.00  0.00    +0.000 C 
ATOM     12  C   UNL     1       1.485  11.199  18.581  0.00  0.00    +0.000 C 
ATOM     13  C   UNL     1       0.365  10.915  19.560  0.00  0.00    +0.000 C 
ATOM     14  C   UNL     1       0.674   9.525  20.057  0.00  0.00    +0.000 C 
ATOM     15  O   UNL     1       0.167   9.060  21.066  0.00  0.00    +0.000 OA
ENDBRANCH   7  10
ENDBRANCH   1   4
BRANCH   1  16
ATOM     16  N   UNL     1       4.952   3.239  19.071  0.00  0.00    +0.000 N 
ATOM     17  H   UNL     1       5.412   2.342  19.214  0.00  0.00    +0.000 HD
BRANCH  16  20
ATOM     18  C   UNL     1       7.002   6.030  17.740  0.00  0.00    +0.000 A 
ATOM     19  C   UNL     1       6.391   5.141  18.625  0.00  0.00    +0.000 A 
ATOM     20  C   UNL     1       5.543   4.144  18.147  0.00  0.00    +0.000 A 
ATOM     21  C   UNL     1       5.279   4.046  16.783  0.00  0.00    +0.000 A 
ATOM     22  C   UNL     1       5.866   4.947  15.891  0.00  0.00    +0.000 A 
ATOM     23  C   UNL     1       6.731   5.936  16.373  0.00  0.00    +0.000 A 
BRANCH  18  25
ATOM     24  C   UNL     1       7.918   8.229  17.748  0.00  0.00    +0.000 C 
ATOM     25  O   UNL     1       7.852   6.931  18.325  0.00  0.00    +0.000 OA
ENDBRANCH  18  25
BRANCH  22  26
ATOM     26  O   UNL     1       5.525   4.757  14.579  0.00  0.00    +0.000 OA
ATOM     27  C   UNL     1       6.444   4.029  13.772  0.00  0.00    +0.000 C 
ENDBRANCH  22  26
ENDBRANCH  16  20
ENDBRANCH   1  16
TORSDOF 6
ENDMDL
MODEL 7
REMARK VINA RESULT:      -7.8      3.875      9.115
REMARK  Name = 
REMARK  8 active torsions:
REMARK  status: ('A' for Active; 'I' for Inactive)
REMARK    1  A    between atoms: C_1  and  O_2
REMARK    2  A    between atoms: O_2  and  C_3
REMARK    3  A    between atoms: C_5  and  N_6
REMARK    4  A    between atoms: N_6  and  S_7
REMARK    5  A    between atoms: S_7  and  C_10
REMARK    6  A    between atoms: C_13  and  N_14
REMARK    7  A    between atoms: C_23  and  O_24
REMARK    8  A    between atoms: O_24  and  C_25
REMARK                            x       y       z     vdW  Elec       q    Type
REMARK                         _______ _______ _______ _____ _____    ______ ____
ROOT
ATOM      1  S   UNL     1       0.412  10.919  19.857  0.00  0.00    +0.000 S 
ATOM      2  O   UNL     1       1.449  11.837  20.279  0.00  0.00    +0.000 OA
ATOM      3  O   UNL     1      -0.684  10.570  20.734  0.00  0.00    +0.000 OA
ENDROOT
BRANCH   1   4
ATOM      4  C   UNL     1       1.217   9.413  19.355  0.00  0.00    +0.000 A 
ATOM      5  C   UNL     1       1.463   8.420  20.303  0.00  0.00    +0.000 A 
ATOM      6  C   UNL     1       2.077   7.223  19.913  0.00  0.00    +0.000 A 
ATOM      7  C   UNL     1       2.461   6.994  18.583  0.00  0.00    +0.000 A 
ATOM      8  C   UNL     1       2.183   8.005  17.646  0.00  0.00    +0.000 A 
ATOM      9  C   UNL     1       1.550   9.200  18.021  0.00  0.00    +0.000 A 
BRANCH   7  10
ATOM     10  N   UNL     1       3.118   5.791  18.192  0.00  0.00    +0.000 N 
ATOM     11  C   UNL     1       4.525   5.560  18.431  0.00  0.00    +0.000 C 
ATOM     12  C   UNL     1       4.854   4.318  17.628  0.00  0.00    +0.000 C 
ATOM     13  C   UNL     1       3.551   3.548  17.608  0.00  0.00    +0.000 C 
ATOM     14  C   UNL     1       2.501   4.625  17.709  0.00  0.00    +0.000 C 
ATOM     15  O   UNL     1       1.327   4.425  17.435  0.00  0.00    +0.000 OA
ENDBRANCH   7  10
ENDBRANCH   1   4
BRANCH   1  16
ATOM     16  N   UNL     1      -0.197  11.533  18.406  0.00  0.00    +0.000 N 
ATOM     17  H   UNL     1       0.483  11.510  17.650  0.00  0.00    +0.000 HD
BRANCH  16  20
ATOM     18  C   UNL     1      -3.901  11.693  18.561  0.00  0.00    +0.000 A 
ATOM     19  C   UNL     1      -2.553  11.876  18.875  0.00  0.00    +0.000 A 
ATOM     20  C   UNL     1      -1.562  11.311  18.074  0.00  0.00    +0.000 A 
ATOM     21  C   UNL     1      -1.913  10.538  16.971  0.00  0.00    +0.000 A 
ATOM     22  C   UNL     1      -3.259  10.328  16.663  0.00  0.00    +0.000 A 
ATOM     23  C   UNL     1      -4.252  10.911  17.459  0.00  0.00    +0.000 A 
BRANCH  18  25
ATOM     24  C   UNL     1      -4.229  12.996  20.529  0.00  0.00    +0.000 C 
ATOM     25  O   UNL     1      -4.777  12.339  19.393  0.00  0.00    +0.000 OA
ENDBRANCH  18  25
BRANCH  22  26
ATOM     26  O   UNL     1      -3.478   9.544  15.562  0.00  0.00    +0.000 OA
ATOM     27  C   UNL     1      -2.983  10.027  14.318  0.00  0.00    +0.000 C 
ENDBRANCH  22  26
ENDBRANCH  16  20
ENDBRANCH   1  16
TORSDOF 6
ENDMDL
MODEL 8
REMARK VINA RESULT:      -7.7      1.949      2.663
REMARK  Name = 
REMARK  8 active torsions:
REMARK  status: ('A' for Active; 'I' for Inactive)
REMARK    1  A    between atoms: C_1  and  O_2
REMARK    2  A    between atoms: O_2  and  C_3
REMARK    3  A    between atoms: C_5  and  N_6
REMARK    4  A    between atoms: N_6  and  S_7
REMARK    5  A    between atoms: S_7  and  C_10
REMARK    6  A    between atoms: C_13  and  N_14
REMARK    7  A    between atoms: C_23  and  O_24
REMARK    8  A    between atoms: O_24  and  C_25
REMARK                            x       y       z     vdW  Elec       q    Type
REMARK                         _______ _______ _______ _____ _____    ______ ____
ROOT
ATOM      1  S   UNL     1       3.144   5.454  19.177  0.00  0.00    +0.000 S 
ATOM      2  O   UNL     1       2.169   4.543  19.737  0.00  0.00    +0.000 OA
ATOM      3  O   UNL     1       4.466   5.586  19.749  0.00  0.00    +0.000 OA
ENDROOT
BRANCH   1   4
ATOM      4  C   UNL     1       2.395   7.069  19.145  0.00  0.00    +0.000 A 
ATOM      5  C   UNL     1       2.325   7.767  17.941  0.00  0.00    +0.000 A 
ATOM      6  C   UNL     1       1.718   9.030  17.902  0.00  0.00    +0.000 A 
ATOM      7  C   UNL     1       1.179   9.620  19.055  0.00  0.00    +0.000 A 
ATOM      8  C   UNL     1       1.247   8.884  20.252  0.00  0.00    +0.000 A 
ATOM      9  C   UNL     1       1.834   7.610  20.298  0.00  0.00    +0.000 A 
BRANCH   7  10
ATOM     10  N   UNL     1       0.593  10.919  19.025  0.00  0.00    +0.000 N 
ATOM     11  C   UNL     1       1.377  12.128  19.142  0.00  0.00    +0.000 C 
ATOM     12  C   UNL     1       0.358  13.232  19.339  0.00  0.00    +0.000 C 
ATOM     13  C   UNL     1      -0.867  12.724  18.609  0.00  0.00    +0.000 C 
ATOM     14  C   UNL     1      -0.740  11.224  18.706  0.00  0.00    +0.000 C 
ATOM     15  O   UNL     1      -1.677  10.470  18.490  0.00  0.00    +0.000 OA
ENDBRANCH   7  10
ENDBRANCH   1   4
BRANCH   1  16
ATOM     16  N   UNL     1       3.273   5.058  17.540  0.00  0.00    +0.000 N 
ATOM     17  H   UNL     1       2.452   5.326  17.001  0.00  0.00    +0.000 HD
BRANCH  16  20
ATOM     18  C   UNL     1       6.102   4.263  15.274  0.00  0.00    +0.000 A 
ATOM     19  C   UNL     1       4.874   4.194  15.935  0.00  0.00    +0.000 A 
ATOM     20  C   UNL     1       4.541   5.142  16.900  0.00  0.00    +0.000 A 
ATOM     21  C   UNL     1       5.443   6.148  17.232  0.00  0.00    +0.000 A 
ATOM     22  C   UNL     1       6.685   6.212  16.595  0.00  0.00    +0.000 A 
ATOM     23  C   UNL     1       7.010   5.270  15.614  0.00  0.00    +0.000 A 
BRANCH  18  25
ATOM     24  C   UNL     1       6.267   3.737  12.957  0.00  0.00    +0.000 C 
ATOM     25  O   UNL     1       6.293   3.307  14.313  0.00  0.00    +0.000 OA
ENDBRANCH  18  25
BRANCH  22  26
ATOM     26  O   UNL     1       7.489   7.239  17.011  0.00  0.00    +0.000 OA
ATOM     27  C   UNL     1       7.987   7.170  18.343  0.00  0.00    +0.000 C 
ENDBRANCH  22  26
ENDBRANCH  16  20
ENDBRANCH   1  16
TORSDOF 6
ENDMDL
MODEL 9
REMARK VINA RESULT:      -7.6      1.916      3.455
REMARK  Name = 
REMARK  8 active torsions:
REMARK  status: ('A' for Active; 'I' for Inactive)
REMARK    1  A    between atoms: C_1  and  O_2
REMARK    2  A    between atoms: O_2  and  C_3
REMARK    3  A    between atoms: C_5  and  N_6
REMARK    4  A    between atoms: N_6  and  S_7
REMARK    5  A    between atoms: S_7  and  C_10
REMARK    6  A    between atoms: C_13  and  N_14
REMARK    7  A    between atoms: C_23  and  O_24
REMARK    8  A    between atoms: O_24  and  C_25
REMARK                            x       y       z     vdW  Elec       q    Type
REMARK                         _______ _______ _______ _____ _____    ______ ____
ROOT
ATOM      1  S   UNL     1       3.279   5.429  19.164  0.00  0.00    +0.000 S 
ATOM      2  O   UNL     1       2.416   4.413  19.730  0.00  0.00    +0.000 OA
ATOM      3  O   UNL     1       4.619   5.640  19.666  0.00  0.00    +0.000 OA
ENDROOT
BRANCH   1   4
ATOM      4  C   UNL     1       2.404   6.976  19.264  0.00  0.00    +0.000 A 
ATOM      5  C   UNL     1       1.814   7.351  20.470  0.00  0.00    +0.000 A 
ATOM      6  C   UNL     1       1.141   8.577  20.564  0.00  0.00    +0.000 A 
ATOM      7  C   UNL     1       1.037   9.443  19.465  0.00  0.00    +0.000 A 
ATOM      8  C   UNL     1       1.658   9.046  18.267  0.00  0.00    +0.000 A 
ATOM      9  C   UNL     1       2.352   7.830  18.167  0.00  0.00    +0.000 A 
BRANCH   7  10
ATOM     10  N   UNL     1       0.322  10.673  19.549  0.00  0.00    +0.000 N 
ATOM     11  C   UNL     1      -0.921  10.900  18.848  0.00  0.00    +0.000 C 
ATOM     12  C   UNL     1      -1.179  12.386  18.987  0.00  0.00    +0.000 C 
ATOM     13  C   UNL     1      -0.522  12.742  20.304  0.00  0.00    +0.000 C 
ATOM     14  C   UNL     1       0.596  11.737  20.425  0.00  0.00    +0.000 C 
ATOM     15  O   UNL     1       1.525  11.879  21.206  0.00  0.00    +0.000 OA
ENDBRANCH   7  10
ENDBRANCH   1   4
BRANCH   1  16
ATOM     16  N   UNL     1       3.337   5.125  17.504  0.00  0.00    +0.000 N 
ATOM     17  H   UNL     1       2.520   5.476  17.008  0.00  0.00    +0.000 HD
BRANCH  16  20
ATOM     18  C   UNL     1       6.740   6.235  16.526  0.00  0.00    +0.000 A 
ATOM     19  C   UNL     1       5.495   6.178  17.155  0.00  0.00    +0.000 A 
ATOM     20  C   UNL     1       4.589   5.171  16.830  0.00  0.00    +0.000 A 
ATOM     21  C   UNL     1       4.909   4.231  15.854  0.00  0.00    +0.000 A 
ATOM     22  C   UNL     1       6.142   4.294  15.200  0.00  0.00    +0.000 A 
ATOM     23  C   UNL     1       7.057   5.296  15.541  0.00  0.00    +0.000 A 
BRANCH  18  25
ATOM     24  C   UNL     1       7.987   7.180  18.322  0.00  0.00    +0.000 C 
ATOM     25  O   UNL     1       7.562   7.238  16.966  0.00  0.00    +0.000 OA
ENDBRANCH  18  25
BRANCH  22  26
ATOM     26  O   UNL     1       6.339   3.323  14.256  0.00  0.00    +0.000 OA
ATOM     27  C   UNL     1       5.908   3.615  12.931  0.00  0.00    +0.000 C 
ENDBRANCH  22  26
ENDBRANCH  16  20
ENDBRANCH   1  16
TORSDOF 6
ENDMDL
