MODEL 1
REMARK VINA RESULT:      -8.5      0.000      0.000
REMARK  Name = 
REMARK  4 active torsions:
REMARK  status: ('A' for Active; 'I' for Inactive)
REMARK    1  A    between atoms: C_1  and  C_2
REMARK    2  A    between atoms: C_7  and  C_8
REMARK    3  A    between atoms: C_10  and  C_11
REMARK    4  A    between atoms: C_19  and  C_20
REMARK                            x       y       z     vdW  Elec       q    Type
REMARK                         _______ _______ _______ _____ _____    ______ ____
ROOT
ATOM      1  C   UNL     1       4.044   5.239  18.343  0.00  0.00    +0.000 A 
ATOM      2  N   UNL     1       3.498   6.500  18.500  0.00  0.00    +0.000 N 
ATOM      3  C   UNL     1       2.543   6.529  19.488  0.00  0.00    +0.000 A 
ATOM      4  C   UNL     1       2.461   5.239  19.970  0.00  0.00    +0.000 A 
ATOM      5  C   UNL     1       3.388   4.412  19.261  0.00  0.00    +0.000 A 
ATOM      6  H   UNL     1       3.753   7.315  17.955  0.00  0.00    +0.000 HD
ENDROOT
BRANCH   3   7
ATOM      7  C   UNL     1       1.827   7.751  19.852  0.00  0.00    +0.000 A 
ATOM      8  C   UNL     1       1.314   7.938  21.117  0.00  0.00    +0.000 A 
ATOM      9  C   UNL     1       0.670   9.131  21.322  0.00  0.00    +0.000 A 
ATOM     10  N   UNL     1       0.538  10.071  20.373  0.00  0.00    +0.000 NA
ATOM     11  C   UNL     1       1.083   9.800  19.184  0.00  0.00    +0.000 A 
ATOM     12  N   UNL     1       0.937  10.757  18.201  0.00  0.00    +0.000 N 
ATOM     13  N   UNL     1       1.716   8.666  18.869  0.00  0.00    +0.000 NA
ATOM     14  H   UNL     1       0.141  11.341  18.419  0.00  0.00    +0.000 HD
ATOM     15  H   UNL     1       0.955  10.325  17.289  0.00  0.00    +0.000 HD
ENDBRANCH   3   7
BRANCH   1  22
ATOM     16  C   UNL     1       5.459   3.942  13.741  0.00  0.00    +0.000 C 
ATOM     17  C   UNL     1       5.857   4.320  15.137  0.00  0.00    +0.000 A 
ATOM     18  C   UNL     1       7.196   4.404  15.514  0.00  0.00    +0.000 A 
ATOM     19  C   UNL     1       7.528   4.775  16.817  0.00  0.00    +0.000 A 
ATOM     20  C   UNL     1       6.527   5.071  17.754  0.00  0.00    +0.000 A 
ATOM     21 CL   UNL     1       7.076   5.541  19.331  0.00  0.00    +0.000 Cl
ATOM     22  C   UNL     1       5.164   4.990  17.405  0.00  0.00    +0.000 A 
ATOM     23  C   UNL     1       4.862   4.600  16.086  0.00  0.00    +0.000 A 
ENDBRANCH   1  22
BRANCH   5  24
ATOM     24  C   UNL     1       3.588   2.979  19.466  0.00  0.00    +0.000 C 
ATOM     25  N   UNL     1       4.852   2.622  19.844  0.00  0.00    +0.000 N 
ATOM     26  O   UNL     1       2.729   2.118  19.298  0.00  0.00    +0.000 OA
ATOM     27  H   UNL     1       5.623   3.271  19.822  0.00  0.00    +0.000 HD
ATOM     28  H   UNL     1       5.051   1.632  19.876  0.00  0.00    +0.000 HD
ENDBRANCH   5  24
TORSDOF 3
ENDMDL
MODEL 2
REMARK VINA RESULT:      -8.4      1.116      1.671
REMARK  Name = 
REMARK  4 active torsions:
REMARK  status: ('A' for Active; 'I' for Inactive)
REMARK    1  A    between atoms: C_1  and  C_2
REMARK    2  A    between atoms: C_7  and  C_8
REMARK    3  A    between atoms: C_10  and  C_11
REMARK    4  A    between atoms: C_19  and  C_20
REMARK                            x       y       z     vdW  Elec       q    Type
REMARK                         _______ _______ _______ _____ _____    ______ ____
ROOT
ATOM      1  C   UNL     1       4.290   5.343  17.341  0.00  0.00    +0.000 A 
ATOM      2  N   UNL     1       3.712   6.585  17.533  0.00  0.00    +0.000 N 
ATOM      3  C   UNL     1       2.861   6.597  18.612  0.00  0.00    +0.000 A 
ATOM      4  C   UNL     1       2.880   5.313  19.120  0.00  0.00    +0.000 A 
ATOM      5  C   UNL     1       3.763   4.509  18.332  0.00  0.00    +0.000 A 
ATOM      6  H   UNL     1       3.878   7.398  16.952  0.00  0.00    +0.000 HD
ENDROOT
BRANCH   3   7
ATOM      7  C   UNL     1       2.137   7.797  19.028  0.00  0.00    +0.000 A 
ATOM      8  C   UNL     1       1.830   8.800  18.136  0.00  0.00    +0.000 A 
ATOM      9  C   UNL     1       1.144   9.866  18.659  0.00  0.00    +0.000 A 
ATOM     10  N   UNL     1       0.781   9.948  19.949  0.00  0.00    +0.000 NA
ATOM     11  C   UNL     1       1.113   8.916  20.730  0.00  0.00    +0.000 A 
ATOM     12  N   UNL     1       0.755   9.003  22.059  0.00  0.00    +0.000 N 
ATOM     13  N   UNL     1       1.795   7.838  20.331  0.00  0.00    +0.000 NA
ATOM     14  H   UNL     1       0.626   9.974  22.308  0.00  0.00    +0.000 HD
ATOM     15  H   UNL     1       1.391   8.463  22.627  0.00  0.00    +0.000 HD
ENDBRANCH   3   7
BRANCH   1  22
ATOM     16  C   UNL     1       5.361   3.542  12.816  0.00  0.00    +0.000 C 
ATOM     17  C   UNL     1       5.847   4.200  14.073  0.00  0.00    +0.000 A 
ATOM     18  C   UNL     1       7.186   4.551  14.239  0.00  0.00    +0.000 A 
ATOM     19  C   UNL     1       7.598   5.177  15.415  0.00  0.00    +0.000 A 
ATOM     20  C   UNL     1       6.677   5.465  16.433  0.00  0.00    +0.000 A 
ATOM     21 CL   UNL     1       7.317   6.266  17.832  0.00  0.00    +0.000 Cl
ATOM     22  C   UNL     1       5.318   5.119  16.298  0.00  0.00    +0.000 A 
ATOM     23  C   UNL     1       4.937   4.476  15.105  0.00  0.00    +0.000 A 
ENDBRANCH   1  22
BRANCH   5  24
ATOM     24  C   UNL     1       4.040   3.089  18.539  0.00  0.00    +0.000 C 
ATOM     25  N   UNL     1       5.068   2.821  19.398  0.00  0.00    +0.000 N 
ATOM     26  O   UNL     1       3.444   2.169  17.985  0.00  0.00    +0.000 OA
ATOM     27  H   UNL     1       5.690   3.541  19.732  0.00  0.00    +0.000 HD
ATOM     28  H   UNL     1       5.361   1.856  19.466  0.00  0.00    +0.000 HD
ENDBRANCH   5  24
TORSDOF 3
ENDMDL
MODEL 3
REMARK VINA RESULT:      -8.3      0.780      1.406
REMARK  Name = 
REMARK  4 active torsions:
REMARK  status: ('A' for Active; 'I' for Inactive)
REMARK    1  A    between atoms: C_1  and  C_2
REMARK    2  A    between atoms: C_7  and  C_8
REMARK    3  A    between atoms: C_10  and  C_11
REMARK    4  A    between atoms: C_19  and  C_20
REMARK                            x       y       z     vdW  Elec       q    Type
REMARK                         _______ _______ _______ _____ _____    ______ ____
ROOT
ATOM      1  C   UNL     1       4.026   5.286  18.346  0.00  0.00    +0.000 A 
ATOM      2  N   UNL     1       3.499   6.557  18.491  0.00  0.00    +0.000 N 
ATOM      3  C   UNL     1       2.538   6.609  19.472  0.00  0.00    +0.000 A 
ATOM      4  C   UNL     1       2.433   5.323  19.962  0.00  0.00    +0.000 A 
ATOM      5  C   UNL     1       3.351   4.476  19.265  0.00  0.00    +0.000 A 
ATOM      6  H   UNL     1       3.771   7.363  17.941  0.00  0.00    +0.000 HD
ENDROOT
BRANCH   3   7
ATOM      7  C   UNL     1       1.840   7.844  19.822  0.00  0.00    +0.000 A 
ATOM      8  C   UNL     1       1.605   8.831  18.889  0.00  0.00    +0.000 A 
ATOM      9  C   UNL     1       0.936   9.934  19.352  0.00  0.00    +0.000 A 
ATOM     10  N   UNL     1       0.522  10.066  20.623  0.00  0.00    +0.000 NA
ATOM     11  C   UNL     1       0.784   9.047  21.445  0.00  0.00    +0.000 A 
ATOM     12  N   UNL     1       0.374   9.186  22.756  0.00  0.00    +0.000 N 
ATOM     13  N   UNL     1       1.444   7.936  21.107  0.00  0.00    +0.000 NA
ATOM     14  H   UNL     1       0.269  10.168  22.971  0.00  0.00    +0.000 HD
ATOM     15  H   UNL     1       0.967   8.642  23.365  0.00  0.00    +0.000 HD
ENDBRANCH   3   7
BRANCH   1  22
ATOM     16  C   UNL     1       5.449   3.943  13.759  0.00  0.00    +0.000 C 
ATOM     17  C   UNL     1       5.844   4.319  15.157  0.00  0.00    +0.000 A 
ATOM     18  C   UNL     1       7.181   4.380  15.543  0.00  0.00    +0.000 A 
ATOM     19  C   UNL     1       7.511   4.750  16.847  0.00  0.00    +0.000 A 
ATOM     20  C   UNL     1       6.509   5.069  17.776  0.00  0.00    +0.000 A 
ATOM     21 CL   UNL     1       7.056   5.534  19.354  0.00  0.00    +0.000 Cl
ATOM     22  C   UNL     1       5.147   5.012  17.417  0.00  0.00    +0.000 A 
ATOM     23  C   UNL     1       4.847   4.622  16.098  0.00  0.00    +0.000 A 
ENDBRANCH   1  22
BRANCH   5  24
ATOM     24  C   UNL     1       3.526   3.042  19.483  0.00  0.00    +0.000 C 
ATOM     25  N   UNL     1       4.790   2.663  19.840  0.00  0.00    +0.000 N 
ATOM     26  O   UNL     1       2.647   2.197  19.340  0.00  0.00    +0.000 OA
ATOM     27  H   UNL     1       5.573   3.297  19.796  0.00  0.00    +0.000 HD
ATOM     28  H   UNL     1       4.970   1.670  19.878  0.00  0.00    +0.000 HD
ENDBRANCH   5  24
TORSDOF 3
ENDMDL
MODEL 4
REMARK VINA RESULT:      -8.1      3.540      7.220
REMARK  Name = 
REMARK  4 active torsions:
REMARK  status: ('A' for Active; 'I' for Inactive)
REMARK    1  A    between atoms: C_1  and  C_2
REMARK    2  A    between atoms: C_7  and  C_8
REMARK    3  A    between atoms: C_10  and  C_11
REMARK    4  A    between atoms: C_19  and  C_20
REMARK                            x       y       z     vdW  Elec       q    Type
REMARK                         _______ _______ _______ _____ _____    ______ ____
ROOT
ATOM      1  C   UNL     1       5.479   5.236  17.653  0.00  0.00    +0.000 A 
ATOM      2  N   UNL     1       5.388   4.961  16.300  0.00  0.00    +0.000 N 
ATOM      3  C   UNL     1       6.622   4.935  15.695  0.00  0.00    +0.000 A 
ATOM      4  C   UNL     1       7.534   5.219  16.691  0.00  0.00    +0.000 A 
ATOM      5  C   UNL     1       6.838   5.420  17.924  0.00  0.00    +0.000 A 
ATOM      6  H   UNL     1       4.523   4.804  15.797  0.00  0.00    +0.000 HD
ENDROOT
BRANCH   3   7
ATOM      7  C   UNL     1       6.792   4.654  14.271  0.00  0.00    +0.000 A 
ATOM      8  C   UNL     1       7.648   5.394  13.486  0.00  0.00    +0.000 A 
ATOM      9  C   UNL     1       7.714   5.020  12.168  0.00  0.00    +0.000 A 
ATOM     10  N   UNL     1       7.005   4.002  11.654  0.00  0.00    +0.000 NA
ATOM     11  C   UNL     1       6.215   3.337  12.501  0.00  0.00    +0.000 A 
ATOM     12  N   UNL     1       5.473   2.300  11.974  0.00  0.00    +0.000 N 
ATOM     13  N   UNL     1       6.060   3.626  13.797  0.00  0.00    +0.000 NA
ATOM     14  H   UNL     1       5.368   2.438  10.978  0.00  0.00    +0.000 HD
ATOM     15  H   UNL     1       4.629   2.167  12.512  0.00  0.00    +0.000 HD
ENDBRANCH   3   7
BRANCH   1  22
ATOM     16  C   UNL     1       2.792   2.748  21.038  0.00  0.00    +0.000 C 
ATOM     17  C   UNL     1       2.946   3.969  20.181  0.00  0.00    +0.000 A 
ATOM     18  C   UNL     1       2.005   4.998  20.205  0.00  0.00    +0.000 A 
ATOM     19  C   UNL     1       2.190   6.126  19.407  0.00  0.00    +0.000 A 
ATOM     20  C   UNL     1       3.319   6.242  18.581  0.00  0.00    +0.000 A 
ATOM     21 CL   UNL     1       3.438   7.705  17.657  0.00  0.00    +0.000 Cl
ATOM     22  C   UNL     1       4.285   5.217  18.530  0.00  0.00    +0.000 A 
ATOM     23  C   UNL     1       4.062   4.086  19.338  0.00  0.00    +0.000 A 
ENDBRANCH   1  22
BRANCH   5  24
ATOM     24  C   UNL     1       7.451   5.759  19.207  0.00  0.00    +0.000 C 
ATOM     25  N   UNL     1       8.325   6.808  19.169  0.00  0.00    +0.000 N 
ATOM     26  O   UNL     1       7.251   5.160  20.261  0.00  0.00    +0.000 OA
ATOM     27  H   UNL     1       8.647   7.207  18.301  0.00  0.00    +0.000 HD
ATOM     28  H   UNL     1       8.854   6.986  20.012  0.00  0.00    +0.000 HD
ENDBRANCH   5  24
TORSDOF 3
ENDMDL
MODEL 5
REMARK VINA RESULT:      -8.0      3.502      7.255
REMARK  Name = 
REMARK  4 active torsions:
REMARK  status: ('A' for Active; 'I' for Inactive)
REMARK    1  A    between atoms: C_1  and  C_2
REMARK    2  A    between atoms: C_7  and  C_8
REMARK    3  A    between atoms: C_10  and  C_11
REMARK    4  A    between atoms: C_19  and  C_20
REMARK                            x       y       z     vdW  Elec       q    Type
REMARK                         _______ _______ _______ _____ _____    ______ ____
ROOT
ATOM      1  C   UNL     1       5.223   4.992  17.525  0.00  0.00    +0.000 A 
ATOM      2  N   UNL     1       5.198   4.752  16.163  0.00  0.00    +0.000 N 
ATOM      3  C   UNL     1       6.456   4.777  15.611  0.00  0.00    +0.000 A 
ATOM      4  C   UNL     1       7.317   5.059  16.652  0.00  0.00    +0.000 A 
ATOM      5  C   UNL     1       6.564   5.206  17.860  0.00  0.00    +0.000 A 
ATOM      6  H   UNL     1       4.360   4.584  15.619  0.00  0.00    +0.000 HD
ENDROOT
BRANCH   3   7
ATOM      7  C   UNL     1       6.695   4.540  14.189  0.00  0.00    +0.000 A 
ATOM      8  C   UNL     1       7.561   5.326  13.461  0.00  0.00    +0.000 A 
ATOM      9  C   UNL     1       7.694   4.990  12.138  0.00  0.00    +0.000 A 
ATOM     10  N   UNL     1       7.038   3.966  11.568  0.00  0.00    +0.000 NA
ATOM     11  C   UNL     1       6.233   3.256  12.362  0.00  0.00    +0.000 A 
ATOM     12  N   UNL     1       5.546   2.213  11.777  0.00  0.00    +0.000 N 
ATOM     13  N   UNL     1       6.015   3.505  13.657  0.00  0.00    +0.000 NA
ATOM     14  H   UNL     1       5.478   2.374  10.781  0.00  0.00    +0.000 HD
ATOM     15  H   UNL     1       4.685   2.040  12.274  0.00  0.00    +0.000 HD
ENDBRANCH   3   7
BRANCH   1  22
ATOM     16  C   UNL     1       1.881   7.416  20.322  0.00  0.00    +0.000 C 
ATOM     17  C   UNL     1       2.363   6.113  19.755  0.00  0.00    +0.000 A 
ATOM     18  C   UNL     1       1.697   4.916  20.015  0.00  0.00    +0.000 A 
ATOM     19  C   UNL     1       2.164   3.727  19.456  0.00  0.00    +0.000 A 
ATOM     20  C   UNL     1       3.296   3.722  18.627  0.00  0.00    +0.000 A 
ATOM     21 CL   UNL     1       3.757   2.180  17.979  0.00  0.00    +0.000 Cl
ATOM     22  C   UNL     1       3.994   4.914  18.349  0.00  0.00    +0.000 A 
ATOM     23  C   UNL     1       3.505   6.095  18.939  0.00  0.00    +0.000 A 
ENDBRANCH   1  22
BRANCH   5  24
ATOM     24  C   UNL     1       7.111   5.527  19.176  0.00  0.00    +0.000 C 
ATOM     25  N   UNL     1       8.128   6.440  19.171  0.00  0.00    +0.000 N 
ATOM     26  O   UNL     1       6.742   5.021  20.232  0.00  0.00    +0.000 OA
ATOM     27  H   UNL     1       8.574   6.742  18.319  0.00  0.00    +0.000 HD
ATOM     28  H   UNL     1       8.605   6.589  20.049  0.00  0.00    +0.000 HD
ENDBRANCH   5  24
TORSDOF 3
ENDMDL
MODEL 6
REMARK VINA RESULT:      -7.9      3.500      7.261
REMARK  Name = 
REMARK  4 active torsions:
REMARK  status: ('A' for Active; 'I' for Inactive)
REMARK    1  A    between atoms: C_1  and  C_2
REMARK    2  A    between atoms: C_7  and  C_8
REMARK    3  A    between atoms: C_10  and  C_11
REMARK    4  A    between atoms: C_19  and  C_20
REMARK                            x       y       z     vdW  Elec       q    Type
REMARK                         _______ _______ _______ _____ _____    ______ ____
ROOT
ATOM      1  C   UNL     1       5.435   5.769  17.295  0.00  0.00    +0.000 A 
ATOM      2  N   UNL     1       5.375   5.460  15.948  0.00  0.00    +0.000 N 
ATOM      3  C   UNL     1       6.599   5.081  15.451  0.00  0.00    +0.000 A 
ATOM      4  C   UNL     1       7.478   5.166  16.512  0.00  0.00    +0.000 A 
ATOM      5  C   UNL     1       6.770   5.603  17.676  0.00  0.00    +0.000 A 
ATOM      6  H   UNL     1       4.539   5.510  15.379  0.00  0.00    +0.000 HD
ENDROOT
BRANCH   3   7
ATOM      7  C   UNL     1       6.793   4.695  14.055  0.00  0.00    +0.000 A 
ATOM      8  C   UNL     1       7.662   5.376  13.231  0.00  0.00    +0.000 A 
ATOM      9  C   UNL     1       7.751   4.905  11.947  0.00  0.00    +0.000 A 
ATOM     10  N   UNL     1       7.052   3.849  11.499  0.00  0.00    +0.000 NA
ATOM     11  C   UNL     1       6.249   3.247  12.379  0.00  0.00    +0.000 A 
ATOM     12  N   UNL     1       5.518   2.171  11.919  0.00  0.00    +0.000 N 
ATOM     13  N   UNL     1       6.071   3.632  13.647  0.00  0.00    +0.000 NA
ATOM     14  H   UNL     1       5.429   2.233  10.914  0.00  0.00    +0.000 HD
ATOM     15  H   UNL     1       4.666   2.076  12.451  0.00  0.00    +0.000 HD
ENDBRANCH   3   7
BRANCH   1  22
ATOM     16  C   UNL     1       1.817   9.080  18.200  0.00  0.00    +0.000 C 
ATOM     17  C   UNL     1       2.448   7.761  18.532  0.00  0.00    +0.000 A 
ATOM     18  C   UNL     1       1.923   6.931  19.521  0.00  0.00    +0.000 A 
ATOM     19  C   UNL     1       2.527   5.703  19.790  0.00  0.00    +0.000 A 
ATOM     20  C   UNL     1       3.658   5.289  19.071  0.00  0.00    +0.000 A 
ATOM     21 CL   UNL     1       4.297   3.732  19.490  0.00  0.00    +0.000 Cl
ATOM     22  C   UNL     1       4.217   6.107  18.069  0.00  0.00    +0.000 A 
ATOM     23  C   UNL     1       3.591   7.346  17.830  0.00  0.00    +0.000 A 
ENDBRANCH   1  22
BRANCH   5  24
ATOM     24  C   UNL     1       7.354   5.833  18.995  0.00  0.00    +0.000 C 
ATOM     25  N   UNL     1       8.292   6.826  19.046  0.00  0.00    +0.000 N 
ATOM     26  O   UNL     1       7.079   5.193  20.006  0.00  0.00    +0.000 OA
ATOM     27  H   UNL     1       8.670   7.250  18.213  0.00  0.00    +0.000 HD
ATOM     28  H   UNL     1       8.798   6.925  19.915  0.00  0.00    +0.000 HD
ENDBRANCH   5  24
TORSDOF 3
ENDMDL
MODEL 7
REMARK VINA RESULT:      -7.9      1.465      1.582
REMARK  Name = 
REMARK  4 active torsions:
REMARK  status: ('A' for Active; 'I' for Inactive)
REMARK    1  A    between atoms: C_1  and  C_2
REMARK    2  A    between atoms: C_7  and  C_8
REMARK    3  A    between atoms: C_10  and  C_11
REMARK    4  A    between atoms: C_19  and  C_20
REMARK                            x       y       z     vdW  Elec       q    Type
REMARK                         _______ _______ _______ _____ _____    ______ ____
ROOT
ATOM      1  C   UNL     1       3.743   5.877  17.533  0.00  0.00    +0.000 A 
ATOM      2  N   UNL     1       3.556   7.233  17.735  0.00  0.00    +0.000 N 
ATOM      3  C   UNL     1       2.354   7.502  18.344  0.00  0.00    +0.000 A 
ATOM      4  C   UNL     1       1.741   6.279  18.523  0.00  0.00    +0.000 A 
ATOM      5  C   UNL     1       2.591   5.247  18.014  0.00  0.00    +0.000 A 
ATOM      6  H   UNL     1       4.212   7.956  17.465  0.00  0.00    +0.000 HD
ENDROOT
BRANCH   3   7
ATOM      7  C   UNL     1       1.928   8.861  18.675  0.00  0.00    +0.000 A 
ATOM      8  C   UNL     1       1.094   9.118  19.741  0.00  0.00    +0.000 A 
ATOM      9  C   UNL     1       0.779  10.437  19.941  0.00  0.00    +0.000 A 
ATOM     10  N   UNL     1       1.243  11.431  19.166  0.00  0.00    +0.000 NA
ATOM     11  C   UNL     1       2.057  11.080  18.168  0.00  0.00    +0.000 A 
ATOM     12  N   UNL     1       2.524  12.097  17.360  0.00  0.00    +0.000 N 
ATOM     13  N   UNL     1       2.415   9.827  17.871  0.00  0.00    +0.000 NA
ATOM     14  H   UNL     1       1.897  12.888  17.424  0.00  0.00    +0.000 HD
ATOM     15  H   UNL     1       2.726  11.744  16.437  0.00  0.00    +0.000 HD
ENDBRANCH   3   7
BRANCH   1  22
ATOM     16  C   UNL     1       6.171   4.069  13.570  0.00  0.00    +0.000 C 
ATOM     17  C   UNL     1       6.197   4.422  15.028  0.00  0.00    +0.000 A 
ATOM     18  C   UNL     1       7.340   4.234  15.802  0.00  0.00    +0.000 A 
ATOM     19  C   UNL     1       7.332   4.590  17.150  0.00  0.00    +0.000 A 
ATOM     20  C   UNL     1       6.184   5.145  17.737  0.00  0.00    +0.000 A 
ATOM     21 CL   UNL     1       6.316   5.564  19.415  0.00  0.00    +0.000 Cl
ATOM     22  C   UNL     1       5.011   5.343  16.982  0.00  0.00    +0.000 A 
ATOM     23  C   UNL     1       5.047   4.961  15.628  0.00  0.00    +0.000 A 
ENDBRANCH   1  22
BRANCH   5  24
ATOM     24  C   UNL     1       2.290   3.818  18.003  0.00  0.00    +0.000 C 
ATOM     25  N   UNL     1       2.174   3.243  19.238  0.00  0.00    +0.000 N 
ATOM     26  O   UNL     1       2.168   3.133  16.991  0.00  0.00    +0.000 OA
ATOM     27  H   UNL     1       2.439   3.727  20.082  0.00  0.00    +0.000 HD
ATOM     28  H   UNL     1       2.087   2.236  19.261  0.00  0.00    +0.000 HD
ENDBRANCH   5  24
TORSDOF 3
ENDMDL
MODEL 8
REMARK VINA RESULT:      -7.9      2.095      3.030
REMARK  Name = 
REMARK  4 active torsions:
REMARK  status: ('A' for Active; 'I' for Inactive)
REMARK    1  A    between atoms: C_1  and  C_2
REMARK    2  A    between atoms: C_7  and  C_8
REMARK    3  A    between atoms: C_10  and  C_11
REMARK    4  A    between atoms: C_19  and  C_20
REMARK                            x       y       z     vdW  Elec       q    Type
REMARK                         _______ _______ _______ _____ _____    ______ ____
ROOT
ATOM      1  C   UNL     1       3.007   5.638  19.606  0.00  0.00    +0.000 A 
ATOM      2  N   UNL     1       2.647   6.973  19.670  0.00  0.00    +0.000 N 
ATOM      3  C   UNL     1       1.594   7.182  20.528  0.00  0.00    +0.000 A 
ATOM      4  C   UNL     1       1.256   5.937  21.019  0.00  0.00    +0.000 A 
ATOM      5  C   UNL     1       2.124   4.954  20.447  0.00  0.00    +0.000 A 
ATOM      6  H   UNL     1       3.090   7.718  19.147  0.00  0.00    +0.000 HD
ENDROOT
BRANCH   3   7
ATOM      7  C   UNL     1       1.036   8.510  20.775  0.00  0.00    +0.000 A 
ATOM      8  C   UNL     1       1.189   9.539  19.872  0.00  0.00    +0.000 A 
ATOM      9  C   UNL     1       0.611  10.730  20.228  0.00  0.00    +0.000 A 
ATOM     10  N   UNL     1      -0.068  10.906  21.373  0.00  0.00    +0.000 NA
ATOM     11  C   UNL     1      -0.174   9.843  22.175  0.00  0.00    +0.000 A 
ATOM     12  N   UNL     1      -0.858  10.024  23.360  0.00  0.00    +0.000 N 
ATOM     13  N   UNL     1       0.364   8.643  21.936  0.00  0.00    +0.000 NA
ATOM     14  H   UNL     1      -0.855  11.007  23.600  0.00  0.00    +0.000 HD
ATOM     15  H   UNL     1      -0.521   9.379  24.058  0.00  0.00    +0.000 HD
ENDBRANCH   3   7
BRANCH   1  22
ATOM     16  C   UNL     1       7.955   5.779  18.995  0.00  0.00    +0.000 C 
ATOM     17  C   UNL     1       6.624   5.286  18.507  0.00  0.00    +0.000 A 
ATOM     18  C   UNL     1       6.518   4.478  17.377  0.00  0.00    +0.000 A 
ATOM     19  C   UNL     1       5.265   4.025  16.964  0.00  0.00    +0.000 A 
ATOM     20  C   UNL     1       4.107   4.369  17.678  0.00  0.00    +0.000 A 
ATOM     21 CL   UNL     1       2.618   3.721  17.070  0.00  0.00    +0.000 Cl
ATOM     22  C   UNL     1       4.181   5.189  18.822  0.00  0.00    +0.000 A 
ATOM     23  C   UNL     1       5.459   5.641  19.205  0.00  0.00    +0.000 A 
ENDBRANCH   1  22
BRANCH   5  24
ATOM     24  C   UNL     1       2.074   3.516  20.703  0.00  0.00    +0.000 C 
ATOM     25  N   UNL     1       0.833   2.955  20.597  0.00  0.00    +0.000 N 
ATOM     26  O   UNL     1       3.038   2.825  21.019  0.00  0.00    +0.000 OA
ATOM     27  H   UNL     1      -0.003   3.513  20.514  0.00  0.00    +0.000 HD
ATOM     28  H   UNL     1       0.747   1.990  20.886  0.00  0.00    +0.000 HD
ENDBRANCH   5  24
TORSDOF 3
ENDMDL
MODEL 9
REMARK VINA RESULT:      -7.9      3.503      7.099
REMARK  Name = 
REMARK  4 active torsions:
REMARK  status: ('A' for Active; 'I' for Inactive)
REMARK    1  A    between atoms: C_1  and  C_2
REMARK    2  A    between atoms: C_7  and  C_8
REMARK    3  A    between atoms: C_10  and  C_11
REMARK    4  A    between atoms: C_19  and  C_20
REMARK                            x       y       z     vdW  Elec       q    Type
REMARK                         _______ _______ _______ _____ _____    ______ ____
ROOT
ATOM      1  C   UNL     1       5.418   5.201  17.846  0.00  0.00    +0.000 A 
ATOM      2  N   UNL     1       5.315   4.942  16.491  0.00  0.00    +0.000 N 
ATOM      3  C   UNL     1       6.544   4.908  15.877  0.00  0.00    +0.000 A 
ATOM      4  C   UNL     1       7.467   5.173  16.868  0.00  0.00    +0.000 A 
ATOM      5  C   UNL     1       6.782   5.368  18.109  0.00  0.00    +0.000 A 
ATOM      6  H   UNL     1       4.444   4.799  15.993  0.00  0.00    +0.000 HD
ENDROOT
BRANCH   3   7
ATOM      7  C   UNL     1       6.700   4.641  14.448  0.00  0.00    +0.000 A 
ATOM      8  C   UNL     1       6.076   3.573  13.840  0.00  0.00    +0.000 A 
ATOM      9  C   UNL     1       6.306   3.443  12.495  0.00  0.00    +0.000 A 
ATOM     10  N   UNL     1       7.078   4.288  11.793  0.00  0.00    +0.000 NA
ATOM     11  C   UNL     1       7.626   5.300  12.471  0.00  0.00    +0.000 A 
ATOM     12  N   UNL     1       8.433   6.161  11.757  0.00  0.00    +0.000 N 
ATOM     13  N   UNL     1       7.485   5.512  13.784  0.00  0.00    +0.000 NA
ATOM     14  H   UNL     1       8.772   5.692  10.929  0.00  0.00    +0.000 HD
ATOM     15  H   UNL     1       9.123   6.577  12.365  0.00  0.00    +0.000 HD
ENDBRANCH   3   7
BRANCH   1  22
ATOM     16  C   UNL     1       2.744   2.717  21.243  0.00  0.00    +0.000 C 
ATOM     17  C   UNL     1       2.897   3.940  20.388  0.00  0.00    +0.000 A 
ATOM     18  C   UNL     1       1.962   4.973  20.423  0.00  0.00    +0.000 A 
ATOM     19  C   UNL     1       2.147   6.103  19.626  0.00  0.00    +0.000 A 
ATOM     20  C   UNL     1       3.270   6.215  18.793  0.00  0.00    +0.000 A 
ATOM     21 CL   UNL     1       3.390   7.680  17.872  0.00  0.00    +0.000 Cl
ATOM     22  C   UNL     1       4.231   5.186  18.732  0.00  0.00    +0.000 A 
ATOM     23  C   UNL     1       4.008   4.053  19.538  0.00  0.00    +0.000 A 
ENDBRANCH   1  22
BRANCH   5  24
ATOM     24  C   UNL     1       7.407   5.686  19.391  0.00  0.00    +0.000 C 
ATOM     25  N   UNL     1       8.321   6.701  19.350  0.00  0.00    +0.000 N 
ATOM     26  O   UNL     1       7.185   5.099  20.446  0.00  0.00    +0.000 OA
ATOM     27  H   UNL     1       8.657   7.086  18.481  0.00  0.00    +0.000 HD
ATOM     28  H   UNL     1       8.856   6.862  20.192  0.00  0.00    +0.000 HD
ENDBRANCH   5  24
TORSDOF 3
ENDMDL
