MODEL 1
REMARK VINA RESULT:      -5.6      0.000      0.000
REMARK  Name = 
REMARK  5 active torsions:
REMARK  status: ('A' for Active; 'I' for Inactive)
REMARK    1  A    between atoms: C_1  and  O_2
REMARK    2  A    between atoms: O_2  and  C_3
REMARK    3  A    between atoms: C_3  and  C_4
REMARK    4  A    between atoms: C_4  and  C_5
REMARK    5  A    between atoms: N_13  and  C_14
REMARK                            x       y       z     vdW  Elec       q    Type
REMARK                         _______ _______ _______ _____ _____    ______ ____
ROOT
ATOM      1  C   UNL     1       0.241   9.195  20.422  0.00  0.00    +0.000 C 
ATOM      2  O   UNL     1      -0.398   9.936  19.675  0.00  0.00    +0.000 OA
ATOM      3  N   UNL     1       1.493   8.682  20.074  0.00  0.00    +0.000 N 
ATOM      4  C   UNL     1       2.001   9.008  18.743  0.00  0.00    +0.000 C 
ATOM      5  C   UNL     1       1.586   7.919  17.734  0.00  0.00    +0.000 C 
ATOM      6  C   UNL     1       2.014   6.494  18.210  0.00  0.00    +0.000 C 
ATOM      7  C   UNL     1       3.544   6.380  18.074  0.00  0.00    +0.000 C 
ATOM      8  O   UNL     1       4.147   7.301  17.514  0.00  0.00    +0.000 OA
ATOM      9  N   UNL     1       4.180   5.207  18.505  0.00  0.00    +0.000 N 
ATOM     10  C   UNL     1       3.400   4.075  19.015  0.00  0.00    +0.000 C 
ATOM     11  C   UNL     1       2.760   4.408  20.356  0.00  0.00    +0.000 C 
ATOM     12  O   UNL     1       1.483   4.988  20.168  0.00  0.00    +0.000 OA
ATOM     13  C   UNL     1       1.450   6.299  19.629  0.00  0.00    +0.000 C 
ATOM     14  C   UNL     1       1.966   7.390  20.579  0.00  0.00    +0.000 C 
ENDROOT
BRANCH   9  15
ATOM     15  C   UNL     1       5.600   5.113  18.384  0.00  0.00    +0.000 A 
ATOM     16  C   UNL     1       6.330   4.582  17.262  0.00  0.00    +0.000 A 
ATOM     17  C   UNL     1       7.693   4.575  17.440  0.00  0.00    +0.000 A 
ATOM     18  S   UNL     1       8.136   5.239  18.943  0.00  0.00    +0.000 S 
ATOM     19  C   UNL     1       6.498   5.534  19.348  0.00  0.00    +0.000 A 
ENDBRANCH   9  15
BRANCH   1  20
ATOM     20  C   UNL     1      -0.309   8.840  21.784  0.00  0.00    +0.000 C 
BRANCH  20  21
ATOM     21  C   UNL     1       0.303   9.744  22.839  0.00  0.00    +0.000 C 
BRANCH  21  23
ATOM     22  C   UNL     1      -1.183  11.563  22.883  0.00  0.00    +0.000 C 
ATOM     23  O   UNL     1      -0.745  10.390  23.559  0.00  0.00    +0.000 OA
ENDBRANCH  21  23
ENDBRANCH  20  21
ENDBRANCH   1  20
TORSDOF 4
ENDMDL
MODEL 2
REMARK VINA RESULT:      -5.5      2.488      4.160
REMARK  Name = 
REMARK  5 active torsions:
REMARK  status: ('A' for Active; 'I' for Inactive)
REMARK    1  A    between atoms: C_1  and  O_2
REMARK    2  A    between atoms: O_2  and  C_3
REMARK    3  A    between atoms: C_3  and  C_4
REMARK    4  A    between atoms: C_4  and  C_5
REMARK    5  A    between atoms: N_13  and  C_14
REMARK                            x       y       z     vdW  Elec       q    Type
REMARK                         _______ _______ _______ _____ _____    ______ ____
ROOT
ATOM      1  C   UNL     1       1.767   5.661  20.245  0.00  0.00    +0.000 C 
ATOM      2  O   UNL     1       0.961   4.838  20.680  0.00  0.00    +0.000 OA
ATOM      3  N   UNL     1       2.432   5.484  19.030  0.00  0.00    +0.000 N 
ATOM      4  C   UNL     1       2.183   4.238  18.307  0.00  0.00    +0.000 C 
ATOM      5  C   UNL     1       3.223   3.174  18.709  0.00  0.00    +0.000 C 
ATOM      6  C   UNL     1       4.685   3.694  18.528  0.00  0.00    +0.000 C 
ATOM      7  C   UNL     1       4.986   3.769  17.020  0.00  0.00    +0.000 C 
ATOM      8  O   UNL     1       4.150   3.304  16.237  0.00  0.00    +0.000 OA
ATOM      9  N   UNL     1       6.223   4.275  16.597  0.00  0.00    +0.000 N 
ATOM     10  C   UNL     1       7.247   4.664  17.573  0.00  0.00    +0.000 C 
ATOM     11  C   UNL     1       6.825   5.907  18.345  0.00  0.00    +0.000 C 
ATOM     12  O   UNL     1       6.096   5.549  19.504  0.00  0.00    +0.000 OA
ATOM     13  C   UNL     1       4.796   5.020  19.302  0.00  0.00    +0.000 C 
ATOM     14  C   UNL     1       3.767   6.040  18.792  0.00  0.00    +0.000 C 
ENDROOT
BRANCH   9  15
ATOM     15  C   UNL     1       6.491   4.349  15.196  0.00  0.00    +0.000 A 
ATOM     16  C   UNL     1       5.869   3.565  14.162  0.00  0.00    +0.000 A 
ATOM     17  C   UNL     1       6.357   3.818  12.902  0.00  0.00    +0.000 A 
ATOM     18  S   UNL     1       7.550   5.032  12.922  0.00  0.00    +0.000 S 
ATOM     19  C   UNL     1       7.406   5.211  14.619  0.00  0.00    +0.000 A 
ENDBRANCH   9  15
BRANCH   1  20
ATOM     20  C   UNL     1       2.039   6.931  21.016  0.00  0.00    +0.000 C 
BRANCH  20  21
ATOM     21  C   UNL     1       0.913   7.924  20.790  0.00  0.00    +0.000 C 
BRANCH  21  23
ATOM     22  C   UNL     1       0.384   9.946  19.718  0.00  0.00    +0.000 C 
ATOM     23  O   UNL     1       1.337   8.897  19.838  0.00  0.00    +0.000 OA
ENDBRANCH  21  23
ENDBRANCH  20  21
ENDBRANCH   1  20
TORSDOF 4
ENDMDL
MODEL 3
REMARK VINA RESULT:      -5.3      2.565      4.177
REMARK  Name = 
REMARK  5 active torsions:
REMARK  status: ('A' for Active; 'I' for Inactive)
REMARK    1  A    between atoms: C_1  and  O_2
REMARK    2  A    between atoms: O_2  and  C_3
REMARK    3  A    between atoms: C_3  and  C_4
REMARK    4  A    between atoms: C_4  and  C_5
REMARK    5  A    between atoms: N_13  and  C_14
REMARK                            x       y       z     vdW  Elec       q    Type
REMARK                         _______ _______ _______ _____ _____    ______ ____
ROOT
ATOM      1  C   UNL     1       1.855   5.936  19.983  0.00  0.00    +0.000 C 
ATOM      2  O   UNL     1       1.019   5.154  20.436  0.00  0.00    +0.000 OA
ATOM      3  N   UNL     1       2.523   5.700  18.779  0.00  0.00    +0.000 N 
ATOM      4  C   UNL     1       2.237   4.441  18.092  0.00  0.00    +0.000 C 
ATOM      5  C   UNL     1       3.237   3.356  18.535  0.00  0.00    +0.000 C 
ATOM      6  C   UNL     1       4.718   3.820  18.351  0.00  0.00    +0.000 C 
ATOM      7  C   UNL     1       5.032   3.839  16.843  0.00  0.00    +0.000 C 
ATOM      8  O   UNL     1       4.187   3.379  16.068  0.00  0.00    +0.000 OA
ATOM      9  N   UNL     1       6.289   4.290  16.416  0.00  0.00    +0.000 N 
ATOM     10  C   UNL     1       7.318   4.674  17.388  0.00  0.00    +0.000 C 
ATOM     11  C   UNL     1       6.933   5.953  18.119  0.00  0.00    +0.000 C 
ATOM     12  O   UNL     1       6.183   5.656  19.281  0.00  0.00    +0.000 OA
ATOM     13  C   UNL     1       4.868   5.165  19.085  0.00  0.00    +0.000 C 
ATOM     14  C   UNL     1       3.878   6.203  18.536  0.00  0.00    +0.000 C 
ENDROOT
BRANCH   9  15
ATOM     15  C   UNL     1       6.570   4.312  15.016  0.00  0.00    +0.000 A 
ATOM     16  C   UNL     1       7.440   5.232  14.331  0.00  0.00    +0.000 A 
ATOM     17  C   UNL     1       7.486   5.046  12.971  0.00  0.00    +0.000 A 
ATOM     18  S   UNL     1       6.514   3.738  12.481  0.00  0.00    +0.000 S 
ATOM     19  C   UNL     1       6.037   3.427  14.096  0.00  0.00    +0.000 A 
ENDBRANCH   9  15
BRANCH   1  20
ATOM     20  C   UNL     1       2.165   7.219  20.717  0.00  0.00    +0.000 C 
BRANCH  20  21
ATOM     21  C   UNL     1       1.440   8.379  20.058  0.00  0.00    +0.000 C 
BRANCH  21  23
ATOM     22  C   UNL     1      -0.238   8.566  21.692  0.00  0.00    +0.000 C 
ATOM     23  O   UNL     1       0.871   9.206  21.071  0.00  0.00    +0.000 OA
ENDBRANCH  21  23
ENDBRANCH  20  21
ENDBRANCH   1  20
TORSDOF 4
ENDMDL
MODEL 4
REMARK VINA RESULT:      -5.2      3.626      8.095
REMARK  Name = 
REMARK  5 active torsions:
REMARK  status: ('A' for Active; 'I' for Inactive)
REMARK    1  A    between atoms: C_1  and  O_2
REMARK    2  A    between atoms: O_2  and  C_3
REMARK    3  A    between atoms: C_3  and  C_4
REMARK    4  A    between atoms: C_4  and  C_5
REMARK    5  A    between atoms: N_13  and  C_14
REMARK                            x       y       z     vdW  Elec       q    Type
REMARK                         _______ _______ _______ _____ _____    ______ ____
ROOT
ATOM      1  C   UNL     1       6.649   4.440  14.712  0.00  0.00    +0.000 C 
ATOM      2  O   UNL     1       7.866   4.315  14.857  0.00  0.00    +0.000 OA
ATOM      3  N   UNL     1       5.871   5.220  15.571  0.00  0.00    +0.000 N 
ATOM      4  C   UNL     1       6.550   5.844  16.706  0.00  0.00    +0.000 C 
ATOM      5  C   UNL     1       6.482   4.920  17.938  0.00  0.00    +0.000 C 
ATOM      6  C   UNL     1       5.014   4.501  18.270  0.00  0.00    +0.000 C 
ATOM      7  C   UNL     1       4.282   5.727  18.846  0.00  0.00    +0.000 C 
ATOM      8  O   UNL     1       4.946   6.741  19.083  0.00  0.00    +0.000 OA
ATOM      9  N   UNL     1       2.920   5.621  19.161  0.00  0.00    +0.000 N 
ATOM     10  C   UNL     1       2.213   4.344  19.011  0.00  0.00    +0.000 C 
ATOM     11  C   UNL     1       2.064   3.967  17.543  0.00  0.00    +0.000 C 
ATOM     12  O   UNL     1       3.178   3.211  17.108  0.00  0.00    +0.000 OA
ATOM     13  C   UNL     1       4.411   3.900  16.987  0.00  0.00    +0.000 C 
ATOM     14  C   UNL     1       4.463   4.911  15.832  0.00  0.00    +0.000 C 
ENDROOT
BRANCH   9  15
ATOM     15  C   UNL     1       2.246   6.765  19.687  0.00  0.00    +0.000 A 
ATOM     16  C   UNL     1       1.658   6.886  20.995  0.00  0.00    +0.000 A 
ATOM     17  C   UNL     1       1.034   8.091  21.215  0.00  0.00    +0.000 A 
ATOM     18  S   UNL     1       1.169   9.124  19.868  0.00  0.00    +0.000 S 
ATOM     19  C   UNL     1       2.064   7.951  18.999  0.00  0.00    +0.000 A 
ENDBRANCH   9  15
BRANCH   1  20
ATOM     20  C   UNL     1       5.954   3.767  13.553  0.00  0.00    +0.000 C 
BRANCH  20  21
ATOM     21  C   UNL     1       6.794   3.905  12.296  0.00  0.00    +0.000 C 
BRANCH  21  23
ATOM     22  C   UNL     1       5.643   2.052  11.423  0.00  0.00    +0.000 C 
ATOM     23  O   UNL     1       6.919   2.625  11.680  0.00  0.00    +0.000 OA
ENDBRANCH  21  23
ENDBRANCH  20  21
ENDBRANCH   1  20
TORSDOF 4
ENDMDL
MODEL 5
REMARK VINA RESULT:      -5.2      2.730      4.398
REMARK  Name = 
REMARK  5 active torsions:
REMARK  status: ('A' for Active; 'I' for Inactive)
REMARK    1  A    between atoms: C_1  and  O_2
REMARK    2  A    between atoms: O_2  and  C_3
REMARK    3  A    between atoms: C_3  and  C_4
REMARK    4  A    between atoms: C_4  and  C_5
REMARK    5  A    between atoms: N_13  and  C_14
REMARK                            x       y       z     vdW  Elec       q    Type
REMARK                         _______ _______ _______ _____ _____    ______ ____
ROOT
ATOM      1  C   UNL     1       2.137   6.005  19.942  0.00  0.00    +0.000 C 
ATOM      2  O   UNL     1       1.719   5.189  20.764  0.00  0.00    +0.000 OA
ATOM      3  N   UNL     1       2.661   5.618  18.706  0.00  0.00    +0.000 N 
ATOM      4  C   UNL     1       2.758   4.183  18.442  0.00  0.00    +0.000 C 
ATOM      5  C   UNL     1       4.139   3.655  18.877  0.00  0.00    +0.000 C 
ATOM      6  C   UNL     1       5.303   4.468  18.226  0.00  0.00    +0.000 C 
ATOM      7  C   UNL     1       5.366   4.106  16.730  0.00  0.00    +0.000 C 
ATOM      8  O   UNL     1       4.644   3.189  16.325  0.00  0.00    +0.000 OA
ATOM      9  N   UNL     1       6.294   4.761  15.909  0.00  0.00    +0.000 N 
ATOM     10  C   UNL     1       7.242   5.729  16.473  0.00  0.00    +0.000 C 
ATOM     11  C   UNL     1       6.527   6.990  16.939  0.00  0.00    +0.000 C 
ATOM     12  O   UNL     1       6.115   6.860  18.287  0.00  0.00    +0.000 OA
ATOM     13  C   UNL     1       5.057   5.953  18.547  0.00  0.00    +0.000 C 
ATOM     14  C   UNL     1       3.688   6.408  18.021  0.00  0.00    +0.000 C 
ENDROOT
BRANCH   9  15
ATOM     15  C   UNL     1       6.340   4.425  14.522  0.00  0.00    +0.000 A 
ATOM     16  C   UNL     1       5.325   3.731  13.774  0.00  0.00    +0.000 A 
ATOM     17  C   UNL     1       5.659   3.504  12.461  0.00  0.00    +0.000 A 
ATOM     18  S   UNL     1       7.187   4.151  12.079  0.00  0.00    +0.000 S 
ATOM     19  C   UNL     1       7.391   4.733  13.677  0.00  0.00    +0.000 A 
ENDBRANCH   9  15
BRANCH   1  20
ATOM     20  C   UNL     1       2.059   7.484  20.239  0.00  0.00    +0.000 C 
BRANCH  20  21
ATOM     21  C   UNL     1       1.006   7.743  21.301  0.00  0.00    +0.000 C 
BRANCH  21  23
ATOM     22  C   UNL     1       0.297   9.453  22.747  0.00  0.00    +0.000 C 
ATOM     23  O   UNL     1       1.411   8.857  22.094  0.00  0.00    +0.000 OA
ENDBRANCH  21  23
ENDBRANCH  20  21
ENDBRANCH   1  20
TORSDOF 4
ENDMDL
MODEL 6
REMARK VINA RESULT:      -5.2      3.527      8.326
REMARK  Name = 
REMARK  5 active torsions:
REMARK  status: ('A' for Active; 'I' for Inactive)
REMARK    1  A    between atoms: C_1  and  O_2
REMARK    2  A    between atoms: O_2  and  C_3
REMARK    3  A    between atoms: C_3  and  C_4
REMARK    4  A    between atoms: C_4  and  C_5
REMARK    5  A    between atoms: N_13  and  C_14
REMARK                            x       y       z     vdW  Elec       q    Type
REMARK                         _______ _______ _______ _____ _____    ______ ____
ROOT
ATOM      1  C   UNL     1       1.986   7.414  19.719  0.00  0.00    +0.000 C 
ATOM      2  O   UNL     1       1.855   6.340  20.307  0.00  0.00    +0.000 OA
ATOM      3  N   UNL     1       1.766   8.641  20.348  0.00  0.00    +0.000 N 
ATOM      4  C   UNL     1       1.307   8.608  21.736  0.00  0.00    +0.000 C 
ATOM      5  C   UNL     1      -0.234   8.625  21.785  0.00  0.00    +0.000 C 
ATOM      6  C   UNL     1      -0.827   9.827  20.983  0.00  0.00    +0.000 C 
ATOM      7  C   UNL     1      -0.545  11.119  21.772  0.00  0.00    +0.000 C 
ATOM      8  O   UNL     1      -0.062  11.014  22.904  0.00  0.00    +0.000 OA
ATOM      9  N   UNL     1      -0.924  12.351  21.220  0.00  0.00    +0.000 N 
ATOM     10  C   UNL     1      -1.641  12.410  19.942  0.00  0.00    +0.000 C 
ATOM     11  C   UNL     1      -0.741  11.992  18.787  0.00  0.00    +0.000 C 
ATOM     12  O   UNL     1      -0.821  10.594  18.576  0.00  0.00    +0.000 OA
ATOM     13  C   UNL     1      -0.234   9.764  19.563  0.00  0.00    +0.000 C 
ATOM     14  C   UNL     1       1.300   9.817  19.608  0.00  0.00    +0.000 C 
ENDROOT
BRANCH   9  15
ATOM     15  C   UNL     1      -0.651  13.545  21.954  0.00  0.00    +0.000 A 
ATOM     16  C   UNL     1      -1.403  14.054  23.071  0.00  0.00    +0.000 A 
ATOM     17  C   UNL     1      -0.936  15.252  23.556  0.00  0.00    +0.000 A 
ATOM     18  S   UNL     1       0.442  15.781  22.707  0.00  0.00    +0.000 S 
ATOM     19  C   UNL     1       0.404  14.400  21.694  0.00  0.00    +0.000 A 
ENDBRANCH   9  15
BRANCH   1  20
ATOM     20  C   UNL     1       2.432   7.435  18.276  0.00  0.00    +0.000 C 
BRANCH  20  21
ATOM     21  C   UNL     1       3.665   6.566  18.104  0.00  0.00    +0.000 C 
BRANCH  21  23
ATOM     22  C   UNL     1       3.992   4.240  18.079  0.00  0.00    +0.000 C 
ATOM     23  O   UNL     1       3.282   5.331  17.504  0.00  0.00    +0.000 OA
ENDBRANCH  21  23
ENDBRANCH  20  21
ENDBRANCH   1  20
TORSDOF 4
ENDMDL
MODEL 7
REMARK VINA RESULT:      -5.1      4.435      8.961
REMARK  Name = 
REMARK  5 active torsions:
REMARK  status: ('A' for Active; 'I' for Inactive)
REMARK    1  A    between atoms: C_1  and  O_2
REMARK    2  A    between atoms: O_2  and  C_3
REMARK    3  A    between atoms: C_3  and  C_4
REMARK    4  A    between atoms: C_4  and  C_5
REMARK    5  A    between atoms: N_13  and  C_14
REMARK                            x       y       z     vdW  Elec       q    Type
REMARK                         _______ _______ _______ _____ _____    ______ ____
ROOT
ATOM      1  C   UNL     1       1.476   9.339  18.497  0.00  0.00    +0.000 C 
ATOM      2  O   UNL     1       2.171   9.854  17.620  0.00  0.00    +0.000 OA
ATOM      3  N   UNL     1       0.264   9.896  18.912  0.00  0.00    +0.000 N 
ATOM      4  C   UNL     1      -0.130  11.167  18.306  0.00  0.00    +0.000 C 
ATOM      5  C   UNL     1       0.381  12.343  19.161  0.00  0.00    +0.000 C 
ATOM      6  C   UNL     1      -0.073  12.219  20.650  0.00  0.00    +0.000 C 
ATOM      7  C   UNL     1      -1.584  12.509  20.718  0.00  0.00    +0.000 C 
ATOM      8  O   UNL     1      -2.145  12.911  19.693  0.00  0.00    +0.000 OA
ATOM      9  N   UNL     1      -2.245  12.393  21.949  0.00  0.00    +0.000 N 
ATOM     10  C   UNL     1      -1.501  12.069  23.172  0.00  0.00    +0.000 C 
ATOM     11  C   UNL     1      -0.984  10.637  23.136  0.00  0.00    +0.000 C 
ATOM     12  O   UNL     1       0.299  10.587  22.541  0.00  0.00    +0.000 OA
ATOM     13  C   UNL     1       0.368  10.831  21.147  0.00  0.00    +0.000 C 
ATOM     14  C   UNL     1      -0.239   9.720  20.277  0.00  0.00    +0.000 C 
ENDROOT
BRANCH   9  15
ATOM     15  C   UNL     1      -3.648  12.655  22.002  0.00  0.00    +0.000 A 
ATOM     16  C   UNL     1      -4.592  12.486  20.929  0.00  0.00    +0.000 A 
ATOM     17  C   UNL     1      -5.874  12.859  21.253  0.00  0.00    +0.000 A 
ATOM     18  S   UNL     1      -5.987  13.389  22.867  0.00  0.00    +0.000 S 
ATOM     19  C   UNL     1      -4.316  13.115  23.123  0.00  0.00    +0.000 A 
ENDBRANCH   9  15
BRANCH   1  20
ATOM     20  C   UNL     1       1.908   8.041  19.137  0.00  0.00    +0.000 C 
BRANCH  20  21
ATOM     21  C   UNL     1       2.823   7.280  18.195  0.00  0.00    +0.000 C 
BRANCH  21  23
ATOM     22  C   UNL     1       2.341   5.203  19.180  0.00  0.00    +0.000 C 
ATOM     23  O   UNL     1       2.290   5.974  17.986  0.00  0.00    +0.000 OA
ENDBRANCH  21  23
ENDBRANCH  20  21
ENDBRANCH   1  20
TORSDOF 4
ENDMDL
MODEL 8
REMARK VINA RESULT:      -5.1      3.003      4.907
REMARK  Name = 
REMARK  5 active torsions:
REMARK  status: ('A' for Active; 'I' for Inactive)
REMARK    1  A    between atoms: C_1  and  O_2
REMARK    2  A    between atoms: O_2  and  C_3
REMARK    3  A    between atoms: C_3  and  C_4
REMARK    4  A    between atoms: C_4  and  C_5
REMARK    5  A    between atoms: N_13  and  C_14
REMARK                            x       y       z     vdW  Elec       q    Type
REMARK                         _______ _______ _______ _____ _____    ______ ____
ROOT
ATOM      1  C   UNL     1      -1.245  11.611  19.158  0.00  0.00    +0.000 C 
ATOM      2  O   UNL     1      -1.397  12.421  20.073  0.00  0.00    +0.000 OA
ATOM      3  N   UNL     1      -0.896  10.279  19.389  0.00  0.00    +0.000 N 
ATOM      4  C   UNL     1      -0.652   9.884  20.776  0.00  0.00    +0.000 C 
ATOM      5  C   UNL     1       0.843  10.041  21.117  0.00  0.00    +0.000 C 
ATOM      6  C   UNL     1       1.754   9.277  20.103  0.00  0.00    +0.000 C 
ATOM      7  C   UNL     1       1.604   7.767  20.364  0.00  0.00    +0.000 C 
ATOM      8  O   UNL     1       0.954   7.411  21.353  0.00  0.00    +0.000 OA
ATOM      9  N   UNL     1       2.276   6.862  19.531  0.00  0.00    +0.000 N 
ATOM     10  C   UNL     1       3.166   7.340  18.467  0.00  0.00    +0.000 C 
ATOM     11  C   UNL     1       2.378   8.020  17.356  0.00  0.00    +0.000 C 
ATOM     12  O   UNL     1       2.230   9.402  17.625  0.00  0.00    +0.000 OA
ATOM     13  C   UNL     1       1.367   9.757  18.692  0.00  0.00    +0.000 C 
ATOM     14  C   UNL     1      -0.123   9.503  18.417  0.00  0.00    +0.000 C 
ENDROOT
BRANCH   9  15
ATOM     15  C   UNL     1       2.125   5.463  19.774  0.00  0.00    +0.000 A 
ATOM     16  C   UNL     1       2.327   4.784  21.028  0.00  0.00    +0.000 A 
ATOM     17  C   UNL     1       2.153   3.423  20.958  0.00  0.00    +0.000 A 
ATOM     18  S   UNL     1       1.705   2.925  19.392  0.00  0.00    +0.000 S 
ATOM     19  C   UNL     1       1.747   4.538  18.817  0.00  0.00    +0.000 A 
ENDBRANCH   9  15
BRANCH   1  20
ATOM     20  C   UNL     1      -1.471  12.039  17.727  0.00  0.00    +0.000 C 
BRANCH  20  21
ATOM     21  C   UNL     1      -2.715  11.365  17.177  0.00  0.00    +0.000 C 
BRANCH  21  23
ATOM     22  C   UNL     1      -3.146   9.947  15.354  0.00  0.00    +0.000 C 
ATOM     23  O   UNL     1      -2.555  11.172  15.773  0.00  0.00    +0.000 OA
ENDBRANCH  21  23
ENDBRANCH  20  21
ENDBRANCH   1  20
TORSDOF 4
ENDMDL
MODEL 9
REMARK VINA RESULT:      -5.1      3.722      8.381
REMARK  Name = 
REMARK  5 active torsions:
REMARK  status: ('A' for Active; 'I' for Inactive)
REMARK    1  A    between atoms: C_1  and  O_2
REMARK    2  A    between atoms: O_2  and  C_3
REMARK    3  A    between atoms: C_3  and  C_4
REMARK    4  A    between atoms: C_4  and  C_5
REMARK    5  A    between atoms: N_13  and  C_14
REMARK                            x       y       z     vdW  Elec       q    Type
REMARK                         _______ _______ _______ _____ _____    ______ ____
ROOT
ATOM      1  C   UNL     1       2.010   7.511  19.664  0.00  0.00    +0.000 C 
ATOM      2  O   UNL     1       1.907   6.435  20.253  0.00  0.00    +0.000 OA
ATOM      3  N   UNL     1       1.768   8.734  20.293  0.00  0.00    +0.000 N 
ATOM      4  C   UNL     1       1.320   8.692  21.685  0.00  0.00    +0.000 C 
ATOM      5  C   UNL     1      -0.220   8.675  21.745  0.00  0.00    +0.000 C 
ATOM      6  C   UNL     1      -0.846   9.863  20.946  0.00  0.00    +0.000 C 
ATOM      7  C   UNL     1      -0.587  11.161  21.732  0.00  0.00    +0.000 C 
ATOM      8  O   UNL     1      -0.093  11.068  22.861  0.00  0.00    +0.000 OA
ATOM      9  N   UNL     1      -0.997  12.384  21.182  0.00  0.00    +0.000 N 
ATOM     10  C   UNL     1      -1.726  12.426  19.909  0.00  0.00    +0.000 C 
ATOM     11  C   UNL     1      -0.826  12.026  18.748  0.00  0.00    +0.000 C 
ATOM     12  O   UNL     1      -0.876  10.627  18.539  0.00  0.00    +0.000 OA
ATOM     13  C   UNL     1      -0.263   9.811  19.523  0.00  0.00    +0.000 C 
ATOM     14  C   UNL     1       1.270   9.898  19.555  0.00  0.00    +0.000 C 
ENDROOT
BRANCH   9  15
ATOM     15  C   UNL     1      -0.745  13.584  21.913  0.00  0.00    +0.000 A 
ATOM     16  C   UNL     1       0.409  14.435  21.791  0.00  0.00    +0.000 A 
ATOM     17  C   UNL     1       0.406  15.504  22.655  0.00  0.00    +0.000 A 
ATOM     18  S   UNL     1      -1.002  15.536  23.612  0.00  0.00    +0.000 S 
ATOM     19  C   UNL     1      -1.600  14.117  22.862  0.00  0.00    +0.000 A 
ENDBRANCH   9  15
BRANCH   1  20
ATOM     20  C   UNL     1       2.445   7.540  18.217  0.00  0.00    +0.000 C 
BRANCH  20  21
ATOM     21  C   UNL     1       3.596   6.574  18.004  0.00  0.00    +0.000 C 
BRANCH  21  23
ATOM     22  C   UNL     1       5.147   5.975  16.345  0.00  0.00    +0.000 C 
ATOM     23  O   UNL     1       4.395   7.038  16.917  0.00  0.00    +0.000 OA
ENDBRANCH  21  23
ENDBRANCH  20  21
ENDBRANCH   1  20
TORSDOF 4
ENDMDL
