MODEL 1
REMARK VINA RESULT:      -7.3      0.000      0.000
REMARK  Name = 
REMARK  7 active torsions:
REMARK  status: ('A' for Active; 'I' for Inactive)
REMARK    1  A    between atoms: C_1  and  O_2
REMARK    2  A    between atoms: O_2  and  C_3
REMARK    3  A    between atoms: N_14  and  C_15
REMARK    4  A    between atoms: C_15  and  C_16
REMARK    5  A    between atoms: C_23  and  C_24
REMARK    6  A    between atoms: C_25  and  C_26
REMARK    7  A    between atoms: C_29  and  C_30
REMARK                            x       y       z     vdW  Elec       q    Type
REMARK                         _______ _______ _______ _____ _____    ______ ____
ROOT
ATOM      1  C   UNL     1       0.115   8.892  21.290  0.00  0.00    +0.000 A 
ATOM      2  C   UNL     1       0.833   7.741  21.580  0.00  0.00    +0.000 A 
ATOM      3  N   UNL     1       1.789   7.229  20.789  0.00  0.00    +0.000 NA
ATOM      4  C   UNL     1       2.060   7.870  19.637  0.00  0.00    +0.000 A 
ATOM      5  C   UNL     1       1.407   9.069  19.228  0.00  0.00    +0.000 A 
ATOM      6  N   UNL     1       1.728   9.682  18.048  0.00  0.00    +0.000 NA
ATOM      7  C   UNL     1       2.594   9.113  17.184  0.00  0.00    +0.000 A 
ATOM      8  C   UNL     1       3.212   7.942  17.507  0.00  0.00    +0.000 A 
ATOM      9  N   UNL     1       4.089   7.161  16.777  0.00  0.00    +0.000 N 
ATOM     10  C   UNL     1       4.443   6.050  17.541  0.00  0.00    +0.000 A 
ATOM     11  O   UNL     1       5.186   5.154  17.178  0.00  0.00    +0.000 OA
ATOM     12  N   UNL     1       3.762   6.170  18.766  0.00  0.00    +0.000 N 
ATOM     13  C   UNL     1       2.969   7.344  18.733  0.00  0.00    +0.000 A 
ATOM     14  C   UNL     1       0.394   9.579  20.083  0.00  0.00    +0.000 A 
ATOM     15  H   UNL     1       4.426   7.316  15.836  0.00  0.00    +0.000 HD
ENDROOT
BRANCH  14  16
ATOM     16  C   UNL     1      -0.361  10.798  19.685  0.00  0.00    +0.000 A 
ATOM     17  C   UNL     1      -1.473  10.996  18.785  0.00  0.00    +0.000 A 
ATOM     18  C   UNL     1      -2.276  10.055  17.964  0.00  0.00    +0.000 C 
ATOM     19  N   UNL     1      -1.815  12.287  18.700  0.00  0.00    +0.000 NA
ATOM     20  O   UNL     1      -0.958  12.961  19.520  0.00  0.00    +0.000 OA
ATOM     21  C   UNL     1      -0.088  12.095  20.099  0.00  0.00    +0.000 A 
ATOM     22  C   UNL     1       0.880  12.767  20.989  0.00  0.00    +0.000 C 
ENDBRANCH  14  16
BRANCH   1  24
ATOM     23  C   UNL     1      -0.477   9.990  23.298  0.00  0.00    +0.000 C 
ATOM     24  O   UNL     1      -0.899   9.307  22.113  0.00  0.00    +0.000 OA
ENDBRANCH   1  24
BRANCH  12  25
ATOM     25  C   UNL     1       3.851   5.207  19.834  0.00  0.00    +0.000 C 
BRANCH  25  26
ATOM     26  C   UNL     1       2.778   4.140  19.806  0.00  0.00    +0.000 A 
ATOM     27  C   UNL     1       2.230   3.646  20.998  0.00  0.00    +0.000 A 
ATOM     28  C   UNL     1       1.143   2.768  20.973  0.00  0.00    +0.000 A 
ATOM     29  C   UNL     1       0.600   2.363  19.756  0.00  0.00    +0.000 A 
ATOM     30  C   UNL     1       1.160   2.813  18.562  0.00  0.00    +0.000 A 
ATOM     31  C   UNL     1       2.244   3.692  18.587  0.00  0.00    +0.000 A 
ENDBRANCH  25  26
ENDBRANCH  12  25
TORSDOF 4
ENDMDL
MODEL 2
REMARK VINA RESULT:      -7.2      0.600      1.577
REMARK  Name = 
REMARK  7 active torsions:
REMARK  status: ('A' for Active; 'I' for Inactive)
REMARK    1  A    between atoms: C_1  and  O_2
REMARK    2  A    between atoms: O_2  and  C_3
REMARK    3  A    between atoms: N_14  and  C_15
REMARK    4  A    between atoms: C_15  and  C_16
REMARK    5  A    between atoms: C_23  and  C_24
REMARK    6  A    between atoms: C_25  and  C_26
REMARK    7  A    between atoms: C_29  and  C_30
REMARK                            x       y       z     vdW  Elec       q    Type
REMARK                         _______ _______ _______ _____ _____    ______ ____
ROOT
ATOM      1  C   UNL     1       0.022   9.015  21.301  0.00  0.00    +0.000 A 
ATOM      2  C   UNL     1       0.691   7.836  21.599  0.00  0.00    +0.000 A 
ATOM      3  N   UNL     1       1.645   7.293  20.826  0.00  0.00    +0.000 NA
ATOM      4  C   UNL     1       1.964   7.931  19.683  0.00  0.00    +0.000 A 
ATOM      5  C   UNL     1       1.364   9.155  19.268  0.00  0.00    +0.000 A 
ATOM      6  N   UNL     1       1.733   9.763  18.099  0.00  0.00    +0.000 NA
ATOM      7  C   UNL     1       2.596   9.167  17.251  0.00  0.00    +0.000 A 
ATOM      8  C   UNL     1       3.164   7.972  17.579  0.00  0.00    +0.000 A 
ATOM      9  N   UNL     1       4.026   7.164  16.863  0.00  0.00    +0.000 N 
ATOM     10  C   UNL     1       4.323   6.036  17.627  0.00  0.00    +0.000 A 
ATOM     11  O   UNL     1       5.040   5.116  17.275  0.00  0.00    +0.000 OA
ATOM     12  N   UNL     1       3.620   6.175  18.838  0.00  0.00    +0.000 N 
ATOM     13  C   UNL     1       2.872   7.377  18.796  0.00  0.00    +0.000 A 
ATOM     14  C   UNL     1       0.352   9.698  20.104  0.00  0.00    +0.000 A 
ATOM     15  H   UNL     1       4.389   7.311  15.930  0.00  0.00    +0.000 HD
ENDROOT
BRANCH  14  16
ATOM     16  C   UNL     1      -0.349  10.946  19.699  0.00  0.00    +0.000 A 
ATOM     17  C   UNL     1      -0.189  12.322  20.110  0.00  0.00    +0.000 A 
ATOM     18  C   UNL     1       0.747  12.983  21.053  0.00  0.00    +0.000 C 
ATOM     19  N   UNL     1      -1.074  13.123  19.503  0.00  0.00    +0.000 NA
ATOM     20  O   UNL     1      -1.823  12.318  18.697  0.00  0.00    +0.000 OA
ATOM     21  C   UNL     1      -1.414  11.029  18.811  0.00  0.00    +0.000 A 
ATOM     22  C   UNL     1      -2.199  10.102  17.973  0.00  0.00    +0.000 C 
ENDBRANCH  14  16
BRANCH   1  24
ATOM     23  C   UNL     1      -0.576  10.029  23.351  0.00  0.00    +0.000 C 
ATOM     24  O   UNL     1      -0.994   9.461  22.105  0.00  0.00    +0.000 OA
ENDBRANCH   1  24
BRANCH  12  25
ATOM     25  C   UNL     1       3.651   5.203  19.902  0.00  0.00    +0.000 C 
BRANCH  25  26
ATOM     26  C   UNL     1       2.740   4.013  19.690  0.00  0.00    +0.000 A 
ATOM     27  C   UNL     1       1.417   4.036  20.152  0.00  0.00    +0.000 A 
ATOM     28  C   UNL     1       0.533   3.001  19.833  0.00  0.00    +0.000 A 
ATOM     29  C   UNL     1       0.965   1.926  19.059  0.00  0.00    +0.000 A 
ATOM     30  C   UNL     1       2.288   1.870  18.627  0.00  0.00    +0.000 A 
ATOM     31  C   UNL     1       3.170   2.905  18.943  0.00  0.00    +0.000 A 
ENDBRANCH  25  26
ENDBRANCH  12  25
TORSDOF 4
ENDMDL
MODEL 3
REMARK VINA RESULT:      -6.8      6.421      9.362
REMARK  Name = 
REMARK  7 active torsions:
REMARK  status: ('A' for Active; 'I' for Inactive)
REMARK    1  A    between atoms: C_1  and  O_2
REMARK    2  A    between atoms: O_2  and  C_3
REMARK    3  A    between atoms: N_14  and  C_15
REMARK    4  A    between atoms: C_15  and  C_16
REMARK    5  A    between atoms: C_23  and  C_24
REMARK    6  A    between atoms: C_25  and  C_26
REMARK    7  A    between atoms: C_29  and  C_30
REMARK                            x       y       z     vdW  Elec       q    Type
REMARK                         _______ _______ _______ _____ _____    ______ ____
ROOT
ATOM      1  C   UNL     1      -3.523  15.442  22.511  0.00  0.00    +0.000 A 
ATOM      2  C   UNL     1      -2.393  16.155  22.134  0.00  0.00    +0.000 A 
ATOM      3  N   UNL     1      -1.502  15.730  21.223  0.00  0.00    +0.000 NA
ATOM      4  C   UNL     1      -1.717  14.532  20.648  0.00  0.00    +0.000 A 
ATOM      5  C   UNL     1      -2.843  13.708  20.934  0.00  0.00    +0.000 A 
ATOM      6  N   UNL     1      -3.013  12.501  20.314  0.00  0.00    +0.000 NA
ATOM      7  C   UNL     1      -2.065  12.004  19.494  0.00  0.00    +0.000 A 
ATOM      8  C   UNL     1      -0.945  12.732  19.221  0.00  0.00    +0.000 A 
ATOM      9  N   UNL     1       0.164  12.417  18.460  0.00  0.00    +0.000 N 
ATOM     10  C   UNL     1       1.050  13.494  18.490  0.00  0.00    +0.000 A 
ATOM     11  O   UNL     1       2.134  13.529  17.936  0.00  0.00    +0.000 OA
ATOM     12  N   UNL     1       0.451  14.484  19.290  0.00  0.00    +0.000 N 
ATOM     13  C   UNL     1      -0.789  13.994  19.770  0.00  0.00    +0.000 A 
ATOM     14  C   UNL     1      -3.761  14.182  21.909  0.00  0.00    +0.000 A 
ATOM     15  H   UNL     1       0.358  11.556  17.966  0.00  0.00    +0.000 HD
ENDROOT
BRANCH  14  16
ATOM     16  C   UNL     1      -4.930  13.343  22.291  0.00  0.00    +0.000 A 
ATOM     17  C   UNL     1      -6.171  13.049  21.613  0.00  0.00    +0.000 A 
ATOM     18  C   UNL     1      -6.708  13.447  20.287  0.00  0.00    +0.000 C 
ATOM     19  N   UNL     1      -6.963  12.263  22.354  0.00  0.00    +0.000 NA
ATOM     20  O   UNL     1      -6.284  12.027  23.513  0.00  0.00    +0.000 OA
ATOM     21  C   UNL     1      -5.088  12.667  23.493  0.00  0.00    +0.000 A 
ATOM     22  C   UNL     1      -4.309  12.463  24.731  0.00  0.00    +0.000 C 
ENDBRANCH  14  16
BRANCH   1  24
ATOM     23  C   UNL     1      -3.683  16.220  24.737  0.00  0.00    +0.000 C 
ATOM     24  O   UNL     1      -4.342  15.910  23.505  0.00  0.00    +0.000 OA
ENDBRANCH   1  24
BRANCH  12  25
ATOM     25  C   UNL     1       1.058  15.758  19.583  0.00  0.00    +0.000 C 
BRANCH  25  26
ATOM     26  C   UNL     1       0.881  16.800  18.500  0.00  0.00    +0.000 A 
ATOM     27  C   UNL     1       1.961  17.180  17.691  0.00  0.00    +0.000 A 
ATOM     28  C   UNL     1       1.769  18.033  16.601  0.00  0.00    +0.000 A 
ATOM     29  C   UNL     1       0.498  18.525  16.313  0.00  0.00    +0.000 A 
ATOM     30  C   UNL     1      -0.577  18.189  17.132  0.00  0.00    +0.000 A 
ATOM     31  C   UNL     1      -0.387  17.335  18.220  0.00  0.00    +0.000 A 
ENDBRANCH  25  26
ENDBRANCH  12  25
TORSDOF 4
ENDMDL
MODEL 4
REMARK VINA RESULT:      -6.7      1.976      8.013
REMARK  Name = 
REMARK  7 active torsions:
REMARK  status: ('A' for Active; 'I' for Inactive)
REMARK    1  A    between atoms: C_1  and  O_2
REMARK    2  A    between atoms: O_2  and  C_3
REMARK    3  A    between atoms: N_14  and  C_15
REMARK    4  A    between atoms: C_15  and  C_16
REMARK    5  A    between atoms: C_23  and  C_24
REMARK    6  A    between atoms: C_25  and  C_26
REMARK    7  A    between atoms: C_29  and  C_30
REMARK                            x       y       z     vdW  Elec       q    Type
REMARK                         _______ _______ _______ _____ _____    ______ ____
ROOT
ATOM      1  C   UNL     1       3.601   7.076  17.455  0.00  0.00    +0.000 A 
ATOM      2  C   UNL     1       3.154   8.360  17.179  0.00  0.00    +0.000 A 
ATOM      3  N   UNL     1       2.354   9.072  17.990  0.00  0.00    +0.000 NA
ATOM      4  C   UNL     1       1.954   8.495  19.139  0.00  0.00    +0.000 A 
ATOM      5  C   UNL     1       2.351   7.190  19.548  0.00  0.00    +0.000 A 
ATOM      6  N   UNL     1       1.917   6.657  20.731  0.00  0.00    +0.000 NA
ATOM      7  C   UNL     1       1.015   7.306  21.494  0.00  0.00    +0.000 A 
ATOM      8  C   UNL     1       0.566   8.539  21.125  0.00  0.00    +0.000 A 
ATOM      9  N   UNL     1      -0.375   9.363  21.713  0.00  0.00    +0.000 N 
ATOM     10  C   UNL     1      -0.489  10.527  20.953  0.00  0.00    +0.000 A 
ATOM     11  O   UNL     1      -1.250  11.449  21.190  0.00  0.00    +0.000 OA
ATOM     12  N   UNL     1       0.412  10.397  19.881  0.00  0.00    +0.000 N 
ATOM     13  C   UNL     1       1.055   9.138  19.975  0.00  0.00    +0.000 A 
ATOM     14  C   UNL     1       3.190   6.461  18.664  0.00  0.00    +0.000 A 
ATOM     15  H   UNL     1      -0.929   9.186  22.540  0.00  0.00    +0.000 HD
ENDROOT
BRANCH  14  16
ATOM     16  C   UNL     1       3.596   5.071  19.010  0.00  0.00    +0.000 A 
ATOM     17  C   UNL     1       4.878   4.492  19.336  0.00  0.00    +0.000 A 
ATOM     18  C   UNL     1       6.236   5.076  19.473  0.00  0.00    +0.000 C 
ATOM     19  N   UNL     1       4.784   3.173  19.546  0.00  0.00    +0.000 NA
ATOM     20  O   UNL     1       3.470   2.854  19.367  0.00  0.00    +0.000 OA
ATOM     21  C   UNL     1       2.760   3.963  19.039  0.00  0.00    +0.000 A 
ATOM     22  C   UNL     1       1.328   3.681  18.815  0.00  0.00    +0.000 C 
ENDBRANCH  14  16
BRANCH   1  24
ATOM     23  C   UNL     1       5.719   6.804  16.442  0.00  0.00    +0.000 C 
ATOM     24  O   UNL     1       4.353   6.388  16.540  0.00  0.00    +0.000 OA
ENDBRANCH   1  24
BRANCH  12  25
ATOM     25  C   UNL     1       0.587  11.391  18.852  0.00  0.00    +0.000 C 
BRANCH  25  26
ATOM     26  C   UNL     1       1.675  12.404  19.138  0.00  0.00    +0.000 A 
ATOM     27  C   UNL     1       2.447  12.935  18.096  0.00  0.00    +0.000 A 
ATOM     28  C   UNL     1       3.352  13.973  18.337  0.00  0.00    +0.000 A 
ATOM     29  C   UNL     1       3.504  14.482  19.624  0.00  0.00    +0.000 A 
ATOM     30  C   UNL     1       2.773  13.936  20.677  0.00  0.00    +0.000 A 
ATOM     31  C   UNL     1       1.868  12.902  20.437  0.00  0.00    +0.000 A 
ENDBRANCH  25  26
ENDBRANCH  12  25
TORSDOF 4
ENDMDL
MODEL 5
REMARK VINA RESULT:      -6.7      1.975      7.894
REMARK  Name = 
REMARK  7 active torsions:
REMARK  status: ('A' for Active; 'I' for Inactive)
REMARK    1  A    between atoms: C_1  and  O_2
REMARK    2  A    between atoms: O_2  and  C_3
REMARK    3  A    between atoms: N_14  and  C_15
REMARK    4  A    between atoms: C_15  and  C_16
REMARK    5  A    between atoms: C_23  and  C_24
REMARK    6  A    between atoms: C_25  and  C_26
REMARK    7  A    between atoms: C_29  and  C_30
REMARK                            x       y       z     vdW  Elec       q    Type
REMARK                         _______ _______ _______ _____ _____    ______ ____
ROOT
ATOM      1  C   UNL     1       3.437   6.994  17.532  0.00  0.00    +0.000 A 
ATOM      2  C   UNL     1       3.043   8.290  17.230  0.00  0.00    +0.000 A 
ATOM      3  N   UNL     1       2.279   9.052  18.030  0.00  0.00    +0.000 NA
ATOM      4  C   UNL     1       1.862   8.518  19.193  0.00  0.00    +0.000 A 
ATOM      5  C   UNL     1       2.208   7.206  19.629  0.00  0.00    +0.000 A 
ATOM      6  N   UNL     1       1.760   6.717  20.826  0.00  0.00    +0.000 NA
ATOM      7  C   UNL     1       0.890   7.420  21.579  0.00  0.00    +0.000 A 
ATOM      8  C   UNL     1       0.491   8.662  21.185  0.00  0.00    +0.000 A 
ATOM      9  N   UNL     1      -0.411   9.537  21.761  0.00  0.00    +0.000 N 
ATOM     10  C   UNL     1      -0.482  10.688  20.976  0.00  0.00    +0.000 A 
ATOM     11  O   UNL     1      -1.202  11.646  21.196  0.00  0.00    +0.000 OA
ATOM     12  N   UNL     1       0.406  10.498  19.902  0.00  0.00    +0.000 N 
ATOM     13  C   UNL     1       0.996   9.215  20.020  0.00  0.00    +0.000 A 
ATOM     14  C   UNL     1       3.009   6.423  18.756  0.00  0.00    +0.000 A 
ATOM     15  H   UNL     1      -0.967   9.401  22.595  0.00  0.00    +0.000 HD
ENDROOT
BRANCH  14  16
ATOM     16  C   UNL     1       3.359   5.026  19.130  0.00  0.00    +0.000 A 
ATOM     17  C   UNL     1       2.547   3.853  19.355  0.00  0.00    +0.000 A 
ATOM     18  C   UNL     1       1.085   3.614  19.262  0.00  0.00    +0.000 C 
ATOM     19  N   UNL     1       3.291   2.800  19.716  0.00  0.00    +0.000 NA
ATOM     20  O   UNL     1       4.582   3.239  19.740  0.00  0.00    +0.000 OA
ATOM     21  C   UNL     1       4.635   4.553  19.407  0.00  0.00    +0.000 A 
ATOM     22  C   UNL     1       6.009   5.095  19.431  0.00  0.00    +0.000 C 
ENDBRANCH  14  16
BRANCH   1  24
ATOM     23  C   UNL     1       5.463   6.756  16.337  0.00  0.00    +0.000 C 
ATOM     24  O   UNL     1       4.154   6.256  16.627  0.00  0.00    +0.000 OA
ENDBRANCH   1  24
BRANCH  12  25
ATOM     25  C   UNL     1       0.615  11.461  18.850  0.00  0.00    +0.000 C 
BRANCH  25  26
ATOM     26  C   UNL     1       1.721  12.457  19.124  0.00  0.00    +0.000 A 
ATOM     27  C   UNL     1       2.523  12.938  18.080  0.00  0.00    +0.000 A 
ATOM     28  C   UNL     1       3.447  13.962  18.305  0.00  0.00    +0.000 A 
ATOM     29  C   UNL     1       3.590  14.508  19.579  0.00  0.00    +0.000 A 
ATOM     30  C   UNL     1       2.829  14.011  20.635  0.00  0.00    +0.000 A 
ATOM     31  C   UNL     1       1.904  12.990  20.410  0.00  0.00    +0.000 A 
ENDBRANCH  25  26
ENDBRANCH  12  25
TORSDOF 4
ENDMDL
MODEL 6
REMARK VINA RESULT:      -6.7      1.644      1.950
REMARK  Name = 
REMARK  7 active torsions:
REMARK  status: ('A' for Active; 'I' for Inactive)
REMARK    1  A    between atoms: C_1  and  O_2
REMARK    2  A    between atoms: O_2  and  C_3
REMARK    3  A    between atoms: N_14  and  C_15
REMARK    4  A    between atoms: C_15  and  C_16
REMARK    5  A    between atoms: C_23  and  C_24
REMARK    6  A    between atoms: C_25  and  C_26
REMARK    7  A    between atoms: C_29  and  C_30
REMARK                            x       y       z     vdW  Elec       q    Type
REMARK                         _______ _______ _______ _____ _____    ______ ____
ROOT
ATOM      1  C   UNL     1       0.107  10.701  22.282  0.00  0.00    +0.000 A 
ATOM      2  C   UNL     1       0.458   9.389  22.562  0.00  0.00    +0.000 A 
ATOM      3  N   UNL     1       1.071   8.568  21.693  0.00  0.00    +0.000 NA
ATOM      4  C   UNL     1       1.352   9.051  20.468  0.00  0.00    +0.000 A 
ATOM      5  C   UNL     1       1.059  10.383  20.057  0.00  0.00    +0.000 A 
ATOM      6  N   UNL     1       1.374  10.821  18.800  0.00  0.00    +0.000 NA
ATOM      7  C   UNL     1       1.872   9.975  17.876  0.00  0.00    +0.000 A 
ATOM      8  C   UNL     1       2.129   8.677  18.204  0.00  0.00    +0.000 A 
ATOM      9  N   UNL     1       2.591   7.632  17.426  0.00  0.00    +0.000 N 
ATOM     10  C   UNL     1       2.687   6.490  18.221  0.00  0.00    +0.000 A 
ATOM     11  O   UNL     1       3.043   5.391  17.834  0.00  0.00    +0.000 OA
ATOM     12  N   UNL     1       2.273   6.864  19.513  0.00  0.00    +0.000 N 
ATOM     13  C   UNL     1       1.899   8.230  19.495  0.00  0.00    +0.000 A 
ATOM     14  C   UNL     1       0.403  11.222  20.997  0.00  0.00    +0.000 A 
ATOM     15  H   UNL     1       2.812   7.639  16.440  0.00  0.00    +0.000 HD
ENDROOT
BRANCH  14  16
ATOM     16  C   UNL     1       0.022  12.607  20.610  0.00  0.00    +0.000 A 
ATOM     17  C   UNL     1      -1.210  13.164  20.099  0.00  0.00    +0.000 A 
ATOM     18  C   UNL     1      -2.536  12.564  19.810  0.00  0.00    +0.000 C 
ATOM     19  N   UNL     1      -1.092  14.474  19.849  0.00  0.00    +0.000 NA
ATOM     20  O   UNL     1       0.189  14.808  20.179  0.00  0.00    +0.000 OA
ATOM     21  C   UNL     1       0.860  13.714  20.618  0.00  0.00    +0.000 A 
ATOM     22  C   UNL     1       2.262  14.007  20.976  0.00  0.00    +0.000 C 
ENDBRANCH  14  16
BRANCH   1  24
ATOM     23  C   UNL     1      -1.992  11.190  23.252  0.00  0.00    +0.000 C 
ATOM     24  O   UNL     1      -0.585  11.448  23.198  0.00  0.00    +0.000 OA
ENDBRANCH   1  24
BRANCH  12  25
ATOM     25  C   UNL     1       2.214   5.958  20.633  0.00  0.00    +0.000 C 
BRANCH  25  26
ATOM     26  C   UNL     1       2.059   4.502  20.252  0.00  0.00    +0.000 A 
ATOM     27  C   UNL     1       0.815   3.999  19.846  0.00  0.00    +0.000 A 
ATOM     28  C   UNL     1       0.699   2.694  19.358  0.00  0.00    +0.000 A 
ATOM     29  C   UNL     1       1.822   1.873  19.281  0.00  0.00    +0.000 A 
ATOM     30  C   UNL     1       3.057   2.346  19.720  0.00  0.00    +0.000 A 
ATOM     31  C   UNL     1       3.174   3.649  20.205  0.00  0.00    +0.000 A 
ENDBRANCH  25  26
ENDBRANCH  12  25
TORSDOF 4
ENDMDL
MODEL 7
REMARK VINA RESULT:      -6.7      1.667      2.453
REMARK  Name = 
REMARK  7 active torsions:
REMARK  status: ('A' for Active; 'I' for Inactive)
REMARK    1  A    between atoms: C_1  and  O_2
REMARK    2  A    between atoms: O_2  and  C_3
REMARK    3  A    between atoms: N_14  and  C_15
REMARK    4  A    between atoms: C_15  and  C_16
REMARK    5  A    between atoms: C_23  and  C_24
REMARK    6  A    between atoms: C_25  and  C_26
REMARK    7  A    between atoms: C_29  and  C_30
REMARK                            x       y       z     vdW  Elec       q    Type
REMARK                         _______ _______ _______ _____ _____    ______ ____
ROOT
ATOM      1  C   UNL     1       0.050  10.812  22.288  0.00  0.00    +0.000 A 
ATOM      2  C   UNL     1       0.393   9.501  22.585  0.00  0.00    +0.000 A 
ATOM      3  N   UNL     1       1.007   8.669  21.728  0.00  0.00    +0.000 NA
ATOM      4  C   UNL     1       1.298   9.137  20.500  0.00  0.00    +0.000 A 
ATOM      5  C   UNL     1       1.014  10.466  20.073  0.00  0.00    +0.000 A 
ATOM      6  N   UNL     1       1.338  10.889  18.813  0.00  0.00    +0.000 NA
ATOM      7  C   UNL     1       1.838  10.031  17.901  0.00  0.00    +0.000 A 
ATOM      8  C   UNL     1       2.086   8.735  18.245  0.00  0.00    +0.000 A 
ATOM      9  N   UNL     1       2.548   7.679  17.481  0.00  0.00    +0.000 N 
ATOM     10  C   UNL     1       2.633   6.545  18.289  0.00  0.00    +0.000 A 
ATOM     11  O   UNL     1       2.986   5.440  17.916  0.00  0.00    +0.000 OA
ATOM     12  N   UNL     1       2.214   6.935  19.574  0.00  0.00    +0.000 N 
ATOM     13  C   UNL     1       1.846   8.303  19.539  0.00  0.00    +0.000 A 
ATOM     14  C   UNL     1       0.356  11.318  21.000  0.00  0.00    +0.000 A 
ATOM     15  H   UNL     1       2.775   7.674  16.496  0.00  0.00    +0.000 HD
ENDROOT
BRANCH  14  16
ATOM     16  C   UNL     1      -0.016  12.701  20.595  0.00  0.00    +0.000 A 
ATOM     17  C   UNL     1       0.686  13.959  20.696  0.00  0.00    +0.000 A 
ATOM     18  C   UNL     1       2.033  14.316  21.207  0.00  0.00    +0.000 C 
ATOM     19  N   UNL     1      -0.054  14.975  20.232  0.00  0.00    +0.000 NA
ATOM     20  O   UNL     1      -1.235  14.427  19.824  0.00  0.00    +0.000 OA
ATOM     21  C   UNL     1      -1.230  13.088  20.043  0.00  0.00    +0.000 A 
ATOM     22  C   UNL     1      -2.491  12.437  19.636  0.00  0.00    +0.000 C 
ENDBRANCH  14  16
BRANCH   1  24
ATOM     23  C   UNL     1      -2.054  11.328  23.233  0.00  0.00    +0.000 C 
ATOM     24  O   UNL     1      -0.645  11.573  23.192  0.00  0.00    +0.000 OA
ENDBRANCH   1  24
BRANCH  12  25
ATOM     25  C   UNL     1       2.144   6.042  20.703  0.00  0.00    +0.000 C 
BRANCH  25  26
ATOM     26  C   UNL     1       2.020   4.579  20.337  0.00  0.00    +0.000 A 
ATOM     27  C   UNL     1       0.792   4.051  19.912  0.00  0.00    +0.000 A 
ATOM     28  C   UNL     1       0.707   2.739  19.437  0.00  0.00    +0.000 A 
ATOM     29  C   UNL     1       1.844   1.936  19.393  0.00  0.00    +0.000 A 
ATOM     30  C   UNL     1       3.063   2.434  19.849  0.00  0.00    +0.000 A 
ATOM     31  C   UNL     1       3.149   3.744  20.321  0.00  0.00    +0.000 A 
ENDBRANCH  25  26
ENDBRANCH  12  25
TORSDOF 4
ENDMDL
MODEL 8
REMARK VINA RESULT:      -6.6      3.620      6.705
REMARK  Name = 
REMARK  7 active torsions:
REMARK  status: ('A' for Active; 'I' for Inactive)
REMARK    1  A    between atoms: C_1  and  O_2
REMARK    2  A    between atoms: O_2  and  C_3
REMARK    3  A    between atoms: N_14  and  C_15
REMARK    4  A    between atoms: C_15  and  C_16
REMARK    5  A    between atoms: C_23  and  C_24
REMARK    6  A    between atoms: C_25  and  C_26
REMARK    7  A    between atoms: C_29  and  C_30
REMARK                            x       y       z     vdW  Elec       q    Type
REMARK                         _______ _______ _______ _____ _____    ______ ____
ROOT
ATOM      1  C   UNL     1      -3.695  10.816  16.637  0.00  0.00    +0.000 A 
ATOM      2  C   UNL     1      -2.331  10.588  16.529  0.00  0.00    +0.000 A 
ATOM      3  N   UNL     1      -1.433  10.917  17.473  0.00  0.00    +0.000 NA
ATOM      4  C   UNL     1      -1.889  11.516  18.589  0.00  0.00    +0.000 A 
ATOM      5  C   UNL     1      -3.265  11.793  18.832  0.00  0.00    +0.000 A 
ATOM      6  N   UNL     1      -3.671  12.398  19.989  0.00  0.00    +0.000 NA
ATOM      7  C   UNL     1      -2.773  12.849  20.888  0.00  0.00    +0.000 A 
ATOM      8  C   UNL     1      -1.440  12.650  20.682  0.00  0.00    +0.000 A 
ATOM      9  N   UNL     1      -0.349  13.055  21.429  0.00  0.00    +0.000 N 
ATOM     10  C   UNL     1       0.814  12.609  20.800  0.00  0.00    +0.000 A 
ATOM     11  O   UNL     1       1.949  12.817  21.191  0.00  0.00    +0.000 OA
ATOM     12  N   UNL     1       0.406  11.915  19.646  0.00  0.00    +0.000 N 
ATOM     13  C   UNL     1      -1.007  11.964  19.559  0.00  0.00    +0.000 A 
ATOM     14  C   UNL     1      -4.187  11.441  17.810  0.00  0.00    +0.000 A 
ATOM     15  H   UNL     1      -0.343  13.602  22.279  0.00  0.00    +0.000 HD
ENDROOT
BRANCH  14  16
ATOM     16  C   UNL     1      -5.632  11.753  17.981  0.00  0.00    +0.000 A 
ATOM     17  C   UNL     1      -6.441  12.862  17.530  0.00  0.00    +0.000 A 
ATOM     18  C   UNL     1      -6.130  14.062  16.713  0.00  0.00    +0.000 C 
ATOM     19  N   UNL     1      -7.708  12.750  17.950  0.00  0.00    +0.000 NA
ATOM     20  O   UNL     1      -7.766  11.595  18.674  0.00  0.00    +0.000 OA
ATOM     21  C   UNL     1      -6.546  11.003  18.709  0.00  0.00    +0.000 A 
ATOM     22  C   UNL     1      -6.539   9.752  19.493  0.00  0.00    +0.000 C 
ENDBRANCH  14  16
BRANCH   1  24
ATOM     23  C   UNL     1      -3.884  10.222  14.357  0.00  0.00    +0.000 C 
ATOM     24  O   UNL     1      -4.535  10.520  15.596  0.00  0.00    +0.000 OA
ENDBRANCH   1  24
BRANCH  12  25
ATOM     25  C   UNL     1       1.317  11.308  18.709  0.00  0.00    +0.000 C 
BRANCH  25  26
ATOM     26  C   UNL     1       1.544   9.827  18.927  0.00  0.00    +0.000 A 
ATOM     27  C   UNL     1       2.134   9.041  17.928  0.00  0.00    +0.000 A 
ATOM     28  C   UNL     1       2.475   7.709  18.178  0.00  0.00    +0.000 A 
ATOM     29  C   UNL     1       2.220   7.144  19.425  0.00  0.00    +0.000 A 
ATOM     30  C   UNL     1       1.597   7.901  20.415  0.00  0.00    +0.000 A 
ATOM     31  C   UNL     1       1.258   9.232  20.167  0.00  0.00    +0.000 A 
ENDBRANCH  25  26
ENDBRANCH  12  25
TORSDOF 4
ENDMDL
MODEL 9
REMARK VINA RESULT:      -6.6      2.145      4.557
REMARK  Name = 
REMARK  7 active torsions:
REMARK  status: ('A' for Active; 'I' for Inactive)
REMARK    1  A    between atoms: C_1  and  O_2
REMARK    2  A    between atoms: O_2  and  C_3
REMARK    3  A    between atoms: N_14  and  C_15
REMARK    4  A    between atoms: C_15  and  C_16
REMARK    5  A    between atoms: C_23  and  C_24
REMARK    6  A    between atoms: C_25  and  C_26
REMARK    7  A    between atoms: C_29  and  C_30
REMARK                            x       y       z     vdW  Elec       q    Type
REMARK                         _______ _______ _______ _____ _____    ______ ____
ROOT
ATOM      1  C   UNL     1       1.848   9.851  18.447  0.00  0.00    +0.000 A 
ATOM      2  C   UNL     1       2.747   9.150  17.657  0.00  0.00    +0.000 A 
ATOM      3  N   UNL     1       3.068   7.859  17.843  0.00  0.00    +0.000 NA
ATOM      4  C   UNL     1       2.486   7.210  18.869  0.00  0.00    +0.000 A 
ATOM      5  C   UNL     1       1.536   7.809  19.745  0.00  0.00    +0.000 A 
ATOM      6  N   UNL     1       0.972   7.098  20.769  0.00  0.00    +0.000 NA
ATOM      7  C   UNL     1       1.377   5.842  21.046  0.00  0.00    +0.000 A 
ATOM      8  C   UNL     1       2.318   5.238  20.266  0.00  0.00    +0.000 A 
ATOM      9  N   UNL     1       2.912   3.995  20.380  0.00  0.00    +0.000 N 
ATOM     10  C   UNL     1       3.822   3.836  19.335  0.00  0.00    +0.000 A 
ATOM     11  O   UNL     1       4.528   2.858  19.160  0.00  0.00    +0.000 OA
ATOM     12  N   UNL     1       3.768   5.016  18.572  0.00  0.00    +0.000 N 
ATOM     13  C   UNL     1       2.843   5.906  19.172  0.00  0.00    +0.000 A 
ATOM     14  C   UNL     1       1.225   9.177  19.527  0.00  0.00    +0.000 A 
ATOM     15  H   UNL     1       2.763   3.296  21.095  0.00  0.00    +0.000 HD
ENDROOT
BRANCH  14  16
ATOM     16  C   UNL     1       0.280   9.874  20.442  0.00  0.00    +0.000 A 
ATOM     17  C   UNL     1       0.248  10.007  21.880  0.00  0.00    +0.000 A 
ATOM     18  C   UNL     1       1.157   9.528  22.951  0.00  0.00    +0.000 C 
ATOM     19  N   UNL     1      -0.822  10.701  22.286  0.00  0.00    +0.000 NA
ATOM     20  O   UNL     1      -1.509  11.035  21.156  0.00  0.00    +0.000 OA
ATOM     21  C   UNL     1      -0.875  10.543  20.062  0.00  0.00    +0.000 A 
ATOM     22  C   UNL     1      -1.580  10.857  18.803  0.00  0.00    +0.000 C 
ENDBRANCH  14  16
BRANCH   1  24
ATOM     23  C   UNL     1       2.810  11.958  17.973  0.00  0.00    +0.000 C 
ATOM     24  O   UNL     1       1.633  11.188  18.239  0.00  0.00    +0.000 OA
ENDBRANCH   1  24
BRANCH  12  25
ATOM     25  C   UNL     1       4.576   5.255  17.402  0.00  0.00    +0.000 C 
BRANCH  25  26
ATOM     26  C   UNL     1       5.910   5.911  17.685  0.00  0.00    +0.000 A 
ATOM     27  C   UNL     1       6.291   7.077  17.008  0.00  0.00    +0.000 A 
ATOM     28  C   UNL     1       7.454   7.763  17.368  0.00  0.00    +0.000 A 
ATOM     29  C   UNL     1       8.256   7.285  18.401  0.00  0.00    +0.000 A 
ATOM     30  C   UNL     1       7.912   6.105  19.057  0.00  0.00    +0.000 A 
ATOM     31  C   UNL     1       6.749   5.420  18.699  0.00  0.00    +0.000 A 
ENDBRANCH  25  26
ENDBRANCH  12  25
TORSDOF 4
ENDMDL
