MODEL 1
REMARK VINA RESULT:      -8.2      0.000      0.000
REMARK  Name = 
REMARK  2 active torsions:
REMARK  status: ('A' for Active; 'I' for Inactive)
REMARK    1  A    between atoms: C_2  and  C_3
REMARK    2  A    between atoms: C_6  and  N_7
REMARK                            x       y       z     vdW  Elec       q    Type
REMARK                         _______ _______ _______ _____ _____    ______ ____
ROOT
ATOM      1  N   UNL     1       0.808   9.486  19.644  0.00  0.00    +0.000 N 
ATOM      2  C   UNL     1       1.236   8.513  20.525  0.00  0.00    +0.000 C 
ATOM      3  O   UNL     1       0.955   8.494  21.721  0.00  0.00    +0.000 OA
ATOM      4  N   UNL     1       1.966   7.477  19.958  0.00  0.00    +0.000 N 
ATOM      5  C   UNL     1       2.277   6.317  20.790  0.00  0.00    +0.000 C 
ATOM      6  C   UNL     1       1.981   5.028  20.025  0.00  0.00    +0.000 C 
ATOM      7  C   UNL     1       2.733   4.981  18.680  0.00  0.00    +0.000 C 
ATOM      8  C   UNL     1       2.317   3.716  17.916  0.00  0.00    +0.000 C 
ATOM      9  C   UNL     1       3.105   3.586  16.618  0.00  0.00    +0.000 C 
ATOM     10  C   UNL     1       4.546   3.965  16.810  0.00  0.00    +0.000 A 
ATOM     11  C   UNL     1       5.463   3.740  15.774  0.00  0.00    +0.000 A 
ATOM     12  C   UNL     1       6.804   4.096  15.923  0.00  0.00    +0.000 A 
ATOM     13  C   UNL     1       7.245   4.669  17.115  0.00  0.00    +0.000 A 
ATOM     14  C   UNL     1       6.339   4.908  18.148  0.00  0.00    +0.000 A 
ATOM     15 CL   UNL     1       6.923   5.642  19.598  0.00  0.00    +0.000 Cl
ATOM     16  C   UNL     1       4.985   4.584  17.988  0.00  0.00    +0.000 A 
ATOM     17  O   UNL     1       4.132   4.905  19.011  0.00  0.00    +0.000 OA
ATOM     18  C   UNL     1       2.438   6.279  17.883  0.00  0.00    +0.000 C 
ATOM     19  C   UNL     1       2.718   7.529  18.709  0.00  0.00    +0.000 C 
ATOM     20  H   UNL     1       0.830   9.244  18.666  0.00  0.00    +0.000 HD
ENDROOT
BRANCH   1  24
ATOM     21  C   UNL     1      -1.535  12.870  20.644  0.00  0.00    +0.000 A 
ATOM     22  C   UNL     1      -0.313  12.663  21.278  0.00  0.00    +0.000 A 
ATOM     23  C   UNL     1       0.474  11.555  20.945  0.00  0.00    +0.000 A 
ATOM     24  C   UNL     1       0.050  10.630  19.987  0.00  0.00    +0.000 A 
ATOM     25  C   UNL     1      -1.172  10.848  19.339  0.00  0.00    +0.000 A 
ATOM     26  C   UNL     1      -1.963  11.960  19.670  0.00  0.00    +0.000 A 
BRANCH  21  28
ATOM     27  N   UNL     1      -2.981  14.935  21.258  0.00  0.00    +0.000 NA
ATOM     28  C   UNL     1      -2.337  14.010  20.987  0.00  0.00    +0.000 C 
ENDBRANCH  21  28
ENDBRANCH   1  24
TORSDOF 2
ENDMDL
MODEL 2
REMARK VINA RESULT:      -7.0      3.910     10.623
REMARK  Name = 
REMARK  2 active torsions:
REMARK  status: ('A' for Active; 'I' for Inactive)
REMARK    1  A    between atoms: C_2  and  C_3
REMARK    2  A    between atoms: C_6  and  N_7
REMARK                            x       y       z     vdW  Elec       q    Type
REMARK                         _______ _______ _______ _____ _____    ______ ____
ROOT
ATOM      1  N   UNL     1       0.765   9.736  20.219  0.00  0.00    +0.000 N 
ATOM      2  C   UNL     1       0.034  10.714  19.575  0.00  0.00    +0.000 C 
ATOM      3  O   UNL     1      -0.097  10.785  18.355  0.00  0.00    +0.000 OA
ATOM      4  N   UNL     1      -0.632  11.604  20.407  0.00  0.00    +0.000 N 
ATOM      5  C   UNL     1      -1.580  12.536  19.800  0.00  0.00    +0.000 C 
ATOM      6  C   UNL     1      -2.880  12.557  20.604  0.00  0.00    +0.000 C 
ATOM      7  C   UNL     1      -2.624  12.890  22.087  0.00  0.00    +0.000 C 
ATOM      8  C   UNL     1      -3.949  12.797  22.859  0.00  0.00    +0.000 C 
ATOM      9  C   UNL     1      -3.756  13.204  24.314  0.00  0.00    +0.000 C 
ATOM     10  C   UNL     1      -2.845  14.393  24.435  0.00  0.00    +0.000 A 
ATOM     11  C   UNL     1      -2.690  15.021  25.679  0.00  0.00    +0.000 A 
ATOM     12  C   UNL     1      -1.838  16.116  25.820  0.00  0.00    +0.000 A 
ATOM     13  C   UNL     1      -1.142  16.605  24.715  0.00  0.00    +0.000 A 
ATOM     14  C   UNL     1      -1.280  15.982  23.475  0.00  0.00    +0.000 A 
ATOM     15 CL   UNL     1      -0.380  16.605  22.138  0.00  0.00    +0.000 Cl
ATOM     16  C   UNL     1      -2.106  14.859  23.338  0.00  0.00    +0.000 A 
ATOM     17  O   UNL     1      -2.149  14.248  22.112  0.00  0.00    +0.000 OA
ATOM     18  C   UNL     1      -1.544  11.930  22.648  0.00  0.00    +0.000 C 
ATOM     19  C   UNL     1      -0.286  11.925  21.787  0.00  0.00    +0.000 C 
ATOM     20  H   UNL     1       0.555   9.590  21.194  0.00  0.00    +0.000 HD
ENDROOT
BRANCH   1  24
ATOM     21  C   UNL     1       2.988   6.638  18.375  0.00  0.00    +0.000 A 
ATOM     22  C   UNL     1       2.741   7.819  17.681  0.00  0.00    +0.000 A 
ATOM     23  C   UNL     1       2.018   8.853  18.287  0.00  0.00    +0.000 A 
ATOM     24  C   UNL     1       1.521   8.722  19.585  0.00  0.00    +0.000 A 
ATOM     25  C   UNL     1       1.785   7.540  20.288  0.00  0.00    +0.000 A 
ATOM     26  C   UNL     1       2.511   6.500  19.683  0.00  0.00    +0.000 A 
BRANCH  21  28
ATOM     27  N   UNL     1       4.338   4.734  17.242  0.00  0.00    +0.000 NA
ATOM     28  C   UNL     1       3.733   5.581  17.750  0.00  0.00    +0.000 C 
ENDBRANCH  21  28
ENDBRANCH   1  24
TORSDOF 2
ENDMDL
MODEL 3
REMARK VINA RESULT:      -6.8      3.746     10.455
REMARK  Name = 
REMARK  2 active torsions:
REMARK  status: ('A' for Active; 'I' for Inactive)
REMARK    1  A    between atoms: C_2  and  C_3
REMARK    2  A    between atoms: C_6  and  N_7
REMARK                            x       y       z     vdW  Elec       q    Type
REMARK                         _______ _______ _______ _____ _____    ______ ____
ROOT
ATOM      1  N   UNL     1       0.903   9.223  20.456  0.00  0.00    +0.000 N 
ATOM      2  C   UNL     1       0.356  10.279  19.754  0.00  0.00    +0.000 C 
ATOM      3  O   UNL     1       0.375  10.375  18.529  0.00  0.00    +0.000 OA
ATOM      4  N   UNL     1      -0.308  11.224  20.524  0.00  0.00    +0.000 N 
ATOM      5  C   UNL     1      -1.079  12.256  19.833  0.00  0.00    +0.000 C 
ATOM      6  C   UNL     1      -2.455  12.405  20.482  0.00  0.00    +0.000 C 
ATOM      7  C   UNL     1      -2.341  12.694  21.993  0.00  0.00    +0.000 C 
ATOM      8  C   UNL     1      -3.749  12.732  22.605  0.00  0.00    +0.000 C 
ATOM      9  C   UNL     1      -3.686  13.102  24.081  0.00  0.00    +0.000 C 
ATOM     10  C   UNL     1      -2.678  14.188  24.332  0.00  0.00    +0.000 A 
ATOM     11  C   UNL     1      -2.606  14.783  25.599  0.00  0.00    +0.000 A 
ATOM     12  C   UNL     1      -1.668  15.783  25.861  0.00  0.00    +0.000 A 
ATOM     13  C   UNL     1      -0.802  16.208  24.854  0.00  0.00    +0.000 A 
ATOM     14  C   UNL     1      -0.858  15.615  23.594  0.00  0.00    +0.000 A 
ATOM     15 CL   UNL     1       0.251  16.154  22.383  0.00  0.00    +0.000 Cl
ATOM     16  C   UNL     1      -1.773  14.585  23.338  0.00  0.00    +0.000 A 
ATOM     17  O   UNL     1      -1.735  13.995  22.102  0.00  0.00    +0.000 OA
ATOM     18  C   UNL     1      -1.436  11.621  22.653  0.00  0.00    +0.000 C 
ATOM     19  C   UNL     1      -0.094  11.494  21.941  0.00  0.00    +0.000 C 
ATOM     20  H   UNL     1       0.567   9.090  21.397  0.00  0.00    +0.000 HD
ENDROOT
BRANCH   1  24
ATOM     21  C   UNL     1       3.097   6.046  18.716  0.00  0.00    +0.000 A 
ATOM     22  C   UNL     1       2.498   5.872  19.961  0.00  0.00    +0.000 A 
ATOM     23  C   UNL     1       1.761   6.913  20.538  0.00  0.00    +0.000 A 
ATOM     24  C   UNL     1       1.620   8.142  19.891  0.00  0.00    +0.000 A 
ATOM     25  C   UNL     1       2.209   8.309  18.632  0.00  0.00    +0.000 A 
ATOM     26  C   UNL     1       2.949   7.267  18.050  0.00  0.00    +0.000 A 
BRANCH  21  28
ATOM     27  N   UNL     1       4.457   4.106  17.659  0.00  0.00    +0.000 NA
ATOM     28  C   UNL     1       3.850   4.975  18.127  0.00  0.00    +0.000 C 
ENDBRANCH  21  28
ENDBRANCH   1  24
TORSDOF 2
ENDMDL
MODEL 4
REMARK VINA RESULT:      -6.8      3.839      9.984
REMARK  Name = 
REMARK  2 active torsions:
REMARK  status: ('A' for Active; 'I' for Inactive)
REMARK    1  A    between atoms: C_2  and  C_3
REMARK    2  A    between atoms: C_6  and  N_7
REMARK                            x       y       z     vdW  Elec       q    Type
REMARK                         _______ _______ _______ _____ _____    ______ ____
ROOT
ATOM      1  N   UNL     1       1.149   8.488  18.619  0.00  0.00    +0.000 N 
ATOM      2  C   UNL     1       1.131   9.856  18.436  0.00  0.00    +0.000 C 
ATOM      3  O   UNL     1       2.118  10.523  18.134  0.00  0.00    +0.000 OA
ATOM      4  N   UNL     1      -0.118  10.453  18.539  0.00  0.00    +0.000 N 
ATOM      5  C   UNL     1      -0.242  11.859  18.160  0.00  0.00    +0.000 C 
ATOM      6  C   UNL     1      -1.466  12.055  17.266  0.00  0.00    +0.000 C 
ATOM      7  C   UNL     1      -2.750  11.530  17.940  0.00  0.00    +0.000 C 
ATOM      8  C   UNL     1      -3.923  11.661  16.957  0.00  0.00    +0.000 C 
ATOM      9  C   UNL     1      -5.229  11.235  17.615  0.00  0.00    +0.000 C 
ATOM     10  C   UNL     1      -5.317  11.730  19.032  0.00  0.00    +0.000 A 
ATOM     11  C   UNL     1      -6.519  11.589  19.739  0.00  0.00    +0.000 A 
ATOM     12  C   UNL     1      -6.621  12.027  21.060  0.00  0.00    +0.000 A 
ATOM     13  C   UNL     1      -5.525  12.623  21.684  0.00  0.00    +0.000 A 
ATOM     14  C   UNL     1      -4.321  12.757  20.993  0.00  0.00    +0.000 A 
ATOM     15 CL   UNL     1      -2.982  13.479  21.812  0.00  0.00    +0.000 Cl
ATOM     16  C   UNL     1      -4.205  12.286  19.679  0.00  0.00    +0.000 A 
ATOM     17  O   UNL     1      -2.979  12.385  19.076  0.00  0.00    +0.000 OA
ATOM     18  C   UNL     1      -2.525  10.067  18.403  0.00  0.00    +0.000 C 
ATOM     19  C   UNL     1      -1.272   9.929  19.260  0.00  0.00    +0.000 C 
ATOM     20  H   UNL     1       0.261   8.016  18.554  0.00  0.00    +0.000 HD
ENDROOT
BRANCH   1  24
ATOM     21  C   UNL     1       4.545   5.961  18.488  0.00  0.00    +0.000 A 
ATOM     22  C   UNL     1       4.346   6.904  17.484  0.00  0.00    +0.000 A 
ATOM     23  C   UNL     1       3.233   7.751  17.526  0.00  0.00    +0.000 A 
ATOM     24  C   UNL     1       2.298   7.664  18.559  0.00  0.00    +0.000 A 
ATOM     25  C   UNL     1       2.509   6.726  19.577  0.00  0.00    +0.000 A 
ATOM     26  C   UNL     1       3.625   5.874  19.539  0.00  0.00    +0.000 A 
BRANCH  21  28
ATOM     27  N   UNL     1       6.618   4.402  18.403  0.00  0.00    +0.000 NA
ATOM     28  C   UNL     1       5.690   5.095  18.443  0.00  0.00    +0.000 C 
ENDBRANCH  21  28
ENDBRANCH   1  24
TORSDOF 2
ENDMDL
MODEL 5
REMARK VINA RESULT:      -6.7      4.059     11.047
REMARK  Name = 
REMARK  2 active torsions:
REMARK  status: ('A' for Active; 'I' for Inactive)
REMARK    1  A    between atoms: C_2  and  C_3
REMARK    2  A    between atoms: C_6  and  N_7
REMARK                            x       y       z     vdW  Elec       q    Type
REMARK                         _______ _______ _______ _____ _____    ______ ____
ROOT
ATOM      1  N   UNL     1       0.031  10.352  19.939  0.00  0.00    +0.000 N 
ATOM      2  C   UNL     1       0.245  11.154  21.042  0.00  0.00    +0.000 C 
ATOM      3  O   UNL     1       1.309  11.213  21.654  0.00  0.00    +0.000 OA
ATOM      4  N   UNL     1      -0.817  11.975  21.394  0.00  0.00    +0.000 N 
ATOM      5  C   UNL     1      -0.591  12.990  22.422  0.00  0.00    +0.000 C 
ATOM      6  C   UNL     1      -1.165  14.332  21.970  0.00  0.00    +0.000 C 
ATOM      7  C   UNL     1      -2.658  14.215  21.603  0.00  0.00    +0.000 C 
ATOM      8  C   UNL     1      -3.150  15.565  21.062  0.00  0.00    +0.000 C 
ATOM      9  C   UNL     1      -4.644  15.518  20.770  0.00  0.00    +0.000 C 
ATOM     10  C   UNL     1      -5.389  14.768  21.838  0.00  0.00    +0.000 A 
ATOM     11  C   UNL     1      -6.791  14.772  21.835  0.00  0.00    +0.000 A 
ATOM     12  C   UNL     1      -7.505  14.071  22.807  0.00  0.00    +0.000 A 
ATOM     13  C   UNL     1      -6.824  13.370  23.802  0.00  0.00    +0.000 A 
ATOM     14  C   UNL     1      -5.430  13.350  23.809  0.00  0.00    +0.000 A 
ATOM     15 CL   UNL     1      -4.627  12.449  25.045  0.00  0.00    +0.000 Cl
ATOM     16  C   UNL     1      -4.710  14.023  22.812  0.00  0.00    +0.000 A 
ATOM     17  O   UNL     1      -3.345  13.911  22.831  0.00  0.00    +0.000 OA
ATOM     18  C   UNL     1      -2.846  13.063  20.582  0.00  0.00    +0.000 C 
ATOM     19  C   UNL     1      -2.223  11.762  21.072  0.00  0.00    +0.000 C 
ATOM     20  H   UNL     1      -0.743  10.605  19.345  0.00  0.00    +0.000 HD
ENDROOT
BRANCH   1  24
ATOM     21  C   UNL     1       2.787   7.553  18.355  0.00  0.00    +0.000 A 
ATOM     22  C   UNL     1       2.418   8.662  17.600  0.00  0.00    +0.000 A 
ATOM     23  C   UNL     1       1.517   9.599  18.120  0.00  0.00    +0.000 A 
ATOM     24  C   UNL     1       0.963   9.438  19.392  0.00  0.00    +0.000 A 
ATOM     25  C   UNL     1       1.349   8.330  20.156  0.00  0.00    +0.000 A 
ATOM     26  C   UNL     1       2.252   7.389  19.638  0.00  0.00    +0.000 A 
BRANCH  21  28
ATOM     27  N   UNL     1       4.455   5.820  17.380  0.00  0.00    +0.000 NA
ATOM     28  C   UNL     1       3.713   6.596  17.818  0.00  0.00    +0.000 C 
ENDBRANCH  21  28
ENDBRANCH   1  24
TORSDOF 2
ENDMDL
MODEL 6
REMARK VINA RESULT:      -6.7      8.970      9.668
REMARK  Name = 
REMARK  2 active torsions:
REMARK  status: ('A' for Active; 'I' for Inactive)
REMARK    1  A    between atoms: C_2  and  C_3
REMARK    2  A    between atoms: C_6  and  N_7
REMARK                            x       y       z     vdW  Elec       q    Type
REMARK                         _______ _______ _______ _____ _____    ______ ____
ROOT
ATOM      1  N   UNL     1       4.406  16.295  19.140  0.00  0.00    +0.000 N 
ATOM      2  C   UNL     1       5.509  17.059  19.461  0.00  0.00    +0.000 C 
ATOM      3  O   UNL     1       5.469  18.268  19.683  0.00  0.00    +0.000 OA
ATOM      4  N   UNL     1       6.699  16.358  19.600  0.00  0.00    +0.000 N 
ATOM      5  C   UNL     1       7.859  17.069  20.133  0.00  0.00    +0.000 C 
ATOM      6  C   UNL     1       8.542  16.226  21.210  0.00  0.00    +0.000 C 
ATOM      7  C   UNL     1       8.924  14.830  20.679  0.00  0.00    +0.000 C 
ATOM      8  C   UNL     1       9.510  13.998  21.829  0.00  0.00    +0.000 C 
ATOM      9  C   UNL     1       9.982  12.640  21.327  0.00  0.00    +0.000 C 
ATOM     10  C   UNL     1      10.669  12.756  19.995  0.00  0.00    +0.000 A 
ATOM     11  C   UNL     1      11.327  11.640  19.458  0.00  0.00    +0.000 A 
ATOM     12  C   UNL     1      11.959  11.718  18.217  0.00  0.00    +0.000 A 
ATOM     13  C   UNL     1      11.953  12.917  17.505  0.00  0.00    +0.000 A 
ATOM     14  C   UNL     1      11.292  14.030  18.024  0.00  0.00    +0.000 A 
ATOM     15 CL   UNL     1      11.287  15.488  17.098  0.00  0.00    +0.000 Cl
ATOM     16  C   UNL     1      10.625  13.944  19.254  0.00  0.00    +0.000 A 
ATOM     17  O   UNL     1       9.937  15.049  19.680  0.00  0.00    +0.000 OA
ATOM     18  C   UNL     1       7.675  14.164  20.043  0.00  0.00    +0.000 C 
ATOM     19  C   UNL     1       7.018  15.066  19.004  0.00  0.00    +0.000 C 
ATOM     20  H   UNL     1       4.493  15.301  19.284  0.00  0.00    +0.000 HD
ENDROOT
BRANCH   1  24
ATOM     21  C   UNL     1       0.475  17.729  18.486  0.00  0.00    +0.000 A 
ATOM     22  C   UNL     1       0.890  17.415  19.777  0.00  0.00    +0.000 A 
ATOM     23  C   UNL     1       2.191  16.952  20.004  0.00  0.00    +0.000 A 
ATOM     24  C   UNL     1       3.092  16.784  18.950  0.00  0.00    +0.000 A 
ATOM     25  C   UNL     1       2.677  17.116  17.654  0.00  0.00    +0.000 A 
ATOM     26  C   UNL     1       1.372  17.581  17.423  0.00  0.00    +0.000 A 
BRANCH  21  28
ATOM     27  N   UNL     1      -1.941  18.583  18.077  0.00  0.00    +0.000 NA
ATOM     28  C   UNL     1      -0.861  18.205  18.258  0.00  0.00    +0.000 C 
ENDBRANCH  21  28
ENDBRANCH   1  24
TORSDOF 2
ENDMDL
MODEL 7
REMARK VINA RESULT:      -6.6      4.171     10.971
REMARK  Name = 
REMARK  2 active torsions:
REMARK  status: ('A' for Active; 'I' for Inactive)
REMARK    1  A    between atoms: C_2  and  C_3
REMARK    2  A    between atoms: C_6  and  N_7
REMARK                            x       y       z     vdW  Elec       q    Type
REMARK                         _______ _______ _______ _____ _____    ______ ____
ROOT
ATOM      1  N   UNL     1       0.448  10.346  20.383  0.00  0.00    +0.000 N 
ATOM      2  C   UNL     1      -0.645  11.004  19.855  0.00  0.00    +0.000 C 
ATOM      3  O   UNL     1      -1.171  10.716  18.782  0.00  0.00    +0.000 OA
ATOM      4  N   UNL     1      -1.187  11.997  20.659  0.00  0.00    +0.000 N 
ATOM      5  C   UNL     1      -2.458  12.594  20.255  0.00  0.00    +0.000 C 
ATOM      6  C   UNL     1      -3.406  12.671  21.451  0.00  0.00    +0.000 C 
ATOM      7  C   UNL     1      -2.768  13.433  22.631  0.00  0.00    +0.000 C 
ATOM      8  C   UNL     1      -3.724  13.390  23.832  0.00  0.00    +0.000 C 
ATOM      9  C   UNL     1      -3.170  14.207  24.993  0.00  0.00    +0.000 C 
ATOM     10  C   UNL     1      -2.549  15.489  24.513  0.00  0.00    +0.000 A 
ATOM     11  C   UNL     1      -2.145  16.452  25.449  0.00  0.00    +0.000 A 
ATOM     12  C   UNL     1      -1.553  17.644  25.030  0.00  0.00    +0.000 A 
ATOM     13  C   UNL     1      -1.370  17.891  23.670  0.00  0.00    +0.000 A 
ATOM     14  C   UNL     1      -1.757  16.935  22.731  0.00  0.00    +0.000 A 
ATOM     15 CL   UNL     1      -1.489  17.272  21.058  0.00  0.00    +0.000 Cl
ATOM     16  C   UNL     1      -2.319  15.722  23.150  0.00  0.00    +0.000 A 
ATOM     17  O   UNL     1      -2.617  14.794  22.187  0.00  0.00    +0.000 OA
ATOM     18  C   UNL     1      -1.383  12.814  22.952  0.00  0.00    +0.000 C 
ATOM     19  C   UNL     1      -0.497  12.731  21.715  0.00  0.00    +0.000 C 
ATOM     20  H   UNL     1       0.597  10.451  21.374  0.00  0.00    +0.000 HD
ENDROOT
BRANCH   1  24
ATOM     21  C   UNL     1       2.556   7.160  18.555  0.00  0.00    +0.000 A 
ATOM     22  C   UNL     1       2.232   8.291  17.811  0.00  0.00    +0.000 A 
ATOM     23  C   UNL     1       1.546   9.354  18.410  0.00  0.00    +0.000 A 
ATOM     24  C   UNL     1       1.163   9.301  19.752  0.00  0.00    +0.000 A 
ATOM     25  C   UNL     1       1.504   8.169  20.503  0.00  0.00    +0.000 A 
ATOM     26  C   UNL     1       2.193   7.101  19.905  0.00  0.00    +0.000 A 
BRANCH  21  28
ATOM     27  N   UNL     1       3.837   5.197  17.443  0.00  0.00    +0.000 NA
ATOM     28  C   UNL     1       3.262   6.073  17.937  0.00  0.00    +0.000 C 
ENDBRANCH  21  28
ENDBRANCH   1  24
TORSDOF 2
ENDMDL
MODEL 8
REMARK VINA RESULT:      -6.5      3.226      9.624
REMARK  Name = 
REMARK  2 active torsions:
REMARK  status: ('A' for Active; 'I' for Inactive)
REMARK    1  A    between atoms: C_2  and  C_3
REMARK    2  A    between atoms: C_6  and  N_7
REMARK                            x       y       z     vdW  Elec       q    Type
REMARK                         _______ _______ _______ _____ _____    ______ ____
ROOT
ATOM      1  N   UNL     1       1.904   7.313  20.214  0.00  0.00    +0.000 N 
ATOM      2  C   UNL     1       1.841   8.232  19.185  0.00  0.00    +0.000 C 
ATOM      3  O   UNL     1       2.244   8.017  18.044  0.00  0.00    +0.000 OA
ATOM      4  N   UNL     1       1.209   9.429  19.494  0.00  0.00    +0.000 N 
ATOM      5  C   UNL     1       0.929  10.361  18.404  0.00  0.00    +0.000 C 
ATOM      6  C   UNL     1      -0.507  10.874  18.507  0.00  0.00    +0.000 C 
ATOM      7  C   UNL     1      -0.784  11.508  19.885  0.00  0.00    +0.000 C 
ATOM      8  C   UNL     1      -2.265  11.910  19.964  0.00  0.00    +0.000 C 
ATOM      9  C   UNL     1      -2.562  12.621  21.278  0.00  0.00    +0.000 C 
ATOM     10  C   UNL     1      -1.456  13.569  21.651  0.00  0.00    +0.000 A 
ATOM     11  C   UNL     1      -1.632  14.443  22.733  0.00  0.00    +0.000 A 
ATOM     12  C   UNL     1      -0.615  15.322  23.108  0.00  0.00    +0.000 A 
ATOM     13  C   UNL     1       0.583  15.346  22.395  0.00  0.00    +0.000 A 
ATOM     14  C   UNL     1       0.772  14.475  21.324  0.00  0.00    +0.000 A 
ATOM     15 CL   UNL     1       2.282  14.522  20.484  0.00  0.00    +0.000 Cl
ATOM     16  C   UNL     1      -0.233  13.565  20.968  0.00  0.00    +0.000 A 
ATOM     17  O   UNL     1       0.038  12.688  19.951  0.00  0.00    +0.000 OA
ATOM     18  C   UNL     1      -0.382  10.508  21.000  0.00  0.00    +0.000 C 
ATOM     19  C   UNL     1       1.047  10.006  20.823  0.00  0.00    +0.000 C 
ATOM     20  H   UNL     1       1.282   7.470  20.992  0.00  0.00    +0.000 HD
ENDROOT
BRANCH   1  24
ATOM     21  C   UNL     1       3.752   3.510  19.975  0.00  0.00    +0.000 A 
ATOM     22  C   UNL     1       2.520   3.642  20.611  0.00  0.00    +0.000 A 
ATOM     23  C   UNL     1       1.897   4.892  20.684  0.00  0.00    +0.000 A 
ATOM     24  C   UNL     1       2.494   6.030  20.137  0.00  0.00    +0.000 A 
ATOM     25  C   UNL     1       3.725   5.893  19.483  0.00  0.00    +0.000 A 
ATOM     26  C   UNL     1       4.354   4.639  19.408  0.00  0.00    +0.000 A 
BRANCH  21  28
ATOM     27  N   UNL     1       4.905   1.190  19.836  0.00  0.00    +0.000 NA
ATOM     28  C   UNL     1       4.387   2.225  19.901  0.00  0.00    +0.000 C 
ENDBRANCH  21  28
ENDBRANCH   1  24
TORSDOF 2
ENDMDL
MODEL 9
REMARK VINA RESULT:      -6.5      3.273      9.783
REMARK  Name = 
REMARK  2 active torsions:
REMARK  status: ('A' for Active; 'I' for Inactive)
REMARK    1  A    between atoms: C_2  and  C_3
REMARK    2  A    between atoms: C_6  and  N_7
REMARK                            x       y       z     vdW  Elec       q    Type
REMARK                         _______ _______ _______ _____ _____    ______ ____
ROOT
ATOM      1  N   UNL     1       1.677   7.845  20.211  0.00  0.00    +0.000 N 
ATOM      2  C   UNL     1       1.487   8.784  19.218  0.00  0.00    +0.000 C 
ATOM      3  O   UNL     1       1.761   8.601  18.034  0.00  0.00    +0.000 OA
ATOM      4  N   UNL     1       0.879   9.964  19.624  0.00  0.00    +0.000 N 
ATOM      5  C   UNL     1       0.466  10.916  18.595  0.00  0.00    +0.000 C 
ATOM      6  C   UNL     1      -0.955  11.405  18.872  0.00  0.00    +0.000 C 
ATOM      7  C   UNL     1      -1.082  12.005  20.286  0.00  0.00    +0.000 C 
ATOM      8  C   UNL     1      -2.549  12.383  20.541  0.00  0.00    +0.000 C 
ATOM      9  C   UNL     1      -2.704  13.061  21.897  0.00  0.00    +0.000 C 
ATOM     10  C   UNL     1      -1.576  14.017  22.164  0.00  0.00    +0.000 A 
ATOM     11  C   UNL     1      -1.638  14.863  23.280  0.00  0.00    +0.000 A 
ATOM     12  C   UNL     1      -0.597  15.749  23.558  0.00  0.00    +0.000 A 
ATOM     13  C   UNL     1       0.513  15.807  22.716  0.00  0.00    +0.000 A 
ATOM     14  C   UNL     1       0.591  14.962  21.610  0.00  0.00    +0.000 A 
ATOM     15 CL   UNL     1       1.994  15.050  20.606  0.00  0.00    +0.000 Cl
ATOM     16  C   UNL     1      -0.437  14.046  21.348  0.00  0.00    +0.000 A 
ATOM     17  O   UNL     1      -0.273  13.195  20.287  0.00  0.00    +0.000 OA
ATOM     18  C   UNL     1      -0.544  10.986  21.325  0.00  0.00    +0.000 C 
ATOM     19  C   UNL     1       0.861  10.510  20.976  0.00  0.00    +0.000 C 
ATOM     20  H   UNL     1       1.146   7.975  21.057  0.00  0.00    +0.000 HD
ENDROOT
BRANCH   1  24
ATOM     21  C   UNL     1       3.374   3.997  19.708  0.00  0.00    +0.000 A 
ATOM     22  C   UNL     1       3.968   5.100  19.100  0.00  0.00    +0.000 A 
ATOM     23  C   UNL     1       3.422   6.376  19.271  0.00  0.00    +0.000 A 
ATOM     24  C   UNL     1       2.270   6.572  20.037  0.00  0.00    +0.000 A 
ATOM     25  C   UNL     1       1.684   5.464  20.661  0.00  0.00    +0.000 A 
ATOM     26  C   UNL     1       2.230   4.181  20.492  0.00  0.00    +0.000 A 
BRANCH  21  28
ATOM     27  N   UNL     1       4.403   1.636  19.394  0.00  0.00    +0.000 NA
ATOM     28  C   UNL     1       3.940   2.689  19.532  0.00  0.00    +0.000 C 
ENDBRANCH  21  28
ENDBRANCH   1  24
TORSDOF 2
ENDMDL
