MODEL 1
REMARK VINA RESULT:      -7.1      0.000      0.000
REMARK  Name = 
REMARK  12 active torsions:
REMARK  status: ('A' for Active; 'I' for Inactive)
REMARK    1  A    between atoms: C_1  and  O_2
REMARK    2  A    between atoms: O_2  and  C_3
REMARK    3  A    between atoms: C_5  and  O_6
REMARK    4  A    between atoms: O_6  and  C_7
REMARK    5  A    between atoms: C_8  and  O_9
REMARK    6  A    between atoms: O_9  and  C_10
REMARK    7  A    between atoms: C_12  and  C_13
REMARK    8  A    between atoms: C_14  and  C_15
REMARK    9  A    between atoms: C_15  and  O_16
REMARK   10  A    between atoms: O_16  and  C_17
REMARK   11  A    between atoms: C_17  and  C_19
REMARK   12  A    between atoms: C_20  and  C_21
REMARK                            x       y       z     vdW  Elec       q    Type
REMARK                         _______ _______ _______ _____ _____    ______ ____
ROOT
ATOM      1  C   UNL     1       1.864   5.724  20.888  0.00  0.00    +0.000 C 
ATOM      2  C   UNL     1       1.167   4.629  20.534  0.00  0.00    +0.000 C 
ENDROOT
BRANCH   1   8
ATOM      3  C   UNL     1       1.961   7.597  19.198  0.00  0.00    +0.000 A 
ATOM      4  C   UNL     1       1.749   8.942  18.877  0.00  0.00    +0.000 A 
ATOM      5  C   UNL     1       1.065   9.803  19.738  0.00  0.00    +0.000 A 
ATOM      6  C   UNL     1       0.549   9.309  20.942  0.00  0.00    +0.000 A 
ATOM      7  C   UNL     1       0.817   7.977  21.294  0.00  0.00    +0.000 A 
ATOM      8  C   UNL     1       1.555   7.112  20.458  0.00  0.00    +0.000 A 
BRANCH   3  10
ATOM      9  C   UNL     1       3.646   7.287  17.564  0.00  0.00    +0.000 C 
ATOM     10  O   UNL     1       2.575   6.726  18.326  0.00  0.00    +0.000 OA
ENDBRANCH   3  10
BRANCH   5  11
ATOM     11  O   UNL     1       0.920  11.066  19.226  0.00  0.00    +0.000 OA
ATOM     12  C   UNL     1       1.922  11.497  18.313  0.00  0.00    +0.000 C 
ENDBRANCH   5  11
BRANCH   6  13
ATOM     13  O   UNL     1      -0.218  10.160  21.691  0.00  0.00    +0.000 OA
ATOM     14  C   UNL     1      -0.471   9.821  23.046  0.00  0.00    +0.000 C 
ENDBRANCH   6  13
ENDBRANCH   1   8
BRANCH   2  15
ATOM     15  C   UNL     1       1.400   3.247  21.072  0.00  0.00    +0.000 C 
BRANCH  15  16
ATOM     16  O   UNL     1       2.073   2.428  20.113  0.00  0.00    +0.000 OA
BRANCH  16  17
ATOM     17  C   UNL     1       3.428   2.461  20.166  0.00  0.00    +0.000 C 
ATOM     18  O   UNL     1       4.122   2.250  21.150  0.00  0.00    +0.000 OA
BRANCH  17  19
ATOM     19  C   UNL     1       3.940   2.827  18.829  0.00  0.00    +0.000 C 
ATOM     20  C   UNL     1       4.869   3.794  18.722  0.00  0.00    +0.000 C 
BRANCH  20  21
ATOM     21  C   UNL     1       5.468   4.297  17.468  0.00  0.00    +0.000 A 
ATOM     22  C   UNL     1       4.904   3.953  16.227  0.00  0.00    +0.000 A 
ATOM     23  C   UNL     1       5.477   4.374  15.022  0.00  0.00    +0.000 A 
ATOM     24  C   UNL     1       6.632   5.146  15.032  0.00  0.00    +0.000 A 
ATOM     25  C   UNL     1       7.217   5.498  16.245  0.00  0.00    +0.000 A 
ATOM     26  C   UNL     1       6.646   5.075  17.454  0.00  0.00    +0.000 A 
ATOM     27 BR   UNL     1       7.546   5.629  19.041  0.00  0.00    +0.000 Br
ENDBRANCH  20  21
ENDBRANCH  17  19
ENDBRANCH  16  17
ENDBRANCH  15  16
ENDBRANCH   2  15
TORSDOF 9
ENDMDL
MODEL 2
REMARK VINA RESULT:      -7.0      3.704      8.151
REMARK  Name = 
REMARK  12 active torsions:
REMARK  status: ('A' for Active; 'I' for Inactive)
REMARK    1  A    between atoms: C_1  and  O_2
REMARK    2  A    between atoms: O_2  and  C_3
REMARK    3  A    between atoms: C_5  and  O_6
REMARK    4  A    between atoms: O_6  and  C_7
REMARK    5  A    between atoms: C_8  and  O_9
REMARK    6  A    between atoms: O_9  and  C_10
REMARK    7  A    between atoms: C_12  and  C_13
REMARK    8  A    between atoms: C_14  and  C_15
REMARK    9  A    between atoms: C_15  and  O_16
REMARK   10  A    between atoms: O_16  and  C_17
REMARK   11  A    between atoms: C_17  and  C_19
REMARK   12  A    between atoms: C_20  and  C_21
REMARK                            x       y       z     vdW  Elec       q    Type
REMARK                         _______ _______ _______ _____ _____    ______ ____
ROOT
ATOM      1  C   UNL     1       3.420   5.888  19.318  0.00  0.00    +0.000 C 
ATOM      2  C   UNL     1       2.508   6.876  19.322  0.00  0.00    +0.000 C 
ENDROOT
BRANCH   1   8
ATOM      3  C   UNL     1       3.982   4.572  17.238  0.00  0.00    +0.000 A 
ATOM      4  C   UNL     1       4.907   4.215  16.252  0.00  0.00    +0.000 A 
ATOM      5  C   UNL     1       6.132   4.872  16.123  0.00  0.00    +0.000 A 
ATOM      6  C   UNL     1       6.438   5.937  16.979  0.00  0.00    +0.000 A 
ATOM      7  C   UNL     1       5.539   6.253  18.009  0.00  0.00    +0.000 A 
ATOM      8  C   UNL     1       4.323   5.560  18.185  0.00  0.00    +0.000 A 
BRANCH   3  10
ATOM      9  C   UNL     1       2.767   2.582  17.653  0.00  0.00    +0.000 C 
ATOM     10  O   UNL     1       2.745   3.974  17.330  0.00  0.00    +0.000 OA
ENDBRANCH   3  10
BRANCH   5  11
ATOM     11  O   UNL     1       6.880   4.408  15.072  0.00  0.00    +0.000 OA
ATOM     12  C   UNL     1       6.157   3.889  13.962  0.00  0.00    +0.000 C 
ENDBRANCH   5  11
BRANCH   6  13
ATOM     13  O   UNL     1       7.594   6.627  16.733  0.00  0.00    +0.000 OA
ATOM     14  C   UNL     1       7.771   7.889  17.358  0.00  0.00    +0.000 C 
ENDBRANCH   6  13
ENDBRANCH   1   8
BRANCH   2  15
ATOM     15  C   UNL     1       1.689   7.290  20.512  0.00  0.00    +0.000 C 
BRANCH  15  16
ATOM     16  O   UNL     1       1.897   8.670  20.824  0.00  0.00    +0.000 OA
BRANCH  16  17
ATOM     17  C   UNL     1       0.920   9.254  21.562  0.00  0.00    +0.000 C 
ATOM     18  O   UNL     1       0.994   9.582  22.737  0.00  0.00    +0.000 OA
BRANCH  17  19
ATOM     19  C   UNL     1      -0.279   9.409  20.712  0.00  0.00    +0.000 C 
ATOM     20  C   UNL     1      -0.208  10.174  19.607  0.00  0.00    +0.000 C 
BRANCH  20  21
ATOM     21  C   UNL     1      -1.312  10.453  18.665  0.00  0.00    +0.000 A 
ATOM     22  C   UNL     1      -1.401   9.749  17.451  0.00  0.00    +0.000 A 
ATOM     23  C   UNL     1      -2.406  10.025  16.518  0.00  0.00    +0.000 A 
ATOM     24  C   UNL     1      -3.343  11.019  16.777  0.00  0.00    +0.000 A 
ATOM     25  C   UNL     1      -3.277  11.737  17.966  0.00  0.00    +0.000 A 
ATOM     26  C   UNL     1      -2.269  11.463  18.903  0.00  0.00    +0.000 A 
ATOM     27 BR   UNL     1      -2.295  12.518  20.491  0.00  0.00    +0.000 Br
ENDBRANCH  20  21
ENDBRANCH  17  19
ENDBRANCH  16  17
ENDBRANCH  15  16
ENDBRANCH   2  15
TORSDOF 9
ENDMDL
MODEL 3
REMARK VINA RESULT:      -6.9      1.093      1.378
REMARK  Name = 
REMARK  12 active torsions:
REMARK  status: ('A' for Active; 'I' for Inactive)
REMARK    1  A    between atoms: C_1  and  O_2
REMARK    2  A    between atoms: O_2  and  C_3
REMARK    3  A    between atoms: C_5  and  O_6
REMARK    4  A    between atoms: O_6  and  C_7
REMARK    5  A    between atoms: C_8  and  O_9
REMARK    6  A    between atoms: O_9  and  C_10
REMARK    7  A    between atoms: C_12  and  C_13
REMARK    8  A    between atoms: C_14  and  C_15
REMARK    9  A    between atoms: C_15  and  O_16
REMARK   10  A    between atoms: O_16  and  C_17
REMARK   11  A    between atoms: C_17  and  C_19
REMARK   12  A    between atoms: C_20  and  C_21
REMARK                            x       y       z     vdW  Elec       q    Type
REMARK                         _______ _______ _______ _____ _____    ______ ____
ROOT
ATOM      1  C   UNL     1       2.520   5.628  20.400  0.00  0.00    +0.000 C 
ATOM      2  C   UNL     1       1.865   4.471  20.605  0.00  0.00    +0.000 C 
ENDROOT
BRANCH   1   8
ATOM      3  C   UNL     1       2.052   7.696  19.030  0.00  0.00    +0.000 A 
ATOM      4  C   UNL     1       1.523   8.988  18.941  0.00  0.00    +0.000 A 
ATOM      5  C   UNL     1       0.748   9.536  19.965  0.00  0.00    +0.000 A 
ATOM      6  C   UNL     1       0.465   8.768  21.102  0.00  0.00    +0.000 A 
ATOM      7  C   UNL     1       1.048   7.498  21.220  0.00  0.00    +0.000 A 
ATOM      8  C   UNL     1       1.878   6.954  20.216  0.00  0.00    +0.000 A 
BRANCH   3  10
ATOM      9  C   UNL     1       3.766   7.957  17.417  0.00  0.00    +0.000 C 
ATOM     10  O   UNL     1       2.760   7.124  17.996  0.00  0.00    +0.000 OA
ENDBRANCH   3  10
BRANCH   5  11
ATOM     11  O   UNL     1       0.286  10.792  19.672  0.00  0.00    +0.000 OA
ATOM     12  C   UNL     1      -0.849  10.864  18.818  0.00  0.00    +0.000 C 
ENDBRANCH   5  11
BRANCH   6  13
ATOM     13  O   UNL     1      -0.399   9.303  22.019  0.00  0.00    +0.000 OA
ATOM     14  C   UNL     1       0.077   9.534  23.337  0.00  0.00    +0.000 C 
ENDBRANCH   6  13
ENDBRANCH   1   8
BRANCH   2  15
ATOM     15  C   UNL     1       2.518   3.155  20.921  0.00  0.00    +0.000 C 
BRANCH  15  16
ATOM     16  O   UNL     1       2.081   2.135  20.018  0.00  0.00    +0.000 OA
BRANCH  16  17
ATOM     17  C   UNL     1       1.915   2.529  18.731  0.00  0.00    +0.000 C 
ATOM     18  O   UNL     1       0.851   2.689  18.151  0.00  0.00    +0.000 OA
BRANCH  17  19
ATOM     19  C   UNL     1       3.249   2.710  18.121  0.00  0.00    +0.000 C 
ATOM     20  C   UNL     1       3.500   3.820  17.404  0.00  0.00    +0.000 C 
BRANCH  20  21
ATOM     21  C   UNL     1       4.764   4.146  16.711  0.00  0.00    +0.000 A 
ATOM     22  C   UNL     1       4.917   3.852  15.344  0.00  0.00    +0.000 A 
ATOM     23  C   UNL     1       6.118   4.106  14.673  0.00  0.00    +0.000 A 
ATOM     24  C   UNL     1       7.197   4.655  15.356  0.00  0.00    +0.000 A 
ATOM     25  C   UNL     1       7.077   4.950  16.711  0.00  0.00    +0.000 A 
ATOM     26  C   UNL     1       5.874   4.696  17.386  0.00  0.00    +0.000 A 
ATOM     27 BR   UNL     1       5.845   5.150  19.238  0.00  0.00    +0.000 Br
ENDBRANCH  20  21
ENDBRANCH  17  19
ENDBRANCH  16  17
ENDBRANCH  15  16
ENDBRANCH   2  15
TORSDOF 9
ENDMDL
MODEL 4
REMARK VINA RESULT:      -6.9      6.213      8.308
REMARK  Name = 
REMARK  12 active torsions:
REMARK  status: ('A' for Active; 'I' for Inactive)
REMARK    1  A    between atoms: C_1  and  O_2
REMARK    2  A    between atoms: O_2  and  C_3
REMARK    3  A    between atoms: C_5  and  O_6
REMARK    4  A    between atoms: O_6  and  C_7
REMARK    5  A    between atoms: C_8  and  O_9
REMARK    6  A    between atoms: O_9  and  C_10
REMARK    7  A    between atoms: C_12  and  C_13
REMARK    8  A    between atoms: C_14  and  C_15
REMARK    9  A    between atoms: C_15  and  O_16
REMARK   10  A    between atoms: O_16  and  C_17
REMARK   11  A    between atoms: C_17  and  C_19
REMARK   12  A    between atoms: C_20  and  C_21
REMARK                            x       y       z     vdW  Elec       q    Type
REMARK                         _______ _______ _______ _____ _____    ______ ____
ROOT
ATOM      1  C   UNL     1       8.987   9.712  19.224  0.00  0.00    +0.000 C 
ATOM      2  C   UNL     1       8.491   9.234  18.068  0.00  0.00    +0.000 C 
ENDROOT
BRANCH   1   8
ATOM      3  C   UNL     1       9.347  11.709  20.725  0.00  0.00    +0.000 A 
ATOM      4  C   UNL     1       9.671  13.062  20.874  0.00  0.00    +0.000 A 
ATOM      5  C   UNL     1      10.161  13.820  19.808  0.00  0.00    +0.000 A 
ATOM      6  C   UNL     1      10.365  13.212  18.564  0.00  0.00    +0.000 A 
ATOM      7  C   UNL     1       9.980  11.872  18.397  0.00  0.00    +0.000 A 
ATOM      8  C   UNL     1       9.432  11.111  19.451  0.00  0.00    +0.000 A 
BRANCH   3  10
ATOM      9  C   UNL     1       8.019  11.583  22.681  0.00  0.00    +0.000 C 
ATOM     10  O   UNL     1       8.927  10.939  21.787  0.00  0.00    +0.000 OA
ENDBRANCH   3  10
BRANCH   5  11
ATOM     11  O   UNL     1      10.461  15.110  20.163  0.00  0.00    +0.000 OA
ATOM     12  C   UNL     1       9.681  15.675  21.209  0.00  0.00    +0.000 C 
ENDBRANCH   5  11
BRANCH   6  13
ATOM     13  O   UNL     1      10.962  13.964  17.589  0.00  0.00    +0.000 OA
ATOM     14  C   UNL     1      11.507  13.294  16.462  0.00  0.00    +0.000 C 
ENDBRANCH   6  13
ENDBRANCH   1   8
BRANCH   2  15
ATOM     15  C   UNL     1       7.921   7.858  17.878  0.00  0.00    +0.000 C 
BRANCH  15  16
ATOM     16  O   UNL     1       6.799   7.884  16.991  0.00  0.00    +0.000 OA
BRANCH  16  17
ATOM     17  C   UNL     1       6.198   6.687  16.778  0.00  0.00    +0.000 C 
ATOM     18  O   UNL     1       6.399   5.930  15.839  0.00  0.00    +0.000 OA
BRANCH  17  19
ATOM     19  C   UNL     1       5.224   6.452  17.864  0.00  0.00    +0.000 C 
ATOM     20  C   UNL     1       4.281   5.505  17.709  0.00  0.00    +0.000 C 
BRANCH  20  21
ATOM     21  C   UNL     1       3.221   5.158  18.679  0.00  0.00    +0.000 A 
ATOM     22  C   UNL     1       2.728   6.132  19.566  0.00  0.00    +0.000 A 
ATOM     23  C   UNL     1       1.760   5.822  20.527  0.00  0.00    +0.000 A 
ATOM     24  C   UNL     1       1.267   4.526  20.627  0.00  0.00    +0.000 A 
ATOM     25  C   UNL     1       1.741   3.540  19.767  0.00  0.00    +0.000 A 
ATOM     26  C   UNL     1       2.712   3.848  18.804  0.00  0.00    +0.000 A 
ATOM     27 BR   UNL     1       3.271   2.405  17.690  0.00  0.00    +0.000 Br
ENDBRANCH  20  21
ENDBRANCH  17  19
ENDBRANCH  16  17
ENDBRANCH  15  16
ENDBRANCH   2  15
TORSDOF 9
ENDMDL
MODEL 5
REMARK VINA RESULT:      -6.8      2.741      7.121
REMARK  Name = 
REMARK  12 active torsions:
REMARK  status: ('A' for Active; 'I' for Inactive)
REMARK    1  A    between atoms: C_1  and  O_2
REMARK    2  A    between atoms: O_2  and  C_3
REMARK    3  A    between atoms: C_5  and  O_6
REMARK    4  A    between atoms: O_6  and  C_7
REMARK    5  A    between atoms: C_8  and  O_9
REMARK    6  A    between atoms: O_9  and  C_10
REMARK    7  A    between atoms: C_12  and  C_13
REMARK    8  A    between atoms: C_14  and  C_15
REMARK    9  A    between atoms: C_15  and  O_16
REMARK   10  A    between atoms: O_16  and  C_17
REMARK   11  A    between atoms: C_17  and  C_19
REMARK   12  A    between atoms: C_20  and  C_21
REMARK                            x       y       z     vdW  Elec       q    Type
REMARK                         _______ _______ _______ _____ _____    ______ ____
ROOT
ATOM      1  C   UNL     1       4.055   3.339  17.664  0.00  0.00    +0.000 C 
ATOM      2  C   UNL     1       2.732   3.468  17.453  0.00  0.00    +0.000 C 
ENDROOT
BRANCH   1   8
ATOM      3  C   UNL     1       6.338   4.338  17.263  0.00  0.00    +0.000 A 
ATOM      4  C   UNL     1       7.268   4.903  16.384  0.00  0.00    +0.000 A 
ATOM      5  C   UNL     1       7.062   4.912  15.003  0.00  0.00    +0.000 A 
ATOM      6  C   UNL     1       5.912   4.314  14.473  0.00  0.00    +0.000 A 
ATOM      7  C   UNL     1       4.948   3.804  15.357  0.00  0.00    +0.000 A 
ATOM      8  C   UNL     1       5.119   3.840  16.758  0.00  0.00    +0.000 A 
BRANCH   3  10
ATOM      9  C   UNL     1       6.680   5.526  19.281  0.00  0.00    +0.000 C 
ATOM     10  O   UNL     1       6.565   4.266  18.619  0.00  0.00    +0.000 OA
ENDBRANCH   3  10
BRANCH   5  11
ATOM     11  O   UNL     1       8.105   5.469  14.310  0.00  0.00    +0.000 OA
ATOM     12  C   UNL     1       8.020   5.418  12.891  0.00  0.00    +0.000 C 
ENDBRANCH   5  11
BRANCH   6  13
ATOM     13  O   UNL     1       5.816   4.239  13.110  0.00  0.00    +0.000 OA
ATOM     14  C   UNL     1       5.108   3.146  12.544  0.00  0.00    +0.000 C 
ENDBRANCH   6  13
ENDBRANCH   1   8
BRANCH   2  15
ATOM     15  C   UNL     1       1.661   3.079  18.431  0.00  0.00    +0.000 C 
BRANCH  15  16
ATOM     16  O   UNL     1       2.229   2.577  19.643  0.00  0.00    +0.000 OA
BRANCH  16  17
ATOM     17  C   UNL     1       2.042   3.355  20.739  0.00  0.00    +0.000 C 
ATOM     18  O   UNL     1       2.256   3.038  21.900  0.00  0.00    +0.000 OA
BRANCH  17  19
ATOM     19  C   UNL     1       1.506   4.660  20.301  0.00  0.00    +0.000 C 
ATOM     20  C   UNL     1       2.170   5.786  20.620  0.00  0.00    +0.000 C 
BRANCH  20  21
ATOM     21  C   UNL     1       1.764   7.167  20.284  0.00  0.00    +0.000 A 
ATOM     22  C   UNL     1       0.889   7.871  21.130  0.00  0.00    +0.000 A 
ATOM     23  C   UNL     1       0.449   9.161  20.814  0.00  0.00    +0.000 A 
ATOM     24  C   UNL     1       0.871   9.774  19.639  0.00  0.00    +0.000 A 
ATOM     25  C   UNL     1       1.732   9.099  18.780  0.00  0.00    +0.000 A 
ATOM     26  C   UNL     1       2.173   7.805  19.094  0.00  0.00    +0.000 A 
ATOM     27 BR   UNL     1       3.351   6.995  17.832  0.00  0.00    +0.000 Br
ENDBRANCH  20  21
ENDBRANCH  17  19
ENDBRANCH  16  17
ENDBRANCH  15  16
ENDBRANCH   2  15
TORSDOF 9
ENDMDL
MODEL 6
REMARK VINA RESULT:      -6.7      6.014      7.956
REMARK  Name = 
REMARK  12 active torsions:
REMARK  status: ('A' for Active; 'I' for Inactive)
REMARK    1  A    between atoms: C_1  and  O_2
REMARK    2  A    between atoms: O_2  and  C_3
REMARK    3  A    between atoms: C_5  and  O_6
REMARK    4  A    between atoms: O_6  and  C_7
REMARK    5  A    between atoms: C_8  and  O_9
REMARK    6  A    between atoms: O_9  and  C_10
REMARK    7  A    between atoms: C_12  and  C_13
REMARK    8  A    between atoms: C_14  and  C_15
REMARK    9  A    between atoms: C_15  and  O_16
REMARK   10  A    between atoms: O_16  and  C_17
REMARK   11  A    between atoms: C_17  and  C_19
REMARK   12  A    between atoms: C_20  and  C_21
REMARK                            x       y       z     vdW  Elec       q    Type
REMARK                         _______ _______ _______ _____ _____    ______ ____
ROOT
ATOM      1  C   UNL     1       8.340  10.558  17.608  0.00  0.00    +0.000 C 
ATOM      2  C   UNL     1       8.625   9.597  18.505  0.00  0.00    +0.000 C 
ENDROOT
BRANCH   1   8
ATOM      3  C   UNL     1      10.089  12.349  17.934  0.00  0.00    +0.000 A 
ATOM      4  C   UNL     1      10.412  13.693  18.150  0.00  0.00    +0.000 A 
ATOM      5  C   UNL     1       9.447  14.700  18.077  0.00  0.00    +0.000 A 
ATOM      6  C   UNL     1       8.126  14.368  17.752  0.00  0.00    +0.000 A 
ATOM      7  C   UNL     1       7.789  13.015  17.599  0.00  0.00    +0.000 A 
ATOM      8  C   UNL     1       8.744  11.983  17.724  0.00  0.00    +0.000 A 
BRANCH   3  10
ATOM      9  C   UNL     1      12.005  11.448  18.993  0.00  0.00    +0.000 C 
ATOM     10  O   UNL     1      11.046  11.359  17.938  0.00  0.00    +0.000 OA
ENDBRANCH   3  10
BRANCH   5  11
ATOM     11  O   UNL     1       9.966  15.953  18.274  0.00  0.00    +0.000 OA
ATOM     12  C   UNL     1      10.466  16.618  17.121  0.00  0.00    +0.000 C 
ENDBRANCH   5  11
BRANCH   6  13
ATOM     13  O   UNL     1       7.247  15.401  17.571  0.00  0.00    +0.000 OA
ATOM     14  C   UNL     1       6.363  15.726  18.634  0.00  0.00    +0.000 C 
ENDBRANCH   6  13
ENDBRANCH   1   8
BRANCH   2  15
ATOM     15  C   UNL     1       8.331   8.135  18.324  0.00  0.00    +0.000 C 
BRANCH  15  16
ATOM     16  O   UNL     1       7.214   7.939  17.453  0.00  0.00    +0.000 OA
BRANCH  16  17
ATOM     17  C   UNL     1       7.130   6.712  16.881  0.00  0.00    +0.000 C 
ATOM     18  O   UNL     1       7.796   6.302  15.940  0.00  0.00    +0.000 OA
BRANCH  17  19
ATOM     19  C   UNL     1       6.070   5.946  17.567  0.00  0.00    +0.000 C 
ATOM     20  C   UNL     1       4.998   5.533  16.867  0.00  0.00    +0.000 C 
BRANCH  20  21
ATOM     21  C   UNL     1       3.841   4.782  17.400  0.00  0.00    +0.000 A 
ATOM     22  C   UNL     1       3.786   3.383  17.267  0.00  0.00    +0.000 A 
ATOM     23  C   UNL     1       2.682   2.650  17.719  0.00  0.00    +0.000 A 
ATOM     24  C   UNL     1       1.606   3.302  18.308  0.00  0.00    +0.000 A 
ATOM     25  C   UNL     1       1.630   4.687  18.447  0.00  0.00    +0.000 A 
ATOM     26  C   UNL     1       2.734   5.424  17.994  0.00  0.00    +0.000 A 
ATOM     27 BR   UNL     1       2.639   7.311  18.248  0.00  0.00    +0.000 Br
ENDBRANCH  20  21
ENDBRANCH  17  19
ENDBRANCH  16  17
ENDBRANCH  15  16
ENDBRANCH   2  15
TORSDOF 9
ENDMDL
MODEL 7
REMARK VINA RESULT:      -6.7      3.882      8.324
REMARK  Name = 
REMARK  12 active torsions:
REMARK  status: ('A' for Active; 'I' for Inactive)
REMARK    1  A    between atoms: C_1  and  O_2
REMARK    2  A    between atoms: O_2  and  C_3
REMARK    3  A    between atoms: C_5  and  O_6
REMARK    4  A    between atoms: O_6  and  C_7
REMARK    5  A    between atoms: C_8  and  O_9
REMARK    6  A    between atoms: O_9  and  C_10
REMARK    7  A    between atoms: C_12  and  C_13
REMARK    8  A    between atoms: C_14  and  C_15
REMARK    9  A    between atoms: C_15  and  O_16
REMARK   10  A    between atoms: O_16  and  C_17
REMARK   11  A    between atoms: C_17  and  C_19
REMARK   12  A    between atoms: C_20  and  C_21
REMARK                            x       y       z     vdW  Elec       q    Type
REMARK                         _______ _______ _______ _____ _____    ______ ____
ROOT
ATOM      1  C   UNL     1       2.261   6.352  19.244  0.00  0.00    +0.000 C 
ATOM      2  C   UNL     1       2.270   7.525  19.904  0.00  0.00    +0.000 C 
ENDROOT
BRANCH   1   8
ATOM      3  C   UNL     1       3.469   4.460  18.091  0.00  0.00    +0.000 A 
ATOM      4  C   UNL     1       4.592   3.991  17.401  0.00  0.00    +0.000 A 
ATOM      5  C   UNL     1       5.586   4.857  16.941  0.00  0.00    +0.000 A 
ATOM      6  C   UNL     1       5.449   6.236  17.146  0.00  0.00    +0.000 A 
ATOM      7  C   UNL     1       4.357   6.701  17.894  0.00  0.00    +0.000 A 
ATOM      8  C   UNL     1       3.374   5.830  18.412  0.00  0.00    +0.000 A 
BRANCH   3  10
ATOM      9  C   UNL     1       2.363   2.392  17.764  0.00  0.00    +0.000 C 
ATOM     10  O   UNL     1       2.453   3.620  18.489  0.00  0.00    +0.000 OA
ENDBRANCH   3  10
BRANCH   5  11
ATOM     11  O   UNL     1       6.579   4.213  16.250  0.00  0.00    +0.000 OA
ATOM     12  C   UNL     1       6.369   4.042  14.854  0.00  0.00    +0.000 C 
ENDBRANCH   5  11
BRANCH   6  13
ATOM     13  O   UNL     1       6.385   7.051  16.570  0.00  0.00    +0.000 OA
ATOM     14  C   UNL     1       7.501   7.452  17.351  0.00  0.00    +0.000 C 
ENDBRANCH   6  13
ENDBRANCH   1   8
BRANCH   2  15
ATOM     15  C   UNL     1       1.199   7.992  20.849  0.00  0.00    +0.000 C 
BRANCH  15  16
ATOM     16  O   UNL     1       1.532   9.261  21.416  0.00  0.00    +0.000 OA
BRANCH  16  17
ATOM     17  C   UNL     1       0.558  10.203  21.348  0.00  0.00    +0.000 C 
ATOM     18  O   UNL     1       0.246  10.991  22.230  0.00  0.00    +0.000 OA
BRANCH  17  19
ATOM     19  C   UNL     1      -0.095  10.106  20.027  0.00  0.00    +0.000 C 
ATOM     20  C   UNL     1      -1.256  10.753  19.817  0.00  0.00    +0.000 C 
BRANCH  20  21
ATOM     21  C   UNL     1      -2.051  10.743  18.571  0.00  0.00    +0.000 A 
ATOM     22  C   UNL     1      -1.616   9.997  17.461  0.00  0.00    +0.000 A 
ATOM     23  C   UNL     1      -2.322  10.007  16.253  0.00  0.00    +0.000 A 
ATOM     24  C   UNL     1      -3.477  10.769  16.126  0.00  0.00    +0.000 A 
ATOM     25  C   UNL     1      -3.927  11.523  17.205  0.00  0.00    +0.000 A 
ATOM     26  C   UNL     1      -3.221  11.516  18.417  0.00  0.00    +0.000 A 
ATOM     27 BR   UNL     1      -3.950  12.590  19.814  0.00  0.00    +0.000 Br
ENDBRANCH  20  21
ENDBRANCH  17  19
ENDBRANCH  16  17
ENDBRANCH  15  16
ENDBRANCH   2  15
TORSDOF 9
ENDMDL
MODEL 8
REMARK VINA RESULT:      -6.7      6.363      8.025
REMARK  Name = 
REMARK  12 active torsions:
REMARK  status: ('A' for Active; 'I' for Inactive)
REMARK    1  A    between atoms: C_1  and  O_2
REMARK    2  A    between atoms: O_2  and  C_3
REMARK    3  A    between atoms: C_5  and  O_6
REMARK    4  A    between atoms: O_6  and  C_7
REMARK    5  A    between atoms: C_8  and  O_9
REMARK    6  A    between atoms: O_9  and  C_10
REMARK    7  A    between atoms: C_12  and  C_13
REMARK    8  A    between atoms: C_14  and  C_15
REMARK    9  A    between atoms: C_15  and  O_16
REMARK   10  A    between atoms: O_16  and  C_17
REMARK   11  A    between atoms: C_17  and  C_19
REMARK   12  A    between atoms: C_20  and  C_21
REMARK                            x       y       z     vdW  Elec       q    Type
REMARK                         _______ _______ _______ _____ _____    ______ ____
ROOT
ATOM      1  C   UNL     1       9.171  10.236  18.124  0.00  0.00    +0.000 C 
ATOM      2  C   UNL     1       8.306   9.255  18.442  0.00  0.00    +0.000 C 
ENDROOT
BRANCH   1   8
ATOM      3  C   UNL     1      10.211  12.504  18.502  0.00  0.00    +0.000 A 
ATOM      4  C   UNL     1      10.636  13.503  19.384  0.00  0.00    +0.000 A 
ATOM      5  C   UNL     1      10.332  13.456  20.747  0.00  0.00    +0.000 A 
ATOM      6  C   UNL     1       9.558  12.401  21.245  0.00  0.00    +0.000 A 
ATOM      7  C   UNL     1       9.187  11.366  20.373  0.00  0.00    +0.000 A 
ATOM      8  C   UNL     1       9.535  11.374  19.006  0.00  0.00    +0.000 A 
BRANCH   3  10
ATOM      9  C   UNL     1      11.325  13.631  16.742  0.00  0.00    +0.000 C 
ATOM     10  O   UNL     1      10.449  12.578  17.147  0.00  0.00    +0.000 OA
ENDBRANCH   3  10
BRANCH   5  11
ATOM     11  O   UNL     1      10.797  14.546  21.436  0.00  0.00    +0.000 OA
ATOM     12  C   UNL     1      11.011  15.730  20.677  0.00  0.00    +0.000 C 
ENDBRANCH   5  11
BRANCH   6  13
ATOM     13  O   UNL     1       9.185  12.466  22.560  0.00  0.00    +0.000 OA
ATOM     14  C   UNL     1       7.848  12.838  22.862  0.00  0.00    +0.000 C 
ENDBRANCH   6  13
ENDBRANCH   1   8
BRANCH   2  15
ATOM     15  C   UNL     1       8.038   8.037  17.605  0.00  0.00    +0.000 C 
BRANCH  15  16
ATOM     16  O   UNL     1       7.815   6.887  18.426  0.00  0.00    +0.000 OA
BRANCH  16  17
ATOM     17  C   UNL     1       7.267   5.819  17.796  0.00  0.00    +0.000 C 
ATOM     18  O   UNL     1       7.512   5.440  16.659  0.00  0.00    +0.000 OA
BRANCH  17  19
ATOM     19  C   UNL     1       6.288   5.190  18.707  0.00  0.00    +0.000 C 
ATOM     20  C   UNL     1       4.974   5.406  18.512  0.00  0.00    +0.000 C 
BRANCH  20  21
ATOM     21  C   UNL     1       3.869   4.877  19.339  0.00  0.00    +0.000 A 
ATOM     22  C   UNL     1       3.939   3.573  19.862  0.00  0.00    +0.000 A 
ATOM     23  C   UNL     1       2.888   3.029  20.607  0.00  0.00    +0.000 A 
ATOM     24  C   UNL     1       1.738   3.774  20.841  0.00  0.00    +0.000 A 
ATOM     25  C   UNL     1       1.638   5.065  20.330  0.00  0.00    +0.000 A 
ATOM     26  C   UNL     1       2.690   5.613  19.581  0.00  0.00    +0.000 A 
ATOM     27 BR   UNL     1       2.423   7.390  18.943  0.00  0.00    +0.000 Br
ENDBRANCH  20  21
ENDBRANCH  17  19
ENDBRANCH  16  17
ENDBRANCH  15  16
ENDBRANCH   2  15
TORSDOF 9
ENDMDL
MODEL 9
REMARK VINA RESULT:      -6.6      2.129      4.494
REMARK  Name = 
REMARK  12 active torsions:
REMARK  status: ('A' for Active; 'I' for Inactive)
REMARK    1  A    between atoms: C_1  and  O_2
REMARK    2  A    between atoms: O_2  and  C_3
REMARK    3  A    between atoms: C_5  and  O_6
REMARK    4  A    between atoms: O_6  and  C_7
REMARK    5  A    between atoms: C_8  and  O_9
REMARK    6  A    between atoms: O_9  and  C_10
REMARK    7  A    between atoms: C_12  and  C_13
REMARK    8  A    between atoms: C_14  and  C_15
REMARK    9  A    between atoms: C_15  and  O_16
REMARK   10  A    between atoms: O_16  and  C_17
REMARK   11  A    between atoms: C_17  and  C_19
REMARK   12  A    between atoms: C_20  and  C_21
REMARK                            x       y       z     vdW  Elec       q    Type
REMARK                         _______ _______ _______ _____ _____    ______ ____
ROOT
ATOM      1  C   UNL     1       3.090   7.212  17.412  0.00  0.00    +0.000 C 
ATOM      2  C   UNL     1       4.379   7.433  17.095  0.00  0.00    +0.000 C 
ENDROOT
BRANCH   1   8
ATOM      3  C   UNL     1       2.100   7.361  19.729  0.00  0.00    +0.000 A 
ATOM      4  C   UNL     1       1.286   8.028  20.651  0.00  0.00    +0.000 A 
ATOM      5  C   UNL     1       0.762   9.295  20.385  0.00  0.00    +0.000 A 
ATOM      6  C   UNL     1       1.080   9.934  19.180  0.00  0.00    +0.000 A 
ATOM      7  C   UNL     1       1.842   9.240  18.229  0.00  0.00    +0.000 A 
ATOM      8  C   UNL     1       2.331   7.937  18.463  0.00  0.00    +0.000 A 
BRANCH   3  10
ATOM      9  C   UNL     1       1.985   5.358  20.987  0.00  0.00    +0.000 C 
ATOM     10  O   UNL     1       2.674   6.141  20.011  0.00  0.00    +0.000 OA
ENDBRANCH   3  10
BRANCH   5  11
ATOM     11  O   UNL     1       0.028   9.799  21.427  0.00  0.00    +0.000 OA
ATOM     12  C   UNL     1       0.473   9.462  22.735  0.00  0.00    +0.000 C 
ENDBRANCH   5  11
BRANCH   6  13
ATOM     13  O   UNL     1       0.645  11.222  19.021  0.00  0.00    +0.000 OA
ATOM     14  C   UNL     1      -0.666  11.432  18.517  0.00  0.00    +0.000 C 
ENDBRANCH   6  13
ENDBRANCH   1   8
BRANCH   2  15
ATOM     15  C   UNL     1       5.107   6.794  15.947  0.00  0.00    +0.000 C 
BRANCH  15  16
ATOM     16  O   UNL     1       6.173   5.963  16.413  0.00  0.00    +0.000 OA
BRANCH  16  17
ATOM     17  C   UNL     1       6.098   4.659  16.048  0.00  0.00    +0.000 C 
ATOM     18  O   UNL     1       6.973   4.006  15.498  0.00  0.00    +0.000 OA
BRANCH  17  19
ATOM     19  C   UNL     1       4.756   4.151  16.403  0.00  0.00    +0.000 C 
ATOM     20  C   UNL     1       4.495   3.818  17.680  0.00  0.00    +0.000 C 
BRANCH  20  21
ATOM     21  C   UNL     1       3.222   3.275  18.200  0.00  0.00    +0.000 A 
ATOM     22  C   UNL     1       2.003   3.632  17.597  0.00  0.00    +0.000 A 
ATOM     23  C   UNL     1       0.779   3.172  18.096  0.00  0.00    +0.000 A 
ATOM     24  C   UNL     1       0.748   2.349  19.216  0.00  0.00    +0.000 A 
ATOM     25  C   UNL     1       1.938   1.984  19.837  0.00  0.00    +0.000 A 
ATOM     26  C   UNL     1       3.166   2.445  19.340  0.00  0.00    +0.000 A 
ATOM     27 BR   UNL     1       4.719   1.869  20.284  0.00  0.00    +0.000 Br
ENDBRANCH  20  21
ENDBRANCH  17  19
ENDBRANCH  16  17
ENDBRANCH  15  16
ENDBRANCH   2  15
TORSDOF 9
ENDMDL
