MODEL 1
REMARK VINA RESULT:      -8.0      0.000      0.000
REMARK  Name = 
REMARK  6 active torsions:
REMARK  status: ('A' for Active; 'I' for Inactive)
REMARK    1  A    between atoms: C_2  and  C_11
REMARK    2  A    between atoms: N_3  and  C_4
REMARK    3  A    between atoms: C_4  and  C_5
REMARK    4  A    between atoms: C_14  and  N_15
REMARK    5  A    between atoms: N_15  and  S_16
REMARK    6  A    between atoms: S_16  and  C_19
REMARK                            x       y       z     vdW  Elec       q    Type
REMARK                         _______ _______ _______ _____ _____    ______ ____
ROOT
ATOM      1  C   UNL     1       2.812   5.532  19.361  0.00  0.00    +0.000 A 
ATOM      2  C   UNL     1       4.147   5.359  19.749  0.00  0.00    +0.000 A 
ATOM      3  C   UNL     1       5.071   4.796  18.862  0.00  0.00    +0.000 A 
ATOM      4  C   UNL     1       4.660   4.423  17.583  0.00  0.00    +0.000 A 
ATOM      5  C   UNL     1       3.336   4.606  17.186  0.00  0.00    +0.000 A 
ATOM      6  C   UNL     1       2.411   5.161  18.072  0.00  0.00    +0.000 A 
ENDROOT
BRANCH   1   8
ATOM      7  O   UNL     1       0.995   5.480  20.860  0.00  0.00    +0.000 OA
ATOM      8  C   UNL     1       1.856   6.160  20.313  0.00  0.00    +0.000 C 
ATOM      9  N   UNL     1       2.006   7.509  20.520  0.00  0.00    +0.000 N 
ATOM     10  H   UNL     1       2.610   8.072  19.934  0.00  0.00    +0.000 HD
BRANCH   9  11
ATOM     11  C   UNL     1       1.153   8.247  21.425  0.00  0.00    +0.000 C 
BRANCH  11  12
ATOM     12  C   UNL     1       0.469   9.412  20.736  0.00  0.00    +0.000 A 
ATOM     13  C   UNL     1       0.706   9.641  19.381  0.00  0.00    +0.000 A 
ATOM     14  C   UNL     1       0.110  10.740  18.767  0.00  0.00    +0.000 A 
ATOM     15  C   UNL     1      -0.698  11.583  19.517  0.00  0.00    +0.000 A 
ATOM     16  C   UNL     1      -0.881  11.291  20.858  0.00  0.00    +0.000 A 
ATOM     17  N   UNL     1      -0.318  10.232  21.487  0.00  0.00    +0.000 NA
ENDBRANCH  11  12
ENDBRANCH   9  11
ENDBRANCH   1   8
BRANCH   4  18
ATOM     18  N   UNL     1       5.584   3.900  16.647  0.00  0.00    +0.000 N 
ATOM     19  H   UNL     1       5.277   3.189  15.984  0.00  0.00    +0.000 HD
BRANCH  18  20
ATOM     20  S   UNL     1       6.844   4.863  16.083  0.00  0.00    +0.000 S 
ATOM     21  O   UNL     1       6.406   6.234  16.234  0.00  0.00    +0.000 OA
ATOM     22  O   UNL     1       8.087   4.404  16.667  0.00  0.00    +0.000 OA
BRANCH  20  23
ATOM     23  C   UNL     1       6.852   4.504  14.346  0.00  0.00    +0.000 A 
ATOM     24  C   UNL     1       7.740   5.196  13.516  0.00  0.00    +0.000 A 
ATOM     25  C   UNL     1       7.705   4.973  12.140  0.00  0.00    +0.000 A 
ATOM     26  C   UNL     1       6.803   4.051  11.605  0.00  0.00    +0.000 A 
ATOM     27  C   UNL     1       5.941   3.340  12.444  0.00  0.00    +0.000 A 
ATOM     28  C   UNL     1       5.962   3.566  13.821  0.00  0.00    +0.000 A 
ENDBRANCH  20  23
ENDBRANCH  18  20
ENDBRANCH   4  18
TORSDOF 6
ENDMDL
MODEL 2
REMARK VINA RESULT:      -8.0      2.786      3.808
REMARK  Name = 
REMARK  6 active torsions:
REMARK  status: ('A' for Active; 'I' for Inactive)
REMARK    1  A    between atoms: C_2  and  C_11
REMARK    2  A    between atoms: N_3  and  C_4
REMARK    3  A    between atoms: C_4  and  C_5
REMARK    4  A    between atoms: C_14  and  N_15
REMARK    5  A    between atoms: N_15  and  S_16
REMARK    6  A    between atoms: S_16  and  C_19
REMARK                            x       y       z     vdW  Elec       q    Type
REMARK                         _______ _______ _______ _____ _____    ______ ____
ROOT
ATOM      1  C   UNL     1       1.843   8.570  18.902  0.00  0.00    +0.000 A 
ATOM      2  C   UNL     1       2.539   8.118  17.773  0.00  0.00    +0.000 A 
ATOM      3  C   UNL     1       3.115   6.842  17.765  0.00  0.00    +0.000 A 
ATOM      4  C   UNL     1       2.979   6.017  18.880  0.00  0.00    +0.000 A 
ATOM      5  C   UNL     1       2.276   6.456  20.001  0.00  0.00    +0.000 A 
ATOM      6  C   UNL     1       1.706   7.731  20.014  0.00  0.00    +0.000 A 
ENDROOT
BRANCH   1   8
ATOM      7  O   UNL     1       1.843  10.882  18.451  0.00  0.00    +0.000 OA
ATOM      8  C   UNL     1       1.215   9.918  18.875  0.00  0.00    +0.000 C 
ATOM      9  N   UNL     1      -0.072   9.997  19.345  0.00  0.00    +0.000 N 
ATOM     10  H   UNL     1      -0.504   9.226  19.841  0.00  0.00    +0.000 HD
BRANCH   9  11
ATOM     11  C   UNL     1      -0.808  11.242  19.369  0.00  0.00    +0.000 C 
BRANCH  11  12
ATOM     12  C   UNL     1      -2.094  11.157  18.569  0.00  0.00    +0.000 A 
ATOM     13  C   UNL     1      -2.122  10.402  17.397  0.00  0.00    +0.000 A 
ATOM     14  C   UNL     1      -3.294  10.366  16.645  0.00  0.00    +0.000 A 
ATOM     15  C   UNL     1      -4.400  11.085  17.074  0.00  0.00    +0.000 A 
ATOM     16  C   UNL     1      -4.292  11.815  18.246  0.00  0.00    +0.000 A 
ATOM     17  N   UNL     1      -3.169  11.872  19.002  0.00  0.00    +0.000 NA
ENDBRANCH  11  12
ENDBRANCH   9  11
ENDBRANCH   1   8
BRANCH   4  18
ATOM     18  N   UNL     1       3.506   4.703  18.880  0.00  0.00    +0.000 N 
ATOM     19  H   UNL     1       3.028   3.972  18.354  0.00  0.00    +0.000 HD
BRANCH  18  20
ATOM     20  S   UNL     1       5.165   4.464  19.030  0.00  0.00    +0.000 S 
ATOM     21  O   UNL     1       5.689   5.645  19.682  0.00  0.00    +0.000 OA
ATOM     22  O   UNL     1       5.404   3.142  19.569  0.00  0.00    +0.000 OA
BRANCH  20  23
ATOM     23  C   UNL     1       5.712   4.510  17.344  0.00  0.00    +0.000 A 
ATOM     24  C   UNL     1       4.839   4.088  16.336  0.00  0.00    +0.000 A 
ATOM     25  C   UNL     1       5.284   4.053  15.015  0.00  0.00    +0.000 A 
ATOM     26  C   UNL     1       6.584   4.457  14.706  0.00  0.00    +0.000 A 
ATOM     27  C   UNL     1       7.441   4.907  15.713  0.00  0.00    +0.000 A 
ATOM     28  C   UNL     1       7.007   4.934  17.039  0.00  0.00    +0.000 A 
ENDBRANCH  20  23
ENDBRANCH  18  20
ENDBRANCH   4  18
TORSDOF 6
ENDMDL
MODEL 3
REMARK VINA RESULT:      -8.0      2.575      3.547
REMARK  Name = 
REMARK  6 active torsions:
REMARK  status: ('A' for Active; 'I' for Inactive)
REMARK    1  A    between atoms: C_2  and  C_11
REMARK    2  A    between atoms: N_3  and  C_4
REMARK    3  A    between atoms: C_4  and  C_5
REMARK    4  A    between atoms: C_14  and  N_15
REMARK    5  A    between atoms: N_15  and  S_16
REMARK    6  A    between atoms: S_16  and  C_19
REMARK                            x       y       z     vdW  Elec       q    Type
REMARK                         _______ _______ _______ _____ _____    ______ ____
ROOT
ATOM      1  C   UNL     1       1.608   8.272  19.613  0.00  0.00    +0.000 A 
ATOM      2  C   UNL     1       2.213   8.047  18.369  0.00  0.00    +0.000 A 
ATOM      3  C   UNL     1       2.853   6.830  18.107  0.00  0.00    +0.000 A 
ATOM      4  C   UNL     1       2.870   5.836  19.084  0.00  0.00    +0.000 A 
ATOM      5  C   UNL     1       2.256   6.048  20.318  0.00  0.00    +0.000 A 
ATOM      6  C   UNL     1       1.624   7.264  20.584  0.00  0.00    +0.000 A 
ENDROOT
BRANCH   1   8
ATOM      7  O   UNL     1       0.783   9.990  20.998  0.00  0.00    +0.000 OA
ATOM      8  C   UNL     1       0.909   9.563  19.856  0.00  0.00    +0.000 C 
ATOM      9  N   UNL     1       0.433  10.212  18.744  0.00  0.00    +0.000 N 
ATOM     10  H   UNL     1       0.401   9.761  17.838  0.00  0.00    +0.000 HD
BRANCH   9  11
ATOM     11  C   UNL     1      -0.259  11.480  18.831  0.00  0.00    +0.000 C 
BRANCH  11  12
ATOM     12  C   UNL     1      -1.750  11.330  18.599  0.00  0.00    +0.000 A 
ATOM     13  C   UNL     1      -2.206  10.410  17.655  0.00  0.00    +0.000 A 
ATOM     14  C   UNL     1      -3.574  10.311  17.415  0.00  0.00    +0.000 A 
ATOM     15  C   UNL     1      -4.449  11.132  18.113  0.00  0.00    +0.000 A 
ATOM     16  C   UNL     1      -3.918  12.024  19.029  0.00  0.00    +0.000 A 
ATOM     17  N   UNL     1      -2.594  12.147  19.288  0.00  0.00    +0.000 NA
ENDBRANCH  11  12
ENDBRANCH   9  11
ENDBRANCH   1   8
BRANCH   4  18
ATOM     18  N   UNL     1       3.463   4.577  18.827  0.00  0.00    +0.000 N 
ATOM     19  H   UNL     1       3.049   3.961  18.128  0.00  0.00    +0.000 HD
BRANCH  18  20
ATOM     20  S   UNL     1       5.124   4.377  19.017  0.00  0.00    +0.000 S 
ATOM     21  O   UNL     1       5.607   5.578  19.664  0.00  0.00    +0.000 OA
ATOM     22  O   UNL     1       5.380   3.067  19.579  0.00  0.00    +0.000 OA
BRANCH  20  23
ATOM     23  C   UNL     1       5.707   4.413  17.343  0.00  0.00    +0.000 A 
ATOM     24  C   UNL     1       7.050   4.719  17.100  0.00  0.00    +0.000 A 
ATOM     25  C   UNL     1       7.502   4.819  15.785  0.00  0.00    +0.000 A 
ATOM     26  C   UNL     1       6.621   4.597  14.725  0.00  0.00    +0.000 A 
ATOM     27  C   UNL     1       5.288   4.261  14.975  0.00  0.00    +0.000 A 
ATOM     28  C   UNL     1       4.825   4.169  16.288  0.00  0.00    +0.000 A 
ENDBRANCH  20  23
ENDBRANCH  18  20
ENDBRANCH   4  18
TORSDOF 6
ENDMDL
MODEL 4
REMARK VINA RESULT:      -7.9      2.997      4.299
REMARK  Name = 
REMARK  6 active torsions:
REMARK  status: ('A' for Active; 'I' for Inactive)
REMARK    1  A    between atoms: C_2  and  C_11
REMARK    2  A    between atoms: N_3  and  C_4
REMARK    3  A    between atoms: C_4  and  C_5
REMARK    4  A    between atoms: C_14  and  N_15
REMARK    5  A    between atoms: N_15  and  S_16
REMARK    6  A    between atoms: S_16  and  C_19
REMARK                            x       y       z     vdW  Elec       q    Type
REMARK                         _______ _______ _______ _____ _____    ______ ____
ROOT
ATOM      1  C   UNL     1       1.615   8.587  19.281  0.00  0.00    +0.000 A 
ATOM      2  C   UNL     1       2.405   8.124  18.220  0.00  0.00    +0.000 A 
ATOM      3  C   UNL     1       3.072   6.898  18.322  0.00  0.00    +0.000 A 
ATOM      4  C   UNL     1       2.935   6.132  19.478  0.00  0.00    +0.000 A 
ATOM      5  C   UNL     1       2.138   6.580  20.531  0.00  0.00    +0.000 A 
ATOM      6  C   UNL     1       1.477   7.806  20.435  0.00  0.00    +0.000 A 
ENDROOT
BRANCH   1   8
ATOM      7  O   UNL     1       1.518  10.919  18.965  0.00  0.00    +0.000 OA
ATOM      8  C   UNL     1       0.892   9.879  19.136  0.00  0.00    +0.000 C 
ATOM      9  N   UNL     1      -0.478   9.819  19.209  0.00  0.00    +0.000 N 
ATOM     10  H   UNL     1      -0.956   8.981  19.516  0.00  0.00    +0.000 HD
BRANCH   9  11
ATOM     11  C   UNL     1      -1.308  10.996  19.076  0.00  0.00    +0.000 C 
BRANCH  11  12
ATOM     12  C   UNL     1      -2.292  10.870  17.929  0.00  0.00    +0.000 A 
ATOM     13  C   UNL     1      -1.978  10.051  16.845  0.00  0.00    +0.000 A 
ATOM     14  C   UNL     1      -2.867   9.976  15.776  0.00  0.00    +0.000 A 
ATOM     15  C   UNL     1      -4.037  10.722  15.810  0.00  0.00    +0.000 A 
ATOM     16  C   UNL     1      -4.275  11.515  16.920  0.00  0.00    +0.000 A 
ATOM     17  N   UNL     1      -3.434  11.611  17.977  0.00  0.00    +0.000 NA
ENDBRANCH  11  12
ENDBRANCH   9  11
ENDBRANCH   1   8
BRANCH   4  18
ATOM     18  N   UNL     1       3.556   4.865  19.588  0.00  0.00    +0.000 N 
ATOM     19  H   UNL     1       3.640   4.426  20.504  0.00  0.00    +0.000 HD
BRANCH  18  20
ATOM     20  S   UNL     1       3.462   3.771  18.311  0.00  0.00    +0.000 S 
ATOM     21  O   UNL     1       3.661   2.458  18.885  0.00  0.00    +0.000 OA
ATOM     22  O   UNL     1       2.290   4.073  17.516  0.00  0.00    +0.000 OA
BRANCH  20  23
ATOM     23  C   UNL     1       4.916   4.157  17.370  0.00  0.00    +0.000 A 
ATOM     24  C   UNL     1       4.849   4.117  15.974  0.00  0.00    +0.000 A 
ATOM     25  C   UNL     1       6.003   4.349  15.227  0.00  0.00    +0.000 A 
ATOM     26  C   UNL     1       7.206   4.638  15.873  0.00  0.00    +0.000 A 
ATOM     27  C   UNL     1       7.259   4.707  17.267  0.00  0.00    +0.000 A 
ATOM     28  C   UNL     1       6.111   4.465  18.023  0.00  0.00    +0.000 A 
ENDBRANCH  20  23
ENDBRANCH  18  20
ENDBRANCH   4  18
TORSDOF 6
ENDMDL
MODEL 5
REMARK VINA RESULT:      -7.8      2.488      3.640
REMARK  Name = 
REMARK  6 active torsions:
REMARK  status: ('A' for Active; 'I' for Inactive)
REMARK    1  A    between atoms: C_2  and  C_11
REMARK    2  A    between atoms: N_3  and  C_4
REMARK    3  A    between atoms: C_4  and  C_5
REMARK    4  A    between atoms: C_14  and  N_15
REMARK    5  A    between atoms: N_15  and  S_16
REMARK    6  A    between atoms: S_16  and  C_19
REMARK                            x       y       z     vdW  Elec       q    Type
REMARK                         _______ _______ _______ _____ _____    ______ ____
ROOT
ATOM      1  C   UNL     1       1.845   8.685  18.847  0.00  0.00    +0.000 A 
ATOM      2  C   UNL     1       2.467   8.210  17.685  0.00  0.00    +0.000 A 
ATOM      3  C   UNL     1       3.006   6.918  17.652  0.00  0.00    +0.000 A 
ATOM      4  C   UNL     1       2.905   6.101  18.777  0.00  0.00    +0.000 A 
ATOM      5  C   UNL     1       2.275   6.563  19.931  0.00  0.00    +0.000 A 
ATOM      6  C   UNL     1       1.743   7.853  19.968  0.00  0.00    +0.000 A 
ENDROOT
BRANCH   1   8
ATOM      7  O   UNL     1       1.906  11.003  18.432  0.00  0.00    +0.000 OA
ATOM      8  C   UNL     1       1.255  10.051  18.847  0.00  0.00    +0.000 C 
ATOM      9  N   UNL     1      -0.025  10.158  19.330  0.00  0.00    +0.000 N 
ATOM     10  H   UNL     1      -0.474   9.392  19.819  0.00  0.00    +0.000 HD
BRANCH   9  11
ATOM     11  C   UNL     1      -0.726  11.422  19.381  0.00  0.00    +0.000 C 
BRANCH  11  12
ATOM     12  C   UNL     1      -1.325  11.685  20.749  0.00  0.00    +0.000 A 
ATOM     13  C   UNL     1      -0.776  11.060  21.868  0.00  0.00    +0.000 A 
ATOM     14  C   UNL     1      -1.361  11.271  23.114  0.00  0.00    +0.000 A 
ATOM     15  C   UNL     1      -2.477  12.089  23.212  0.00  0.00    +0.000 A 
ATOM     16  C   UNL     1      -2.967  12.669  22.054  0.00  0.00    +0.000 A 
ATOM     17  N   UNL     1      -2.424  12.486  20.827  0.00  0.00    +0.000 NA
ENDBRANCH  11  12
ENDBRANCH   9  11
ENDBRANCH   1   8
BRANCH   4  18
ATOM     18  N   UNL     1       3.394   4.772  18.754  0.00  0.00    +0.000 N 
ATOM     19  H   UNL     1       2.933   4.079  18.166  0.00  0.00    +0.000 HD
BRANCH  18  20
ATOM     20  S   UNL     1       5.032   4.476  19.005  0.00  0.00    +0.000 S 
ATOM     21  O   UNL     1       5.561   5.651  19.664  0.00  0.00    +0.000 OA
ATOM     22  O   UNL     1       5.190   3.157  19.582  0.00  0.00    +0.000 OA
BRANCH  20  23
ATOM     23  C   UNL     1       5.676   4.467  17.353  0.00  0.00    +0.000 A 
ATOM     24  C   UNL     1       7.014   4.818  17.146  0.00  0.00    +0.000 A 
ATOM     25  C   UNL     1       7.511   4.882  15.844  0.00  0.00    +0.000 A 
ATOM     26  C   UNL     1       6.681   4.578  14.764  0.00  0.00    +0.000 A 
ATOM     27  C   UNL     1       5.354   4.199  14.980  0.00  0.00    +0.000 A 
ATOM     28  C   UNL     1       4.845   4.142  16.279  0.00  0.00    +0.000 A 
ENDBRANCH  20  23
ENDBRANCH  18  20
ENDBRANCH   4  18
TORSDOF 6
ENDMDL
MODEL 6
REMARK VINA RESULT:      -7.8      2.934      3.949
REMARK  Name = 
REMARK  6 active torsions:
REMARK  status: ('A' for Active; 'I' for Inactive)
REMARK    1  A    between atoms: C_2  and  C_11
REMARK    2  A    between atoms: N_3  and  C_4
REMARK    3  A    between atoms: C_4  and  C_5
REMARK    4  A    between atoms: C_14  and  N_15
REMARK    5  A    between atoms: N_15  and  S_16
REMARK    6  A    between atoms: S_16  and  C_19
REMARK                            x       y       z     vdW  Elec       q    Type
REMARK                         _______ _______ _______ _____ _____    ______ ____
ROOT
ATOM      1  C   UNL     1       1.955   8.735  18.685  0.00  0.00    +0.000 A 
ATOM      2  C   UNL     1       2.659   8.215  17.590  0.00  0.00    +0.000 A 
ATOM      3  C   UNL     1       3.181   6.917  17.640  0.00  0.00    +0.000 A 
ATOM      4  C   UNL     1       2.983   6.139  18.779  0.00  0.00    +0.000 A 
ATOM      5  C   UNL     1       2.271   6.645  19.866  0.00  0.00    +0.000 A 
ATOM      6  C   UNL     1       1.755   7.942  19.820  0.00  0.00    +0.000 A 
ENDROOT
BRANCH   1   8
ATOM      7  O   UNL     1       2.107  11.055  18.305  0.00  0.00    +0.000 OA
ATOM      8  C   UNL     1       1.386  10.107  18.594  0.00  0.00    +0.000 C 
ATOM      9  N   UNL     1       0.043  10.223  18.853  0.00  0.00    +0.000 N 
ATOM     10  H   UNL     1      -0.489   9.458  19.251  0.00  0.00    +0.000 HD
BRANCH   9  11
ATOM     11  C   UNL     1      -0.645  11.494  18.793  0.00  0.00    +0.000 C 
BRANCH  11  12
ATOM     12  C   UNL     1      -1.968  11.390  18.059  0.00  0.00    +0.000 A 
ATOM     13  C   UNL     1      -3.144  11.757  18.712  0.00  0.00    +0.000 A 
ATOM     14  C   UNL     1      -4.359  11.615  18.046  0.00  0.00    +0.000 A 
ATOM     15  C   UNL     1      -4.372  11.108  16.755  0.00  0.00    +0.000 A 
ATOM     16  C   UNL     1      -3.162  10.761  16.176  0.00  0.00    +0.000 A 
ATOM     17  N   UNL     1      -1.963  10.886  16.794  0.00  0.00    +0.000 NA
ENDBRANCH  11  12
ENDBRANCH   9  11
ENDBRANCH   1   8
BRANCH   4  18
ATOM     18  N   UNL     1       3.453   4.805  18.837  0.00  0.00    +0.000 N 
ATOM     19  H   UNL     1       2.952   4.074  18.333  0.00  0.00    +0.000 HD
BRANCH  18  20
ATOM     20  S   UNL     1       5.099   4.502  19.023  0.00  0.00    +0.000 S 
ATOM     21  O   UNL     1       5.660   5.680  19.649  0.00  0.00    +0.000 OA
ATOM     22  O   UNL     1       5.275   3.187  19.602  0.00  0.00    +0.000 OA
BRANCH  20  23
ATOM     23  C   UNL     1       5.674   4.478  17.345  0.00  0.00    +0.000 A 
ATOM     24  C   UNL     1       6.953   4.967  17.060  0.00  0.00    +0.000 A 
ATOM     25  C   UNL     1       7.387   5.017  15.736  0.00  0.00    +0.000 A 
ATOM     26  C   UNL     1       6.555   4.563  14.711  0.00  0.00    +0.000 A 
ATOM     27  C   UNL     1       5.291   4.047  15.005  0.00  0.00    +0.000 A 
ATOM     28  C   UNL     1       4.844   4.003  16.327  0.00  0.00    +0.000 A 
ENDBRANCH  20  23
ENDBRANCH  18  20
ENDBRANCH   4  18
TORSDOF 6
ENDMDL
MODEL 7
REMARK VINA RESULT:      -7.8      3.025      4.287
REMARK  Name = 
REMARK  6 active torsions:
REMARK  status: ('A' for Active; 'I' for Inactive)
REMARK    1  A    between atoms: C_2  and  C_11
REMARK    2  A    between atoms: N_3  and  C_4
REMARK    3  A    between atoms: C_4  and  C_5
REMARK    4  A    between atoms: C_14  and  N_15
REMARK    5  A    between atoms: N_15  and  S_16
REMARK    6  A    between atoms: S_16  and  C_19
REMARK                            x       y       z     vdW  Elec       q    Type
REMARK                         _______ _______ _______ _____ _____    ______ ____
ROOT
ATOM      1  C   UNL     1       1.748   8.687  18.910  0.00  0.00    +0.000 A 
ATOM      2  C   UNL     1       1.532   7.944  20.079  0.00  0.00    +0.000 A 
ATOM      3  C   UNL     1       2.202   6.731  20.276  0.00  0.00    +0.000 A 
ATOM      4  C   UNL     1       3.097   6.273  19.311  0.00  0.00    +0.000 A 
ATOM      5  C   UNL     1       3.327   7.015  18.153  0.00  0.00    +0.000 A 
ATOM      6  C   UNL     1       2.655   8.222  17.951  0.00  0.00    +0.000 A 
ENDROOT
BRANCH   1   8
ATOM      7  O   UNL     1       1.649  10.959  18.298  0.00  0.00    +0.000 OA
ATOM      8  C   UNL     1       1.046   9.987  18.738  0.00  0.00    +0.000 C 
ATOM      9  N   UNL     1      -0.278  10.013  19.100  0.00  0.00    +0.000 N 
ATOM     10  H   UNL     1      -0.703   9.251  19.615  0.00  0.00    +0.000 HD
BRANCH   9  11
ATOM     11  C   UNL     1      -1.086  11.207  18.979  0.00  0.00    +0.000 C 
BRANCH  11  12
ATOM     12  C   UNL     1      -2.138  11.073  17.894  0.00  0.00    +0.000 A 
ATOM     13  C   UNL     1      -3.401  11.631  18.093  0.00  0.00    +0.000 A 
ATOM     14  C   UNL     1      -4.374  11.464  17.112  0.00  0.00    +0.000 A 
ATOM     15  C   UNL     1      -4.069  10.744  15.966  0.00  0.00    +0.000 A 
ATOM     16  C   UNL     1      -2.794  10.217  15.844  0.00  0.00    +0.000 A 
ATOM     17  N   UNL     1      -1.823  10.360  16.778  0.00  0.00    +0.000 NA
ENDBRANCH  11  12
ENDBRANCH   9  11
ENDBRANCH   1   8
BRANCH   4  18
ATOM     18  N   UNL     1       3.828   5.077  19.508  0.00  0.00    +0.000 N 
ATOM     19  H   UNL     1       4.040   4.770  20.456  0.00  0.00    +0.000 HD
BRANCH  18  20
ATOM     20  S   UNL     1       3.695   3.820  18.396  0.00  0.00    +0.000 S 
ATOM     21  O   UNL     1       4.069   2.612  19.101  0.00  0.00    +0.000 OA
ATOM     22  O   UNL     1       2.424   3.927  17.711  0.00  0.00    +0.000 OA
BRANCH  20  23
ATOM     23  C   UNL     1       5.001   4.182  17.251  0.00  0.00    +0.000 A 
ATOM     24  C   UNL     1       4.740   4.107  15.879  0.00  0.00    +0.000 A 
ATOM     25  C   UNL     1       5.778   4.321  14.972  0.00  0.00    +0.000 A 
ATOM     26  C   UNL     1       7.058   4.627  15.437  0.00  0.00    +0.000 A 
ATOM     27  C   UNL     1       7.305   4.731  16.807  0.00  0.00    +0.000 A 
ATOM     28  C   UNL     1       6.275   4.508  17.722  0.00  0.00    +0.000 A 
ENDBRANCH  20  23
ENDBRANCH  18  20
ENDBRANCH   4  18
TORSDOF 6
ENDMDL
MODEL 8
REMARK VINA RESULT:      -7.8      2.499      3.434
REMARK  Name = 
REMARK  6 active torsions:
REMARK  status: ('A' for Active; 'I' for Inactive)
REMARK    1  A    between atoms: C_2  and  C_11
REMARK    2  A    between atoms: N_3  and  C_4
REMARK    3  A    between atoms: C_4  and  C_5
REMARK    4  A    between atoms: C_14  and  N_15
REMARK    5  A    between atoms: N_15  and  S_16
REMARK    6  A    between atoms: S_16  and  C_19
REMARK                            x       y       z     vdW  Elec       q    Type
REMARK                         _______ _______ _______ _____ _____    ______ ____
ROOT
ATOM      1  C   UNL     1       1.554   8.136  19.823  0.00  0.00    +0.000 A 
ATOM      2  C   UNL     1       1.517   7.047  20.705  0.00  0.00    +0.000 A 
ATOM      3  C   UNL     1       2.092   5.825  20.339  0.00  0.00    +0.000 A 
ATOM      4  C   UNL     1       2.716   5.700  19.099  0.00  0.00    +0.000 A 
ATOM      5  C   UNL     1       2.768   6.784  18.223  0.00  0.00    +0.000 A 
ATOM      6  C   UNL     1       2.190   8.003  18.583  0.00  0.00    +0.000 A 
ENDROOT
BRANCH   1   8
ATOM      7  O   UNL     1       1.084   9.816  21.407  0.00  0.00    +0.000 OA
ATOM      8  C   UNL     1       0.961   9.433  20.248  0.00  0.00    +0.000 C 
ATOM      9  N   UNL     1       0.291  10.138  19.280  0.00  0.00    +0.000 N 
ATOM     10  H   UNL     1       0.062   9.725  18.385  0.00  0.00    +0.000 HD
BRANCH   9  11
ATOM     11  C   UNL     1      -0.327  11.418  19.550  0.00  0.00    +0.000 C 
BRANCH  11  12
ATOM     12  C   UNL     1      -1.781  11.448  19.121  0.00  0.00    +0.000 A 
ATOM     13  C   UNL     1      -2.192  10.667  18.041  0.00  0.00    +0.000 A 
ATOM     14  C   UNL     1      -3.519  10.734  17.625  0.00  0.00    +0.000 A 
ATOM     15  C   UNL     1      -4.398  11.580  18.287  0.00  0.00    +0.000 A 
ATOM     16  C   UNL     1      -3.912  12.328  19.347  0.00  0.00    +0.000 A 
ATOM     17  N   UNL     1      -2.629  12.287  19.778  0.00  0.00    +0.000 NA
ENDBRANCH  11  12
ENDBRANCH   9  11
ENDBRANCH   1   8
BRANCH   4  18
ATOM     18  N   UNL     1       3.351   4.492  18.724  0.00  0.00    +0.000 N 
ATOM     19  H   UNL     1       2.991   3.962  17.931  0.00  0.00    +0.000 HD
BRANCH  18  20
ATOM     20  S   UNL     1       5.003   4.297  18.984  0.00  0.00    +0.000 S 
ATOM     21  O   UNL     1       5.448   5.485  19.680  0.00  0.00    +0.000 OA
ATOM     22  O   UNL     1       5.242   2.975  19.526  0.00  0.00    +0.000 OA
BRANCH  20  23
ATOM     23  C   UNL     1       5.661   4.376  17.339  0.00  0.00    +0.000 A 
ATOM     24  C   UNL     1       7.019   4.662  17.166  0.00  0.00    +0.000 A 
ATOM     25  C   UNL     1       7.531   4.796  15.876  0.00  0.00    +0.000 A 
ATOM     26  C   UNL     1       6.694   4.626  14.772  0.00  0.00    +0.000 A 
ATOM     27  C   UNL     1       5.345   4.311  14.951  0.00  0.00    +0.000 A 
ATOM     28  C   UNL     1       4.822   4.185  16.239  0.00  0.00    +0.000 A 
ENDBRANCH  20  23
ENDBRANCH  18  20
ENDBRANCH   4  18
TORSDOF 6
ENDMDL
MODEL 9
REMARK VINA RESULT:      -7.8      2.554      3.705
REMARK  Name = 
REMARK  6 active torsions:
REMARK  status: ('A' for Active; 'I' for Inactive)
REMARK    1  A    between atoms: C_2  and  C_11
REMARK    2  A    between atoms: N_3  and  C_4
REMARK    3  A    between atoms: C_4  and  C_5
REMARK    4  A    between atoms: C_14  and  N_15
REMARK    5  A    between atoms: N_15  and  S_16
REMARK    6  A    between atoms: S_16  and  C_19
REMARK                            x       y       z     vdW  Elec       q    Type
REMARK                         _______ _______ _______ _____ _____    ______ ____
ROOT
ATOM      1  C   UNL     1       1.607   8.495  19.553  0.00  0.00    +0.000 A 
ATOM      2  C   UNL     1       2.198   8.251  18.306  0.00  0.00    +0.000 A 
ATOM      3  C   UNL     1       2.771   7.004  18.030  0.00  0.00    +0.000 A 
ATOM      4  C   UNL     1       2.738   6.001  18.998  0.00  0.00    +0.000 A 
ATOM      5  C   UNL     1       2.139   6.234  20.235  0.00  0.00    +0.000 A 
ATOM      6  C   UNL     1       1.572   7.479  20.515  0.00  0.00    +0.000 A 
ENDROOT
BRANCH   1   8
ATOM      7  O   UNL     1       0.668  10.143  20.951  0.00  0.00    +0.000 OA
ATOM      8  C   UNL     1       0.979   9.819  19.810  0.00  0.00    +0.000 C 
ATOM      9  N   UNL     1       0.779  10.618  18.712  0.00  0.00    +0.000 N 
ATOM     10  H   UNL     1       0.888  10.263  17.770  0.00  0.00    +0.000 HD
BRANCH   9  11
ATOM     11  C   UNL     1       0.185  11.934  18.815  0.00  0.00    +0.000 C 
BRANCH  11  12
ATOM     12  C   UNL     1      -1.325  11.887  18.683  0.00  0.00    +0.000 A 
ATOM     13  C   UNL     1      -2.118  12.355  19.730  0.00  0.00    +0.000 A 
ATOM     14  C   UNL     1      -3.503  12.267  19.620  0.00  0.00    +0.000 A 
ATOM     15  C   UNL     1      -4.060  11.710  18.478  0.00  0.00    +0.000 A 
ATOM     16  C   UNL     1      -3.206  11.263  17.484  0.00  0.00    +0.000 A 
ATOM     17  N   UNL     1      -1.855  11.333  17.558  0.00  0.00    +0.000 NA
ENDBRANCH  11  12
ENDBRANCH   9  11
ENDBRANCH   1   8
BRANCH   4  18
ATOM     18  N   UNL     1       3.263   4.715  18.728  0.00  0.00    +0.000 N 
ATOM     19  H   UNL     1       2.856   4.155  17.979  0.00  0.00    +0.000 HD
BRANCH  18  20
ATOM     20  S   UNL     1       4.891   4.396  19.014  0.00  0.00    +0.000 S 
ATOM     21  O   UNL     1       5.414   5.547  19.717  0.00  0.00    +0.000 OA
ATOM     22  O   UNL     1       5.021   3.060  19.558  0.00  0.00    +0.000 OA
BRANCH  20  23
ATOM     23  C   UNL     1       5.579   4.423  17.379  0.00  0.00    +0.000 A 
ATOM     24  C   UNL     1       6.945   4.680  17.223  0.00  0.00    +0.000 A 
ATOM     25  C   UNL     1       7.481   4.774  15.939  0.00  0.00    +0.000 A 
ATOM     26  C   UNL     1       6.660   4.593  14.825  0.00  0.00    +0.000 A 
ATOM     27  C   UNL     1       5.303   4.307  14.988  0.00  0.00    +0.000 A 
ATOM     28  C   UNL     1       4.756   4.221  16.269  0.00  0.00    +0.000 A 
ENDBRANCH  20  23
ENDBRANCH  18  20
ENDBRANCH   4  18
TORSDOF 6
ENDMDL
