MODEL 1
REMARK VINA RESULT:      -7.6      0.000      0.000
REMARK  Name = 
REMARK  14 active torsions:
REMARK  status: ('A' for Active; 'I' for Inactive)
REMARK    1  A    between atoms: C_1  and  C_2
REMARK    2  A    between atoms: C_2  and  N_3
REMARK    3  A    between atoms: N_3  and  C_4
REMARK    4  A    between atoms: N_3  and  S_6
REMARK    5  A    between atoms: C_4  and  C_5
REMARK    6  A    between atoms: S_6  and  C_9
REMARK    7  A    between atoms: C_17  and  C_18
REMARK    8  A    between atoms: N_20  and  C_21
REMARK    9  A    between atoms: C_21  and  C_22
REMARK   10  A    between atoms: C_22  and  C_23
REMARK   11  A    between atoms: C_23  and  N_24
REMARK   12  A    between atoms: N_24  and  C_25
REMARK   13  A    between atoms: N_24  and  C_26
REMARK   14  A    between atoms: N_33  and  C_34
REMARK                            x       y       z     vdW  Elec       q    Type
REMARK                         _______ _______ _______ _____ _____    ______ ____
ROOT
ATOM      1  C   UNL     1      -5.107  12.778  19.821  0.00  0.00    +0.000 A 
ATOM      2  C   UNL     1      -5.638  12.385  18.594  0.00  0.00    +0.000 A 
ATOM      3  C   UNL     1      -4.816  11.736  17.654  0.00  0.00    +0.000 A 
ATOM      4  C   UNL     1      -3.468  11.449  17.932  0.00  0.00    +0.000 A 
ATOM      5  C   UNL     1      -2.975  11.863  19.183  0.00  0.00    +0.000 A 
ATOM      6  C   UNL     1      -3.772  12.537  20.116  0.00  0.00    +0.000 A 
ATOM      7  C   UNL     1      -1.570  11.573  19.555  0.00  0.00    +0.000 A 
ATOM      8  O   UNL     1      -1.120  11.987  20.626  0.00  0.00    +0.000 OA
ATOM      9  C   UNL     1      -0.759  10.756  18.637  0.00  0.00    +0.000 A 
ATOM     10  C   UNL     1      -1.322  10.436  17.457  0.00  0.00    +0.000 A 
ATOM     11  N   UNL     1      -2.607  10.767  17.040  0.00  0.00    +0.000 N 
ATOM     12  C   UNL     1      -3.117  10.379  15.724  0.00  0.00    +0.000 C 
ENDROOT
BRANCH   9  13
ATOM     13  C   UNL     1       0.618  10.272  18.964  0.00  0.00    +0.000 C 
ATOM     14  O   UNL     1       1.310  10.832  19.807  0.00  0.00    +0.000 OA
ATOM     15  N   UNL     1       1.045   9.184  18.243  0.00  0.00    +0.000 N 
ATOM     16  H   UNL     1       0.381   8.732  17.610  0.00  0.00    +0.000 HD
BRANCH  15  17
ATOM     17  C   UNL     1       2.323   8.547  18.480  0.00  0.00    +0.000 C 
BRANCH  17  18
ATOM     18  C   UNL     1       2.739   7.704  17.281  0.00  0.00    +0.000 C 
BRANCH  18  19
ATOM     19  C   UNL     1       3.931   6.811  17.615  0.00  0.00    +0.000 C 
BRANCH  19  20
ATOM     20  N   UNL     1       3.630   5.374  17.555  0.00  0.00    +0.000 N 
ATOM     21  C   UNL     1       4.530   4.439  16.878  0.00  0.00    +0.000 C 
BRANCH  20  22
ATOM     22  C   UNL     1       2.851   4.825  18.586  0.00  0.00    +0.000 A 
ATOM     23  C   UNL     1       1.772   3.977  18.285  0.00  0.00    +0.000 A 
ATOM     24  C   UNL     1       0.933   3.467  19.280  0.00  0.00    +0.000 A 
ATOM     25  C   UNL     1       1.164   3.778  20.615  0.00  0.00    +0.000 A 
ATOM     26  C   UNL     1       2.234   4.598  20.949  0.00  0.00    +0.000 A 
ATOM     27  C   UNL     1       3.061   5.119  19.945  0.00  0.00    +0.000 A 
ENDBRANCH  20  22
ENDBRANCH  19  20
ENDBRANCH  18  19
ENDBRANCH  17  18
ENDBRANCH  15  17
ENDBRANCH   9  13
BRANCH   1  28
ATOM     28  S   UNL     1      -6.111  13.649  21.001  0.00  0.00    +0.000 S 
ATOM     29  O   UNL     1      -7.269  14.132  20.286  0.00  0.00    +0.000 OA
ATOM     30  O   UNL     1      -5.253  14.549  21.735  0.00  0.00    +0.000 OA
BRANCH  28  31
ATOM     31  N   UNL     1      -6.618  12.421  22.107  0.00  0.00    +0.000 NA
BRANCH  31  33
ATOM     32  C   UNL     1      -7.803  13.606  24.011  0.00  0.00    +0.000 C 
ATOM     33  C   UNL     1      -6.563  12.870  23.533  0.00  0.00    +0.000 C 
ENDBRANCH  31  33
BRANCH  31  34
ATOM     34  C   UNL     1      -7.901  11.764  21.693  0.00  0.00    +0.000 C 
ATOM     35  C   UNL     1      -7.715  10.372  21.109  0.00  0.00    +0.000 C 
ENDBRANCH  31  34
ENDBRANCH  28  31
ENDBRANCH   1  28
TORSDOF 10
ENDMDL
MODEL 2
REMARK VINA RESULT:      -7.4      3.807      9.675
REMARK  Name = 
REMARK  14 active torsions:
REMARK  status: ('A' for Active; 'I' for Inactive)
REMARK    1  A    between atoms: C_1  and  C_2
REMARK    2  A    between atoms: C_2  and  N_3
REMARK    3  A    between atoms: N_3  and  C_4
REMARK    4  A    between atoms: N_3  and  S_6
REMARK    5  A    between atoms: C_4  and  C_5
REMARK    6  A    between atoms: S_6  and  C_9
REMARK    7  A    between atoms: C_17  and  C_18
REMARK    8  A    between atoms: N_20  and  C_21
REMARK    9  A    between atoms: C_21  and  C_22
REMARK   10  A    between atoms: C_22  and  C_23
REMARK   11  A    between atoms: C_23  and  N_24
REMARK   12  A    between atoms: N_24  and  C_25
REMARK   13  A    between atoms: N_24  and  C_26
REMARK   14  A    between atoms: N_33  and  C_34
REMARK                            x       y       z     vdW  Elec       q    Type
REMARK                         _______ _______ _______ _____ _____    ______ ____
ROOT
ATOM      1  C   UNL     1       2.969   6.549  18.682  0.00  0.00    +0.000 A 
ATOM      2  C   UNL     1       3.244   7.510  17.711  0.00  0.00    +0.000 A 
ATOM      3  C   UNL     1       2.704   8.803  17.836  0.00  0.00    +0.000 A 
ATOM      4  C   UNL     1       1.908   9.162  18.938  0.00  0.00    +0.000 A 
ATOM      5  C   UNL     1       1.657   8.160  19.895  0.00  0.00    +0.000 A 
ATOM      6  C   UNL     1       2.162   6.861  19.767  0.00  0.00    +0.000 A 
ATOM      7  C   UNL     1       0.845   8.473  21.095  0.00  0.00    +0.000 A 
ATOM      8  O   UNL     1       0.576   7.581  21.903  0.00  0.00    +0.000 OA
ATOM      9  C   UNL     1       0.414   9.865  21.304  0.00  0.00    +0.000 A 
ATOM     10  C   UNL     1       0.686  10.735  20.314  0.00  0.00    +0.000 A 
ATOM     11  N   UNL     1       1.369  10.456  19.135  0.00  0.00    +0.000 N 
ATOM     12  C   UNL     1       1.599  11.478  18.112  0.00  0.00    +0.000 C 
ENDROOT
BRANCH   9  13
ATOM     13  C   UNL     1      -0.279  10.335  22.543  0.00  0.00    +0.000 C 
ATOM     14  O   UNL     1       0.093   9.982  23.657  0.00  0.00    +0.000 OA
ATOM     15  N   UNL     1      -1.356  11.161  22.337  0.00  0.00    +0.000 N 
ATOM     16  H   UNL     1      -1.556  11.465  21.382  0.00  0.00    +0.000 HD
BRANCH  15  17
ATOM     17  C   UNL     1      -2.097  11.759  23.426  0.00  0.00    +0.000 C 
BRANCH  17  18
ATOM     18  C   UNL     1      -2.811  13.025  22.966  0.00  0.00    +0.000 C 
BRANCH  18  19
ATOM     19  C   UNL     1      -3.790  12.731  21.832  0.00  0.00    +0.000 C 
BRANCH  19  20
ATOM     20  N   UNL     1      -3.310  13.158  20.511  0.00  0.00    +0.000 N 
ATOM     21  C   UNL     1      -2.186  14.086  20.375  0.00  0.00    +0.000 C 
BRANCH  20  22
ATOM     22  C   UNL     1      -3.505  12.282  19.430  0.00  0.00    +0.000 A 
ATOM     23  C   UNL     1      -2.403  11.689  18.790  0.00  0.00    +0.000 A 
ATOM     24  C   UNL     1      -2.554  10.867  17.669  0.00  0.00    +0.000 A 
ATOM     25  C   UNL     1      -3.821  10.598  17.166  0.00  0.00    +0.000 A 
ATOM     26  C   UNL     1      -4.933  11.153  17.787  0.00  0.00    +0.000 A 
ATOM     27  C   UNL     1      -4.774  11.989  18.899  0.00  0.00    +0.000 A 
ENDBRANCH  20  22
ENDBRANCH  19  20
ENDBRANCH  18  19
ENDBRANCH  17  18
ENDBRANCH  15  17
ENDBRANCH   9  13
BRANCH   1  28
ATOM     28  S   UNL     1       3.595   4.894  18.515  0.00  0.00    +0.000 S 
ATOM     29  O   UNL     1       4.788   4.816  19.326  0.00  0.00    +0.000 OA
ATOM     30  O   UNL     1       3.622   4.570  17.108  0.00  0.00    +0.000 OA
BRANCH  28  31
ATOM     31  N   UNL     1       2.372   3.908  19.236  0.00  0.00    +0.000 NA
BRANCH  31  33
ATOM     32  C   UNL     1       0.651   2.096  18.801  0.00  0.00    +0.000 C 
ATOM     33  C   UNL     1       1.549   3.176  18.222  0.00  0.00    +0.000 C 
ENDBRANCH  31  33
BRANCH  31  34
ATOM     34  C   UNL     1       2.896   3.067  20.361  0.00  0.00    +0.000 C 
ATOM     35  C   UNL     1       2.308   3.426  21.718  0.00  0.00    +0.000 C 
ENDBRANCH  31  34
ENDBRANCH  28  31
ENDBRANCH   1  28
TORSDOF 10
ENDMDL
MODEL 3
REMARK VINA RESULT:      -7.2      3.387      5.668
REMARK  Name = 
REMARK  14 active torsions:
REMARK  status: ('A' for Active; 'I' for Inactive)
REMARK    1  A    between atoms: C_1  and  C_2
REMARK    2  A    between atoms: C_2  and  N_3
REMARK    3  A    between atoms: N_3  and  C_4
REMARK    4  A    between atoms: N_3  and  S_6
REMARK    5  A    between atoms: C_4  and  C_5
REMARK    6  A    between atoms: S_6  and  C_9
REMARK    7  A    between atoms: C_17  and  C_18
REMARK    8  A    between atoms: N_20  and  C_21
REMARK    9  A    between atoms: C_21  and  C_22
REMARK   10  A    between atoms: C_22  and  C_23
REMARK   11  A    between atoms: C_23  and  N_24
REMARK   12  A    between atoms: N_24  and  C_25
REMARK   13  A    between atoms: N_24  and  C_26
REMARK   14  A    between atoms: N_33  and  C_34
REMARK                            x       y       z     vdW  Elec       q    Type
REMARK                         _______ _______ _______ _____ _____    ______ ____
ROOT
ATOM      1  C   UNL     1       0.844  11.271  19.750  0.00  0.00    +0.000 A 
ATOM      2  C   UNL     1       1.560  11.374  18.558  0.00  0.00    +0.000 A 
ATOM      3  C   UNL     1       2.213  10.243  18.036  0.00  0.00    +0.000 A 
ATOM      4  C   UNL     1       2.140   8.993  18.677  0.00  0.00    +0.000 A 
ATOM      5  C   UNL     1       1.406   8.935  19.876  0.00  0.00    +0.000 A 
ATOM      6  C   UNL     1       0.777  10.060  20.424  0.00  0.00    +0.000 A 
ATOM      7  C   UNL     1       1.268   7.646  20.595  0.00  0.00    +0.000 A 
ATOM      8  O   UNL     1       0.674   7.606  21.675  0.00  0.00    +0.000 OA
ATOM      9  C   UNL     1       1.816   6.433  19.966  0.00  0.00    +0.000 A 
ATOM     10  C   UNL     1       2.521   6.608  18.833  0.00  0.00    +0.000 A 
ATOM     11  N   UNL     1       2.745   7.815  18.179  0.00  0.00    +0.000 N 
ATOM     12  C   UNL     1       3.543   7.895  16.954  0.00  0.00    +0.000 C 
ENDROOT
BRANCH   9  13
ATOM     13  C   UNL     1       1.612   5.057  20.515  0.00  0.00    +0.000 C 
ATOM     14  O   UNL     1       0.526   4.494  20.440  0.00  0.00    +0.000 OA
ATOM     15  N   UNL     1       2.711   4.495  21.115  0.00  0.00    +0.000 N 
ATOM     16  H   UNL     1       3.598   5.002  21.073  0.00  0.00    +0.000 HD
BRANCH  15  17
ATOM     17  C   UNL     1       2.707   3.146  21.638  0.00  0.00    +0.000 C 
BRANCH  17  18
ATOM     18  C   UNL     1       3.103   2.144  20.560  0.00  0.00    +0.000 C 
BRANCH  18  19
ATOM     19  C   UNL     1       4.372   2.581  19.833  0.00  0.00    +0.000 C 
BRANCH  19  20
ATOM     20  N   UNL     1       4.142   3.016  18.449  0.00  0.00    +0.000 N 
ATOM     21  C   UNL     1       2.819   2.907  17.830  0.00  0.00    +0.000 C 
BRANCH  20  22
ATOM     22  C   UNL     1       4.968   4.028  17.934  0.00  0.00    +0.000 A 
ATOM     23  C   UNL     1       5.077   4.218  16.546  0.00  0.00    +0.000 A 
ATOM     24  C   UNL     1       5.941   5.170  15.996  0.00  0.00    +0.000 A 
ATOM     25  C   UNL     1       6.712   5.975  16.825  0.00  0.00    +0.000 A 
ATOM     26  C   UNL     1       6.614   5.827  18.203  0.00  0.00    +0.000 A 
ATOM     27  C   UNL     1       5.758   4.860  18.747  0.00  0.00    +0.000 A 
ENDBRANCH  20  22
ENDBRANCH  19  20
ENDBRANCH  18  19
ENDBRANCH  17  18
ENDBRANCH  15  17
ENDBRANCH   9  13
BRANCH   1  28
ATOM     28  S   UNL     1       0.058  12.700  20.456  0.00  0.00    +0.000 S 
ATOM     29  O   UNL     1      -0.089  13.664  19.391  0.00  0.00    +0.000 OA
ATOM     30  O   UNL     1       0.756  13.031  21.677  0.00  0.00    +0.000 OA
BRANCH  28  31
ATOM     31  N   UNL     1      -1.511  12.135  20.910  0.00  0.00    +0.000 NA
BRANCH  31  33
ATOM     32  C   UNL     1      -1.433  11.035  23.195  0.00  0.00    +0.000 C 
ATOM     33  C   UNL     1      -1.771  12.270  22.378  0.00  0.00    +0.000 C 
ENDBRANCH  31  33
BRANCH  31  34
ATOM     34  C   UNL     1      -2.595  12.660  20.018  0.00  0.00    +0.000 C 
ATOM     35  C   UNL     1      -2.893  11.766  18.824  0.00  0.00    +0.000 C 
ENDBRANCH  31  34
ENDBRANCH  28  31
ENDBRANCH   1  28
TORSDOF 10
ENDMDL
MODEL 4
REMARK VINA RESULT:      -7.1      2.571      3.857
REMARK  Name = 
REMARK  14 active torsions:
REMARK  status: ('A' for Active; 'I' for Inactive)
REMARK    1  A    between atoms: C_1  and  C_2
REMARK    2  A    between atoms: C_2  and  N_3
REMARK    3  A    between atoms: N_3  and  C_4
REMARK    4  A    between atoms: N_3  and  S_6
REMARK    5  A    between atoms: C_4  and  C_5
REMARK    6  A    between atoms: S_6  and  C_9
REMARK    7  A    between atoms: C_17  and  C_18
REMARK    8  A    between atoms: N_20  and  C_21
REMARK    9  A    between atoms: C_21  and  C_22
REMARK   10  A    between atoms: C_22  and  C_23
REMARK   11  A    between atoms: C_23  and  N_24
REMARK   12  A    between atoms: N_24  and  C_25
REMARK   13  A    between atoms: N_24  and  C_26
REMARK   14  A    between atoms: N_33  and  C_34
REMARK                            x       y       z     vdW  Elec       q    Type
REMARK                         _______ _______ _______ _____ _____    ______ ____
ROOT
ATOM      1  C   UNL     1      -2.015  13.624  21.438  0.00  0.00    +0.000 A 
ATOM      2  C   UNL     1      -3.235  13.335  20.828  0.00  0.00    +0.000 A 
ATOM      3  C   UNL     1      -3.283  12.417  19.763  0.00  0.00    +0.000 A 
ATOM      4  C   UNL     1      -2.126  11.760  19.309  0.00  0.00    +0.000 A 
ATOM      5  C   UNL     1      -0.917  12.082  19.953  0.00  0.00    +0.000 A 
ATOM      6  C   UNL     1      -0.849  13.015  20.994  0.00  0.00    +0.000 A 
ATOM      7  C   UNL     1       0.339  11.410  19.543  0.00  0.00    +0.000 A 
ATOM      8  O   UNL     1       1.408  11.734  20.067  0.00  0.00    +0.000 OA
ATOM      9  C   UNL     1       0.262  10.337  18.538  0.00  0.00    +0.000 A 
ATOM     10  C   UNL     1      -0.940  10.130  17.969  0.00  0.00    +0.000 A 
ATOM     11  N   UNL     1      -2.120  10.802  18.267  0.00  0.00    +0.000 N 
ATOM     12  C   UNL     1      -3.376  10.507  17.574  0.00  0.00    +0.000 C 
ENDROOT
BRANCH   9  13
ATOM     13  C   UNL     1       1.429   9.486  18.151  0.00  0.00    +0.000 C 
ATOM     14  O   UNL     1       2.331   9.921  17.443  0.00  0.00    +0.000 OA
ATOM     15  N   UNL     1       1.400   8.198  18.623  0.00  0.00    +0.000 N 
ATOM     16  H   UNL     1       0.649   7.935  19.265  0.00  0.00    +0.000 HD
BRANCH  15  17
ATOM     17  C   UNL     1       2.481   7.262  18.399  0.00  0.00    +0.000 C 
BRANCH  17  18
ATOM     18  C   UNL     1       2.602   6.284  19.562  0.00  0.00    +0.000 C 
BRANCH  18  19
ATOM     19  C   UNL     1       3.969   5.604  19.577  0.00  0.00    +0.000 C 
BRANCH  19  20
ATOM     20  N   UNL     1       4.063   4.445  18.680  0.00  0.00    +0.000 N 
ATOM     21  C   UNL     1       2.903   3.591  18.419  0.00  0.00    +0.000 C 
BRANCH  20  22
ATOM     22  C   UNL     1       5.026   4.484  17.658  0.00  0.00    +0.000 A 
ATOM     23  C   UNL     1       4.642   4.333  16.315  0.00  0.00    +0.000 A 
ATOM     24  C   UNL     1       5.578   4.298  15.277  0.00  0.00    +0.000 A 
ATOM     25  C   UNL     1       6.933   4.435  15.555  0.00  0.00    +0.000 A 
ATOM     26  C   UNL     1       7.346   4.607  16.870  0.00  0.00    +0.000 A 
ATOM     27  C   UNL     1       6.403   4.623  17.906  0.00  0.00    +0.000 A 
ENDBRANCH  20  22
ENDBRANCH  19  20
ENDBRANCH  18  19
ENDBRANCH  17  18
ENDBRANCH  15  17
ENDBRANCH   9  13
BRANCH   1  28
ATOM     28  S   UNL     1      -1.923  14.821  22.748  0.00  0.00    +0.000 S 
ATOM     29  O   UNL     1      -1.779  16.114  22.122  0.00  0.00    +0.000 OA
ATOM     30  O   UNL     1      -0.963  14.345  23.716  0.00  0.00    +0.000 OA
BRANCH  28  31
ATOM     31  N   UNL     1      -3.478  14.741  23.499  0.00  0.00    +0.000 NA
BRANCH  31  33
ATOM     32  C   UNL     1      -4.159  12.576  24.632  0.00  0.00    +0.000 C 
ATOM     33  C   UNL     1      -3.472  13.925  24.754  0.00  0.00    +0.000 C 
ENDBRANCH  31  33
BRANCH  31  34
ATOM     34  C   UNL     1      -4.134  16.085  23.614  0.00  0.00    +0.000 C 
ATOM     35  C   UNL     1      -4.008  16.711  24.995  0.00  0.00    +0.000 C 
ENDBRANCH  31  34
ENDBRANCH  28  31
ENDBRANCH   1  28
TORSDOF 10
ENDMDL
MODEL 5
REMARK VINA RESULT:      -7.1      1.353      2.594
REMARK  Name = 
REMARK  14 active torsions:
REMARK  status: ('A' for Active; 'I' for Inactive)
REMARK    1  A    between atoms: C_1  and  C_2
REMARK    2  A    between atoms: C_2  and  N_3
REMARK    3  A    between atoms: N_3  and  C_4
REMARK    4  A    between atoms: N_3  and  S_6
REMARK    5  A    between atoms: C_4  and  C_5
REMARK    6  A    between atoms: S_6  and  C_9
REMARK    7  A    between atoms: C_17  and  C_18
REMARK    8  A    between atoms: N_20  and  C_21
REMARK    9  A    between atoms: C_21  and  C_22
REMARK   10  A    between atoms: C_22  and  C_23
REMARK   11  A    between atoms: C_23  and  N_24
REMARK   12  A    between atoms: N_24  and  C_25
REMARK   13  A    between atoms: N_24  and  C_26
REMARK   14  A    between atoms: N_33  and  C_34
REMARK                            x       y       z     vdW  Elec       q    Type
REMARK                         _______ _______ _______ _____ _____    ______ ____
ROOT
ATOM      1  C   UNL     1      -4.177  12.813  19.921  0.00  0.00    +0.000 A 
ATOM      2  C   UNL     1      -4.964  12.400  18.848  0.00  0.00    +0.000 A 
ATOM      3  C   UNL     1      -4.401  11.595  17.840  0.00  0.00    +0.000 A 
ATOM      4  C   UNL     1      -3.062  11.173  17.900  0.00  0.00    +0.000 A 
ATOM      5  C   UNL     1      -2.305  11.613  19.002  0.00  0.00    +0.000 A 
ATOM      6  C   UNL     1      -2.842  12.439  19.996  0.00  0.00    +0.000 A 
ATOM      7  C   UNL     1      -0.892  11.189  19.144  0.00  0.00    +0.000 A 
ATOM      8  O   UNL     1      -0.212  11.621  20.077  0.00  0.00    +0.000 OA
ATOM      9  C   UNL     1      -0.353  10.220  18.175  0.00  0.00    +0.000 A 
ATOM     10  C   UNL     1      -1.155   9.886  17.147  0.00  0.00    +0.000 A 
ATOM     11  N   UNL     1      -2.454  10.334  16.936  0.00  0.00    +0.000 N 
ATOM     12  C   UNL     1      -3.237   9.917  15.770  0.00  0.00    +0.000 C 
ENDROOT
BRANCH   9  13
ATOM     13  C   UNL     1       1.004   9.603  18.296  0.00  0.00    +0.000 C 
ATOM     14  O   UNL     1       1.963  10.040  17.669  0.00  0.00    +0.000 OA
ATOM     15  N   UNL     1       1.083   8.516  19.130  0.00  0.00    +0.000 N 
ATOM     16  H   UNL     1       0.254   8.259  19.670  0.00  0.00    +0.000 HD
BRANCH  15  17
ATOM     17  C   UNL     1       2.332   7.842  19.413  0.00  0.00    +0.000 C 
BRANCH  17  18
ATOM     18  C   UNL     1       2.711   6.902  18.276  0.00  0.00    +0.000 C 
BRANCH  18  19
ATOM     19  C   UNL     1       2.315   5.461  18.589  0.00  0.00    +0.000 C 
BRANCH  19  20
ATOM     20  N   UNL     1       3.448   4.605  18.966  0.00  0.00    +0.000 N 
ATOM     21  C   UNL     1       3.253   3.409  19.788  0.00  0.00    +0.000 C 
BRANCH  20  22
ATOM     22  C   UNL     1       4.560   4.575  18.109  0.00  0.00    +0.000 A 
ATOM     23  C   UNL     1       5.820   4.996  18.567  0.00  0.00    +0.000 A 
ATOM     24  C   UNL     1       6.935   5.045  17.724  0.00  0.00    +0.000 A 
ATOM     25  C   UNL     1       6.822   4.653  16.396  0.00  0.00    +0.000 A 
ATOM     26  C   UNL     1       5.596   4.213  15.915  0.00  0.00    +0.000 A 
ATOM     27  C   UNL     1       4.480   4.182  16.761  0.00  0.00    +0.000 A 
ENDBRANCH  20  22
ENDBRANCH  19  20
ENDBRANCH  18  19
ENDBRANCH  17  18
ENDBRANCH  15  17
ENDBRANCH   9  13
BRANCH   1  28
ATOM     28  S   UNL     1      -4.851  13.875  21.177  0.00  0.00    +0.000 S 
ATOM     29  O   UNL     1      -6.056  14.454  20.630  0.00  0.00    +0.000 OA
ATOM     30  O   UNL     1      -3.780  14.706  21.676  0.00  0.00    +0.000 OA
BRANCH  28  31
ATOM     31  N   UNL     1      -5.287  12.793  22.452  0.00  0.00    +0.000 NA
BRANCH  31  33
ATOM     32  C   UNL     1      -4.927  12.289  24.912  0.00  0.00    +0.000 C 
ATOM     33  C   UNL     1      -4.375  12.898  23.635  0.00  0.00    +0.000 C 
ENDBRANCH  31  33
BRANCH  31  34
ATOM     34  C   UNL     1      -6.752  12.833  22.769  0.00  0.00    +0.000 C 
ATOM     35  C   UNL     1      -7.581  11.853  21.953  0.00  0.00    +0.000 C 
ENDBRANCH  31  34
ENDBRANCH  28  31
ENDBRANCH   1  28
TORSDOF 10
ENDMDL
MODEL 6
REMARK VINA RESULT:      -7.1      5.346     10.258
REMARK  Name = 
REMARK  14 active torsions:
REMARK  status: ('A' for Active; 'I' for Inactive)
REMARK    1  A    between atoms: C_1  and  C_2
REMARK    2  A    between atoms: C_2  and  N_3
REMARK    3  A    between atoms: N_3  and  C_4
REMARK    4  A    between atoms: N_3  and  S_6
REMARK    5  A    between atoms: C_4  and  C_5
REMARK    6  A    between atoms: S_6  and  C_9
REMARK    7  A    between atoms: C_17  and  C_18
REMARK    8  A    between atoms: N_20  and  C_21
REMARK    9  A    between atoms: C_21  and  C_22
REMARK   10  A    between atoms: C_22  and  C_23
REMARK   11  A    between atoms: C_23  and  N_24
REMARK   12  A    between atoms: N_24  and  C_25
REMARK   13  A    between atoms: N_24  and  C_26
REMARK   14  A    between atoms: N_33  and  C_34
REMARK                            x       y       z     vdW  Elec       q    Type
REMARK                         _______ _______ _______ _____ _____    ______ ____
ROOT
ATOM      1  C   UNL     1       2.566   6.204  18.801  0.00  0.00    +0.000 A 
ATOM      2  C   UNL     1       2.058   5.896  20.061  0.00  0.00    +0.000 A 
ATOM      3  C   UNL     1       1.498   6.914  20.856  0.00  0.00    +0.000 A 
ATOM      4  C   UNL     1       1.414   8.240  20.397  0.00  0.00    +0.000 A 
ATOM      5  C   UNL     1       1.939   8.506  19.119  0.00  0.00    +0.000 A 
ATOM      6  C   UNL     1       2.527   7.510  18.330  0.00  0.00    +0.000 A 
ATOM      7  C   UNL     1       1.865   9.877  18.561  0.00  0.00    +0.000 A 
ATOM      8  O   UNL     1       2.377  10.122  17.466  0.00  0.00    +0.000 OA
ATOM      9  C   UNL     1       1.138  10.904  19.326  0.00  0.00    +0.000 A 
ATOM     10  C   UNL     1       0.699  10.548  20.547  0.00  0.00    +0.000 A 
ATOM     11  N   UNL     1       0.829   9.295  21.137  0.00  0.00    +0.000 N 
ATOM     12  C   UNL     1       0.326   9.018  22.484  0.00  0.00    +0.000 C 
ENDROOT
BRANCH   9  13
ATOM     13  C   UNL     1       0.866  12.279  18.805  0.00  0.00    +0.000 C 
ATOM     14  O   UNL     1      -0.264  12.627  18.480  0.00  0.00    +0.000 OA
ATOM     15  N   UNL     1       1.964  13.097  18.702  0.00  0.00    +0.000 N 
ATOM     16  H   UNL     1       2.857  12.754  19.061  0.00  0.00    +0.000 HD
BRANCH  15  17
ATOM     17  C   UNL     1       1.868  14.478  18.281  0.00  0.00    +0.000 C 
BRANCH  17  18
ATOM     18  C   UNL     1       3.096  15.265  18.721  0.00  0.00    +0.000 C 
BRANCH  18  19
ATOM     19  C   UNL     1       4.335  14.855  17.928  0.00  0.00    +0.000 C 
BRANCH  19  20
ATOM     20  N   UNL     1       5.552  15.583  18.312  0.00  0.00    +0.000 N 
ATOM     21  C   UNL     1       5.478  16.858  19.028  0.00  0.00    +0.000 C 
BRANCH  20  22
ATOM     22  C   UNL     1       6.721  14.836  18.526  0.00  0.00    +0.000 A 
ATOM     23  C   UNL     1       7.190  13.954  17.538  0.00  0.00    +0.000 A 
ATOM     24  C   UNL     1       8.311  13.144  17.741  0.00  0.00    +0.000 A 
ATOM     25  C   UNL     1       9.011  13.209  18.940  0.00  0.00    +0.000 A 
ATOM     26  C   UNL     1       8.586  14.086  19.931  0.00  0.00    +0.000 A 
ATOM     27  C   UNL     1       7.452  14.882  19.726  0.00  0.00    +0.000 A 
ENDBRANCH  20  22
ENDBRANCH  19  20
ENDBRANCH  18  19
ENDBRANCH  17  18
ENDBRANCH  15  17
ENDBRANCH   9  13
BRANCH   1  28
ATOM     28  S   UNL     1       3.328   4.946  17.803  0.00  0.00    +0.000 S 
ATOM     29  O   UNL     1       4.097   5.628  16.788  0.00  0.00    +0.000 OA
ATOM     30  O   UNL     1       2.311   3.982  17.453  0.00  0.00    +0.000 OA
BRANCH  28  31
ATOM     31  N   UNL     1       4.420   4.156  18.886  0.00  0.00    +0.000 NA
BRANCH  31  33
ATOM     32  C   UNL     1       3.347   2.528  20.509  0.00  0.00    +0.000 C 
ATOM     33  C   UNL     1       4.030   2.739  19.168  0.00  0.00    +0.000 C 
ENDBRANCH  31  33
BRANCH  31  34
ATOM     34  C   UNL     1       5.857   4.360  18.508  0.00  0.00    +0.000 C 
ATOM     35  C   UNL     1       6.540   5.478  19.281  0.00  0.00    +0.000 C 
ENDBRANCH  31  34
ENDBRANCH  28  31
ENDBRANCH   1  28
TORSDOF 10
ENDMDL
MODEL 7
REMARK VINA RESULT:      -7.0      4.444      6.725
REMARK  Name = 
REMARK  14 active torsions:
REMARK  status: ('A' for Active; 'I' for Inactive)
REMARK    1  A    between atoms: C_1  and  C_2
REMARK    2  A    between atoms: C_2  and  N_3
REMARK    3  A    between atoms: N_3  and  C_4
REMARK    4  A    between atoms: N_3  and  S_6
REMARK    5  A    between atoms: C_4  and  C_5
REMARK    6  A    between atoms: S_6  and  C_9
REMARK    7  A    between atoms: C_17  and  C_18
REMARK    8  A    between atoms: N_20  and  C_21
REMARK    9  A    between atoms: C_21  and  C_22
REMARK   10  A    between atoms: C_22  and  C_23
REMARK   11  A    between atoms: C_23  and  N_24
REMARK   12  A    between atoms: N_24  and  C_25
REMARK   13  A    between atoms: N_24  and  C_26
REMARK   14  A    between atoms: N_33  and  C_34
REMARK                            x       y       z     vdW  Elec       q    Type
REMARK                         _______ _______ _______ _____ _____    ______ ____
ROOT
ATOM      1  C   UNL     1       1.370  15.903  18.997  0.00  0.00    +0.000 A 
ATOM      2  C   UNL     1       0.051  16.118  19.392  0.00  0.00    +0.000 A 
ATOM      3  C   UNL     1      -0.812  15.021  19.571  0.00  0.00    +0.000 A 
ATOM      4  C   UNL     1      -0.367  13.700  19.385  0.00  0.00    +0.000 A 
ATOM      5  C   UNL     1       0.972  13.530  18.987  0.00  0.00    +0.000 A 
ATOM      6  C   UNL     1       1.833  14.613  18.776  0.00  0.00    +0.000 A 
ATOM      7  C   UNL     1       1.516  12.165  18.795  0.00  0.00    +0.000 A 
ATOM      8  O   UNL     1       2.671  12.016  18.390  0.00  0.00    +0.000 OA
ATOM      9  C   UNL     1       0.660  11.017  19.136  0.00  0.00    +0.000 A 
ATOM     10  C   UNL     1      -0.611  11.294  19.481  0.00  0.00    +0.000 A 
ATOM     11  N   UNL     1      -1.179  12.559  19.586  0.00  0.00    +0.000 N 
ATOM     12  C   UNL     1      -2.583  12.749  19.957  0.00  0.00    +0.000 C 
ENDROOT
BRANCH   9  13
ATOM     13  C   UNL     1       1.140   9.600  19.127  0.00  0.00    +0.000 C 
ATOM     14  O   UNL     1       1.232   8.950  20.163  0.00  0.00    +0.000 OA
ATOM     15  N   UNL     1       1.483   9.103  17.894  0.00  0.00    +0.000 N 
ATOM     16  H   UNL     1       1.309   9.686  17.073  0.00  0.00    +0.000 HD
BRANCH  15  17
ATOM     17  C   UNL     1       1.902   7.732  17.698  0.00  0.00    +0.000 C 
BRANCH  17  18
ATOM     18  C   UNL     1       3.420   7.637  17.601  0.00  0.00    +0.000 C 
BRANCH  18  19
ATOM     19  C   UNL     1       3.955   6.447  18.394  0.00  0.00    +0.000 C 
BRANCH  19  20
ATOM     20  N   UNL     1       3.418   5.152  17.952  0.00  0.00    +0.000 N 
ATOM     21  C   UNL     1       4.131   4.331  16.972  0.00  0.00    +0.000 C 
BRANCH  20  22
ATOM     22  C   UNL     1       2.590   4.449  18.842  0.00  0.00    +0.000 A 
ATOM     23  C   UNL     1       2.811   4.525  20.227  0.00  0.00    +0.000 A 
ATOM     24  C   UNL     1       2.050   3.786  21.139  0.00  0.00    +0.000 A 
ATOM     25  C   UNL     1       1.028   2.960  20.687  0.00  0.00    +0.000 A 
ATOM     26  C   UNL     1       0.770   2.877  19.324  0.00  0.00    +0.000 A 
ATOM     27  C   UNL     1       1.547   3.607  18.416  0.00  0.00    +0.000 A 
ENDBRANCH  20  22
ENDBRANCH  19  20
ENDBRANCH  18  19
ENDBRANCH  17  18
ENDBRANCH  15  17
ENDBRANCH   9  13
BRANCH   1  28
ATOM     28  S   UNL     1       2.462  17.276  18.711  0.00  0.00    +0.000 S 
ATOM     29  O   UNL     1       1.860  18.425  19.345  0.00  0.00    +0.000 OA
ATOM     30  O   UNL     1       2.802  17.286  17.308  0.00  0.00    +0.000 OA
BRANCH  28  31
ATOM     31  N   UNL     1       3.899  16.857  19.576  0.00  0.00    +0.000 NA
BRANCH  31  33
ATOM     32  C   UNL     1       5.471  15.129  18.586  0.00  0.00    +0.000 C 
ATOM     33  C   UNL     1       5.060  16.589  18.670  0.00  0.00    +0.000 C 
ENDBRANCH  31  33
BRANCH  31  34
ATOM     34  C   UNL     1       4.179  17.788  20.717  0.00  0.00    +0.000 C 
ATOM     35  C   UNL     1       5.534  18.474  20.627  0.00  0.00    +0.000 C 
ENDBRANCH  31  34
ENDBRANCH  28  31
ENDBRANCH   1  28
TORSDOF 10
ENDMDL
MODEL 8
REMARK VINA RESULT:      -6.9      3.533     10.316
REMARK  Name = 
REMARK  14 active torsions:
REMARK  status: ('A' for Active; 'I' for Inactive)
REMARK    1  A    between atoms: C_1  and  C_2
REMARK    2  A    between atoms: C_2  and  N_3
REMARK    3  A    between atoms: N_3  and  C_4
REMARK    4  A    between atoms: N_3  and  S_6
REMARK    5  A    between atoms: C_4  and  C_5
REMARK    6  A    between atoms: S_6  and  C_9
REMARK    7  A    between atoms: C_17  and  C_18
REMARK    8  A    between atoms: N_20  and  C_21
REMARK    9  A    between atoms: C_21  and  C_22
REMARK   10  A    between atoms: C_22  and  C_23
REMARK   11  A    between atoms: C_23  and  N_24
REMARK   12  A    between atoms: N_24  and  C_25
REMARK   13  A    between atoms: N_24  and  C_26
REMARK   14  A    between atoms: N_33  and  C_34
REMARK                            x       y       z     vdW  Elec       q    Type
REMARK                         _______ _______ _______ _____ _____    ______ ____
ROOT
ATOM      1  C   UNL     1       2.517   7.024  19.277  0.00  0.00    +0.000 A 
ATOM      2  C   UNL     1       2.798   7.840  18.182  0.00  0.00    +0.000 A 
ATOM      3  C   UNL     1       2.239   9.129  18.111  0.00  0.00    +0.000 A 
ATOM      4  C   UNL     1       1.415   9.630  19.135  0.00  0.00    +0.000 A 
ATOM      5  C   UNL     1       1.158   8.772  20.221  0.00  0.00    +0.000 A 
ATOM      6  C   UNL     1       1.684   7.476  20.291  0.00  0.00    +0.000 A 
ATOM      7  C   UNL     1       0.318   9.240  21.348  0.00  0.00    +0.000 A 
ATOM      8  O   UNL     1       0.045   8.469  22.271  0.00  0.00    +0.000 OA
ATOM      9  C   UNL     1      -0.135  10.641  21.347  0.00  0.00    +0.000 A 
ATOM     10  C   UNL     1       0.145  11.364  20.247  0.00  0.00    +0.000 A 
ATOM     11  N   UNL     1       0.856  10.929  19.133  0.00  0.00    +0.000 N 
ATOM     12  C   UNL     1       1.093  11.798  17.979  0.00  0.00    +0.000 C 
ENDROOT
BRANCH   9  13
ATOM     13  C   UNL     1      -0.860  11.273  22.493  0.00  0.00    +0.000 C 
ATOM     14  O   UNL     1      -0.962  10.706  23.575  0.00  0.00    +0.000 OA
ATOM     15  N   UNL     1      -1.409  12.504  22.233  0.00  0.00    +0.000 N 
ATOM     16  H   UNL     1      -1.218  12.938  21.328  0.00  0.00    +0.000 HD
BRANCH  15  17
ATOM     17  C   UNL     1      -2.084  13.284  23.248  0.00  0.00    +0.000 C 
BRANCH  17  18
ATOM     18  C   UNL     1      -3.587  13.031  23.216  0.00  0.00    +0.000 C 
BRANCH  18  19
ATOM     19  C   UNL     1      -4.065  12.698  21.805  0.00  0.00    +0.000 C 
BRANCH  19  20
ATOM     20  N   UNL     1      -5.528  12.670  21.668  0.00  0.00    +0.000 N 
ATOM     21  C   UNL     1      -6.396  13.292  22.669  0.00  0.00    +0.000 C 
BRANCH  20  22
ATOM     22  C   UNL     1      -6.062  12.589  20.371  0.00  0.00    +0.000 A 
ATOM     23  C   UNL     1      -6.526  11.361  19.870  0.00  0.00    +0.000 A 
ATOM     24  C   UNL     1      -7.000  11.228  18.561  0.00  0.00    +0.000 A 
ATOM     25  C   UNL     1      -7.041  12.333  17.719  0.00  0.00    +0.000 A 
ATOM     26  C   UNL     1      -6.609  13.566  18.189  0.00  0.00    +0.000 A 
ATOM     27  C   UNL     1      -6.119  13.688  19.496  0.00  0.00    +0.000 A 
ENDBRANCH  20  22
ENDBRANCH  19  20
ENDBRANCH  18  19
ENDBRANCH  17  18
ENDBRANCH  15  17
ENDBRANCH   9  13
BRANCH   1  28
ATOM     28  S   UNL     1       3.168   5.373  19.361  0.00  0.00    +0.000 S 
ATOM     29  O   UNL     1       2.262   4.610  20.187  0.00  0.00    +0.000 OA
ATOM     30  O   UNL     1       4.574   5.467  19.678  0.00  0.00    +0.000 OA
BRANCH  28  31
ATOM     31  N   UNL     1       3.055   4.794  17.737  0.00  0.00    +0.000 NA
BRANCH  31  33
ATOM     32  C   UNL     1       4.940   5.432  16.164  0.00  0.00    +0.000 C 
ATOM     33  C   UNL     1       4.387   4.428  17.160  0.00  0.00    +0.000 C 
ENDBRANCH  31  33
BRANCH  31  34
ATOM     34  C   UNL     1       1.979   3.763  17.564  0.00  0.00    +0.000 C 
ATOM     35  C   UNL     1       2.480   2.331  17.674  0.00  0.00    +0.000 C 
ENDBRANCH  31  34
ENDBRANCH  28  31
ENDBRANCH   1  28
TORSDOF 10
ENDMDL
MODEL 9
REMARK VINA RESULT:      -6.9      3.023      3.425
REMARK  Name = 
REMARK  14 active torsions:
REMARK  status: ('A' for Active; 'I' for Inactive)
REMARK    1  A    between atoms: C_1  and  C_2
REMARK    2  A    between atoms: C_2  and  N_3
REMARK    3  A    between atoms: N_3  and  C_4
REMARK    4  A    between atoms: N_3  and  S_6
REMARK    5  A    between atoms: C_4  and  C_5
REMARK    6  A    between atoms: S_6  and  C_9
REMARK    7  A    between atoms: C_17  and  C_18
REMARK    8  A    between atoms: N_20  and  C_21
REMARK    9  A    between atoms: C_21  and  C_22
REMARK   10  A    between atoms: C_22  and  C_23
REMARK   11  A    between atoms: C_23  and  N_24
REMARK   12  A    between atoms: N_24  and  C_25
REMARK   13  A    between atoms: N_24  and  C_26
REMARK   14  A    between atoms: N_33  and  C_34
REMARK                            x       y       z     vdW  Elec       q    Type
REMARK                         _______ _______ _______ _____ _____    ______ ____
ROOT
ATOM      1  C   UNL     1      -2.624  13.057  22.840  0.00  0.00    +0.000 A 
ATOM      2  C   UNL     1      -2.329  14.110  21.976  0.00  0.00    +0.000 A 
ATOM      3  C   UNL     1      -1.322  13.955  21.006  0.00  0.00    +0.000 A 
ATOM      4  C   UNL     1      -0.615  12.747  20.868  0.00  0.00    +0.000 A 
ATOM      5  C   UNL     1      -0.947  11.711  21.762  0.00  0.00    +0.000 A 
ATOM      6  C   UNL     1      -1.925  11.861  22.752  0.00  0.00    +0.000 A 
ATOM      7  C   UNL     1      -0.260  10.402  21.661  0.00  0.00    +0.000 A 
ATOM      8  O   UNL     1      -0.508   9.514  22.480  0.00  0.00    +0.000 OA
ATOM      9  C   UNL     1       0.679  10.189  20.547  0.00  0.00    +0.000 A 
ATOM     10  C   UNL     1       0.941  11.256  19.768  0.00  0.00    +0.000 A 
ATOM     11  N   UNL     1       0.381  12.522  19.889  0.00  0.00    +0.000 N 
ATOM     12  C   UNL     1       0.749  13.621  18.993  0.00  0.00    +0.000 C 
ENDROOT
BRANCH   9  13
ATOM     13  C   UNL     1       1.320   8.871  20.250  0.00  0.00    +0.000 C 
ATOM     14  O   UNL     1       1.610   8.085  21.145  0.00  0.00    +0.000 OA
ATOM     15  N   UNL     1       1.572   8.626  18.923  0.00  0.00    +0.000 N 
ATOM     16  H   UNL     1       1.235   9.302  18.234  0.00  0.00    +0.000 HD
BRANCH  15  17
ATOM     17  C   UNL     1       2.125   7.373  18.455  0.00  0.00    +0.000 C 
BRANCH  17  18
ATOM     18  C   UNL     1       3.448   7.600  17.733  0.00  0.00    +0.000 C 
BRANCH  18  19
ATOM     19  C   UNL     1       4.426   6.456  17.991  0.00  0.00    +0.000 C 
BRANCH  19  20
ATOM     20  N   UNL     1       4.116   5.232  17.240  0.00  0.00    +0.000 N 
ATOM     21  C   UNL     1       4.944   4.806  16.110  0.00  0.00    +0.000 C 
BRANCH  20  22
ATOM     22  C   UNL     1       3.440   4.203  17.916  0.00  0.00    +0.000 A 
ATOM     23  C   UNL     1       4.109   3.426  18.877  0.00  0.00    +0.000 A 
ATOM     24  C   UNL     1       3.489   2.350  19.520  0.00  0.00    +0.000 A 
ATOM     25  C   UNL     1       2.167   2.033  19.232  0.00  0.00    +0.000 A 
ATOM     26  C   UNL     1       1.470   2.794  18.302  0.00  0.00    +0.000 A 
ATOM     27  C   UNL     1       2.103   3.859  17.649  0.00  0.00    +0.000 A 
ENDBRANCH  20  22
ENDBRANCH  19  20
ENDBRANCH  18  19
ENDBRANCH  17  18
ENDBRANCH  15  17
ENDBRANCH   9  13
BRANCH   1  28
ATOM     28  S   UNL     1      -3.854  13.250  24.108  0.00  0.00    +0.000 S 
ATOM     29  O   UNL     1      -3.314  14.175  25.076  0.00  0.00    +0.000 OA
ATOM     30  O   UNL     1      -4.299  11.932  24.498  0.00  0.00    +0.000 OA
BRANCH  28  31
ATOM     31  N   UNL     1      -5.178  14.010  23.297  0.00  0.00    +0.000 NA
BRANCH  31  33
ATOM     32  C   UNL     1      -7.447  13.446  24.282  0.00  0.00    +0.000 C 
ATOM     33  C   UNL     1      -6.393  13.138  23.232  0.00  0.00    +0.000 C 
ENDBRANCH  31  33
BRANCH  31  34
ATOM     34  C   UNL     1      -5.421  15.410  23.775  0.00  0.00    +0.000 C 
ATOM     35  C   UNL     1      -5.921  16.349  22.687  0.00  0.00    +0.000 C 
ENDBRANCH  31  34
ENDBRANCH  28  31
ENDBRANCH   1  28
TORSDOF 10
ENDMDL
