MODEL 1
REMARK VINA RESULT:      -8.2      0.000      0.000
REMARK  Name = 
REMARK  6 active torsions:
REMARK  status: ('A' for Active; 'I' for Inactive)
REMARK    1  A    between atoms: C_1  and  C_2
REMARK    2  A    between atoms: C_2  and  C_19
REMARK    3  A    between atoms: N_3  and  N_4
REMARK    4  A    between atoms: C_5  and  C_7
REMARK    5  A    between atoms: C_11  and  N_12
REMARK    6  A    between atoms: C_22  and  N_23
REMARK                            x       y       z     vdW  Elec       q    Type
REMARK                         _______ _______ _______ _____ _____    ______ ____
ROOT
ATOM      1  N   UNL     1       2.310   6.552  20.029  0.00  0.00    +0.000 N 
ATOM      2  C   UNL     1       1.814   5.253  20.010  0.00  0.00    +0.000 C 
ATOM      3  O   UNL     1       0.803   4.874  20.592  0.00  0.00    +0.000 OA
ATOM      4  H   UNL     1       3.053   6.815  19.404  0.00  0.00    +0.000 HD
ENDROOT
BRANCH   2   5
ATOM      5  C   UNL     1       2.584   4.271  19.192  0.00  0.00    +0.000 A 
ATOM      6  C   UNL     1       2.341   2.915  19.421  0.00  0.00    +0.000 A 
ATOM      7  C   UNL     1       3.059   1.953  18.722  0.00  0.00    +0.000 A 
ATOM      8  C   UNL     1       4.046   2.342  17.813  0.00  0.00    +0.000 A 
ATOM      9  C   UNL     1       4.341   3.694  17.587  0.00  0.00    +0.000 A 
ATOM     10  C   UNL     1       3.577   4.659  18.271  0.00  0.00    +0.000 A 
BRANCH   9  11
ATOM     11  N   UNL     1       5.402   4.079  16.716  0.00  0.00    +0.000 N 
ATOM     12  C   UNL     1       5.216   4.322  15.306  0.00  0.00    +0.000 C 
ATOM     13  C   UNL     1       6.622   4.438  14.752  0.00  0.00    +0.000 C 
ATOM     14  C   UNL     1       7.413   5.009  15.910  0.00  0.00    +0.000 C 
ATOM     15  C   UNL     1       6.691   4.473  17.122  0.00  0.00    +0.000 C 
ATOM     16  O   UNL     1       7.182   4.488  18.240  0.00  0.00    +0.000 OA
ENDBRANCH   9  11
ENDBRANCH   2   5
BRANCH   1  19
ATOM     17  C   UNL     1       1.612   9.057  18.782  0.00  0.00    +0.000 C 
ATOM     18  C   UNL     1       1.295   8.635  20.204  0.00  0.00    +0.000 C 
ATOM     19  N   UNL     1       1.639   7.501  20.740  0.00  0.00    +0.000 NA
BRANCH  18  20
ATOM     20  C   UNL     1       0.543   9.626  21.061  0.00  0.00    +0.000 A 
ATOM     21  C   UNL     1       0.074   9.292  22.337  0.00  0.00    +0.000 A 
ATOM     22  C   UNL     1      -0.661  10.216  23.092  0.00  0.00    +0.000 A 
ATOM     23  C   UNL     1      -0.906  11.502  22.612  0.00  0.00    +0.000 A 
ATOM     24  C   UNL     1      -0.471  11.824  21.325  0.00  0.00    +0.000 A 
ATOM     25  C   UNL     1       0.265  10.906  20.563  0.00  0.00    +0.000 A 
BRANCH  23  26
ATOM     26  N   UNL     1      -1.770  12.356  23.304  0.00  0.00    +0.000 N 
ATOM     27  H   UNL     1      -2.478  11.879  23.853  0.00  0.00    +0.000 HD
ATOM     28  H   UNL     1      -1.298  13.083  23.832  0.00  0.00    +0.000 HD
ENDBRANCH  23  26
ENDBRANCH  18  20
ENDBRANCH   1  19
TORSDOF 5
ENDMDL
MODEL 2
REMARK VINA RESULT:      -7.9      0.377      1.029
REMARK  Name = 
REMARK  6 active torsions:
REMARK  status: ('A' for Active; 'I' for Inactive)
REMARK    1  A    between atoms: C_1  and  C_2
REMARK    2  A    between atoms: C_2  and  C_19
REMARK    3  A    between atoms: N_3  and  N_4
REMARK    4  A    between atoms: C_5  and  C_7
REMARK    5  A    between atoms: C_11  and  N_12
REMARK    6  A    between atoms: C_22  and  N_23
REMARK                            x       y       z     vdW  Elec       q    Type
REMARK                         _______ _______ _______ _____ _____    ______ ____
ROOT
ATOM      1  N   UNL     1       2.252   6.824  19.677  0.00  0.00    +0.000 N 
ATOM      2  C   UNL     1       1.954   5.497  19.961  0.00  0.00    +0.000 C 
ATOM      3  O   UNL     1       1.160   5.118  20.817  0.00  0.00    +0.000 OA
ATOM      4  H   UNL     1       2.794   7.054  18.861  0.00  0.00    +0.000 HD
ENDROOT
BRANCH   2   5
ATOM      5  C   UNL     1       2.656   4.476  19.129  0.00  0.00    +0.000 A 
ATOM      6  C   UNL     1       2.339   3.134  19.358  0.00  0.00    +0.000 A 
ATOM      7  C   UNL     1       2.992   2.136  18.646  0.00  0.00    +0.000 A 
ATOM      8  C   UNL     1       3.987   2.472  17.725  0.00  0.00    +0.000 A 
ATOM      9  C   UNL     1       4.354   3.806  17.499  0.00  0.00    +0.000 A 
ATOM     10  C   UNL     1       3.656   4.810  18.196  0.00  0.00    +0.000 A 
BRANCH   9  11
ATOM     11  N   UNL     1       5.424   4.134  16.615  0.00  0.00    +0.000 N 
ATOM     12  C   UNL     1       5.232   4.396  15.209  0.00  0.00    +0.000 C 
ATOM     13  C   UNL     1       6.634   4.433  14.635  0.00  0.00    +0.000 C 
ATOM     14  C   UNL     1       7.474   4.951  15.784  0.00  0.00    +0.000 C 
ATOM     15  C   UNL     1       6.739   4.450  17.003  0.00  0.00    +0.000 C 
ATOM     16  O   UNL     1       7.246   4.431  18.115  0.00  0.00    +0.000 OA
ENDBRANCH   9  11
ENDBRANCH   2   5
BRANCH   1  19
ATOM     17  C   UNL     1       1.463   9.268  18.365  0.00  0.00    +0.000 C 
ATOM     18  C   UNL     1       1.243   8.913  19.823  0.00  0.00    +0.000 C 
ATOM     19  N   UNL     1       1.626   7.805  20.386  0.00  0.00    +0.000 NA
BRANCH  18  20
ATOM     20  C   UNL     1       0.547   9.942  20.681  0.00  0.00    +0.000 A 
ATOM     21  C   UNL     1       0.431  11.280  20.283  0.00  0.00    +0.000 A 
ATOM     22  C   UNL     1      -0.179  12.223  21.120  0.00  0.00    +0.000 A 
ATOM     23  C   UNL     1      -0.725  11.847  22.347  0.00  0.00    +0.000 A 
ATOM     24  C   UNL     1      -0.578  10.522  22.762  0.00  0.00    +0.000 A 
ATOM     25  C   UNL     1       0.032   9.572  21.930  0.00  0.00    +0.000 A 
BRANCH  23  26
ATOM     26  N   UNL     1      -1.188  12.822  23.236  0.00  0.00    +0.000 N 
ATOM     27  H   UNL     1      -1.540  13.662  22.790  0.00  0.00    +0.000 HD
ATOM     28  H   UNL     1      -1.823  12.468  23.945  0.00  0.00    +0.000 HD
ENDBRANCH  23  26
ENDBRANCH  18  20
ENDBRANCH   1  19
TORSDOF 5
ENDMDL
MODEL 3
REMARK VINA RESULT:      -7.7      5.083      7.742
REMARK  Name = 
REMARK  6 active torsions:
REMARK  status: ('A' for Active; 'I' for Inactive)
REMARK    1  A    between atoms: C_1  and  C_2
REMARK    2  A    between atoms: C_2  and  C_19
REMARK    3  A    between atoms: N_3  and  N_4
REMARK    4  A    between atoms: C_5  and  C_7
REMARK    5  A    between atoms: C_11  and  N_12
REMARK    6  A    between atoms: C_22  and  N_23
REMARK                            x       y       z     vdW  Elec       q    Type
REMARK                         _______ _______ _______ _____ _____    ______ ____
ROOT
ATOM      1  N   UNL     1       7.574   7.246  17.971  0.00  0.00    +0.000 N 
ATOM      2  C   UNL     1       7.419   6.062  18.682  0.00  0.00    +0.000 C 
ATOM      3  O   UNL     1       8.056   5.751  19.684  0.00  0.00    +0.000 OA
ATOM      4  H   UNL     1       6.909   7.493  17.256  0.00  0.00    +0.000 HD
ENDROOT
BRANCH   2   5
ATOM      5  C   UNL     1       6.375   5.124  18.174  0.00  0.00    +0.000 A 
ATOM      6  C   UNL     1       6.489   4.694  16.850  0.00  0.00    +0.000 A 
ATOM      7  C   UNL     1       5.524   3.855  16.307  0.00  0.00    +0.000 A 
ATOM      8  C   UNL     1       4.422   3.469  17.075  0.00  0.00    +0.000 A 
ATOM      9  C   UNL     1       4.258   3.913  18.394  0.00  0.00    +0.000 A 
ATOM     10  C   UNL     1       5.266   4.729  18.946  0.00  0.00    +0.000 A 
BRANCH   9  11
ATOM     11  N   UNL     1       3.093   3.578  19.144  0.00  0.00    +0.000 N 
ATOM     12  C   UNL     1       3.145   2.982  20.457  0.00  0.00    +0.000 C 
ATOM     13  C   UNL     1       1.716   2.566  20.742  0.00  0.00    +0.000 C 
ATOM     14  C   UNL     1       0.892   3.590  19.989  0.00  0.00    +0.000 C 
ATOM     15  C   UNL     1       1.776   3.956  18.822  0.00  0.00    +0.000 C 
ATOM     16  O   UNL     1       1.357   4.550  17.841  0.00  0.00    +0.000 OA
ENDBRANCH   9  11
ENDBRANCH   2   5
BRANCH   1  19
ATOM     17  C   UNL     1       7.229  10.042  17.356  0.00  0.00    +0.000 C 
ATOM     18  C   UNL     1       8.362   9.425  18.152  0.00  0.00    +0.000 C 
ATOM     19  N   UNL     1       8.495   8.154  18.398  0.00  0.00    +0.000 NA
BRANCH  18  20
ATOM     20  C   UNL     1       9.425  10.363  18.672  0.00  0.00    +0.000 A 
ATOM     21  C   UNL     1       9.498  10.719  20.025  0.00  0.00    +0.000 A 
ATOM     22  C   UNL     1      10.465  11.628  20.473  0.00  0.00    +0.000 A 
ATOM     23  C   UNL     1      11.406  12.166  19.595  0.00  0.00    +0.000 A 
ATOM     24  C   UNL     1      11.312  11.841  18.240  0.00  0.00    +0.000 A 
ATOM     25  C   UNL     1      10.346  10.932  17.784  0.00  0.00    +0.000 A 
BRANCH  23  26
ATOM     26  N   UNL     1      12.261  13.186  20.023  0.00  0.00    +0.000 N 
ATOM     27  H   UNL     1      13.241  12.925  20.055  0.00  0.00    +0.000 HD
ATOM     28  H   UNL     1      12.113  14.074  19.553  0.00  0.00    +0.000 HD
ENDBRANCH  23  26
ENDBRANCH  18  20
ENDBRANCH   1  19
TORSDOF 5
ENDMDL
MODEL 4
REMARK VINA RESULT:      -7.6      1.019      1.162
REMARK  Name = 
REMARK  6 active torsions:
REMARK  status: ('A' for Active; 'I' for Inactive)
REMARK    1  A    between atoms: C_1  and  C_2
REMARK    2  A    between atoms: C_2  and  C_19
REMARK    3  A    between atoms: N_3  and  N_4
REMARK    4  A    between atoms: C_5  and  C_7
REMARK    5  A    between atoms: C_11  and  N_12
REMARK    6  A    between atoms: C_22  and  N_23
REMARK                            x       y       z     vdW  Elec       q    Type
REMARK                         _______ _______ _______ _____ _____    ______ ____
ROOT
ATOM      1  N   UNL     1       2.387   7.196  19.921  0.00  0.00    +0.000 N 
ATOM      2  C   UNL     1       2.004   5.892  20.211  0.00  0.00    +0.000 C 
ATOM      3  O   UNL     1       0.994   5.573  20.831  0.00  0.00    +0.000 OA
ATOM      4  H   UNL     1       3.143   7.366  19.279  0.00  0.00    +0.000 HD
ENDROOT
BRANCH   2   5
ATOM      5  C   UNL     1       2.903   4.816  19.699  0.00  0.00    +0.000 A 
ATOM      6  C   UNL     1       2.968   3.630  20.435  0.00  0.00    +0.000 A 
ATOM      7  C   UNL     1       3.820   2.610  20.032  0.00  0.00    +0.000 A 
ATOM      8  C   UNL     1       4.635   2.782  18.911  0.00  0.00    +0.000 A 
ATOM      9  C   UNL     1       4.621   3.974  18.172  0.00  0.00    +0.000 A 
ATOM     10  C   UNL     1       3.722   4.984  18.566  0.00  0.00    +0.000 A 
BRANCH   9  11
ATOM     11  N   UNL     1       5.512   4.170  17.077  0.00  0.00    +0.000 N 
ATOM     12  C   UNL     1       5.066   4.284  15.709  0.00  0.00    +0.000 C 
ATOM     13  C   UNL     1       6.338   4.214  14.888  0.00  0.00    +0.000 C 
ATOM     14  C   UNL     1       7.382   4.826  15.799  0.00  0.00    +0.000 C 
ATOM     15  C   UNL     1       6.880   4.483  17.180  0.00  0.00    +0.000 C 
ATOM     16  O   UNL     1       7.584   4.568  18.175  0.00  0.00    +0.000 OA
ENDBRANCH   9  11
ENDBRANCH   2   5
BRANCH   1  19
ATOM     17  C   UNL     1       1.522   9.208  18.044  0.00  0.00    +0.000 C 
ATOM     18  C   UNL     1       1.176   9.138  19.518  0.00  0.00    +0.000 C 
ATOM     19  N   UNL     1       1.596   8.223  20.341  0.00  0.00    +0.000 NA
BRANCH  18  20
ATOM     20  C   UNL     1       0.293  10.234  20.067  0.00  0.00    +0.000 A 
ATOM     21  C   UNL     1       0.460  10.737  21.364  0.00  0.00    +0.000 A 
ATOM     22  C   UNL     1      -0.403  11.721  21.864  0.00  0.00    +0.000 A 
ATOM     23  C   UNL     1      -1.418  12.257  21.071  0.00  0.00    +0.000 A 
ATOM     24  C   UNL     1      -1.608  11.731  19.792  0.00  0.00    +0.000 A 
ATOM     25  C   UNL     1      -0.750  10.745  19.284  0.00  0.00    +0.000 A 
BRANCH  23  26
ATOM     26  N   UNL     1      -2.363  13.120  21.633  0.00  0.00    +0.000 N 
ATOM     27  H   UNL     1      -3.076  13.438  20.984  0.00  0.00    +0.000 HD
ATOM     28  H   UNL     1      -2.758  12.789  22.507  0.00  0.00    +0.000 HD
ENDBRANCH  23  26
ENDBRANCH  18  20
ENDBRANCH   1  19
TORSDOF 5
ENDMDL
MODEL 5
REMARK VINA RESULT:      -7.5      2.977      9.138
REMARK  Name = 
REMARK  6 active torsions:
REMARK  status: ('A' for Active; 'I' for Inactive)
REMARK    1  A    between atoms: C_1  and  C_2
REMARK    2  A    between atoms: C_2  and  C_19
REMARK    3  A    between atoms: N_3  and  N_4
REMARK    4  A    between atoms: C_5  and  C_7
REMARK    5  A    between atoms: C_11  and  N_12
REMARK    6  A    between atoms: C_22  and  N_23
REMARK                            x       y       z     vdW  Elec       q    Type
REMARK                         _______ _______ _______ _____ _____    ______ ____
ROOT
ATOM      1  N   UNL     1       1.483   8.554  20.736  0.00  0.00    +0.000 N 
ATOM      2  C   UNL     1       0.275   8.756  21.392  0.00  0.00    +0.000 C 
ATOM      3  O   UNL     1      -0.521   7.872  21.694  0.00  0.00    +0.000 OA
ATOM      4  H   UNL     1       2.147   9.307  20.663  0.00  0.00    +0.000 HD
ENDROOT
BRANCH   2   5
ATOM      5  C   UNL     1      -0.041  10.166  21.763  0.00  0.00    +0.000 A 
ATOM      6  C   UNL     1      -0.988  10.367  22.771  0.00  0.00    +0.000 A 
ATOM      7  C   UNL     1      -1.356  11.658  23.129  0.00  0.00    +0.000 A 
ATOM      8  C   UNL     1      -0.805  12.753  22.459  0.00  0.00    +0.000 A 
ATOM      9  C   UNL     1       0.120  12.585  21.419  0.00  0.00    +0.000 A 
ATOM     10  C   UNL     1       0.516  11.273  21.094  0.00  0.00    +0.000 A 
BRANCH   9  11
ATOM     11  N   UNL     1       0.618  13.704  20.690  0.00  0.00    +0.000 N 
ATOM     12  C   UNL     1       0.010  14.187  19.474  0.00  0.00    +0.000 C 
ATOM     13  C   UNL     1       1.005  15.190  18.925  0.00  0.00    +0.000 C 
ATOM     14  C   UNL     1       1.665  15.751  20.167  0.00  0.00    +0.000 C 
ATOM     15  C   UNL     1       1.606  14.600  21.141  0.00  0.00    +0.000 C 
ATOM     16  O   UNL     1       2.275  14.568  22.162  0.00  0.00    +0.000 OA
ENDBRANCH   9  11
ENDBRANCH   2   5
BRANCH   1  19
ATOM     17  C   UNL     1       2.604   8.034  18.130  0.00  0.00    +0.000 C 
ATOM     18  C   UNL     1       2.364   7.018  19.230  0.00  0.00    +0.000 C 
ATOM     19  N   UNL     1       1.841   7.286  20.390  0.00  0.00    +0.000 NA
BRANCH  18  20
ATOM     20  C   UNL     1       2.742   5.586  18.935  0.00  0.00    +0.000 A 
ATOM     21  C   UNL     1       3.848   4.975  19.538  0.00  0.00    +0.000 A 
ATOM     22  C   UNL     1       4.204   3.660  19.210  0.00  0.00    +0.000 A 
ATOM     23  C   UNL     1       3.442   2.912  18.313  0.00  0.00    +0.000 A 
ATOM     24  C   UNL     1       2.360   3.532  17.684  0.00  0.00    +0.000 A 
ATOM     25  C   UNL     1       1.998   4.848  18.005  0.00  0.00    +0.000 A 
BRANCH  23  26
ATOM     26  N   UNL     1       3.895   1.663  17.880  0.00  0.00    +0.000 N 
ATOM     27  H   UNL     1       3.171   1.065  17.495  0.00  0.00    +0.000 HD
ATOM     28  H   UNL     1       4.717   1.705  17.285  0.00  0.00    +0.000 HD
ENDBRANCH  23  26
ENDBRANCH  18  20
ENDBRANCH   1  19
TORSDOF 5
ENDMDL
MODEL 6
REMARK VINA RESULT:      -7.4      2.239      3.966
REMARK  Name = 
REMARK  6 active torsions:
REMARK  status: ('A' for Active; 'I' for Inactive)
REMARK    1  A    between atoms: C_1  and  C_2
REMARK    2  A    between atoms: C_2  and  C_19
REMARK    3  A    between atoms: N_3  and  N_4
REMARK    4  A    between atoms: C_5  and  C_7
REMARK    5  A    between atoms: C_11  and  N_12
REMARK    6  A    between atoms: C_22  and  N_23
REMARK                            x       y       z     vdW  Elec       q    Type
REMARK                         _______ _______ _______ _____ _____    ______ ____
ROOT
ATOM      1  N   UNL     1       1.613   8.678  19.486  0.00  0.00    +0.000 N 
ATOM      2  C   UNL     1       2.181   8.697  18.218  0.00  0.00    +0.000 C 
ATOM      3  O   UNL     1       2.047   9.599  17.397  0.00  0.00    +0.000 OA
ATOM      4  H   UNL     1       1.895   7.979  20.153  0.00  0.00    +0.000 HD
ENDROOT
BRANCH   2   5
ATOM      5  C   UNL     1       3.031   7.523  17.864  0.00  0.00    +0.000 A 
ATOM      6  C   UNL     1       4.122   7.752  17.022  0.00  0.00    +0.000 A 
ATOM      7  C   UNL     1       4.925   6.691  16.622  0.00  0.00    +0.000 A 
ATOM      8  C   UNL     1       4.621   5.391  17.034  0.00  0.00    +0.000 A 
ATOM      9  C   UNL     1       3.511   5.122  17.848  0.00  0.00    +0.000 A 
ATOM     10  C   UNL     1       2.731   6.212  18.281  0.00  0.00    +0.000 A 
BRANCH   9  11
ATOM     11  N   UNL     1       3.165   3.785  18.200  0.00  0.00    +0.000 N 
ATOM     12  C   UNL     1       4.041   2.913  18.944  0.00  0.00    +0.000 C 
ATOM     13  C   UNL     1       3.386   1.549  18.853  0.00  0.00    +0.000 C 
ATOM     14  C   UNL     1       1.909   1.870  18.763  0.00  0.00    +0.000 C 
ATOM     15  C   UNL     1       1.887   3.210  18.068  0.00  0.00    +0.000 C 
ATOM     16  O   UNL     1       0.872   3.677  17.573  0.00  0.00    +0.000 OA
ENDBRANCH   9  11
ENDBRANCH   2   5
BRANCH   1  19
ATOM     17  C   UNL     1      -0.137   8.414  21.763  0.00  0.00    +0.000 C 
ATOM     18  C   UNL     1       0.056   9.653  20.911  0.00  0.00    +0.000 C 
ATOM     19  N   UNL     1       0.844   9.732  19.879  0.00  0.00    +0.000 NA
BRANCH  18  20
ATOM     20  C   UNL     1      -0.752  10.874  21.282  0.00  0.00    +0.000 A 
ATOM     21  C   UNL     1      -1.248  11.754  20.313  0.00  0.00    +0.000 A 
ATOM     22  C   UNL     1      -1.954  12.905  20.688  0.00  0.00    +0.000 A 
ATOM     23  C   UNL     1      -2.220  13.178  22.030  0.00  0.00    +0.000 A 
ATOM     24  C   UNL     1      -1.695  12.321  22.999  0.00  0.00    +0.000 A 
ATOM     25  C   UNL     1      -0.986  11.168  22.632  0.00  0.00    +0.000 A 
BRANCH  23  26
ATOM     26  N   UNL     1      -2.786  14.403  22.397  0.00  0.00    +0.000 N 
ATOM     27  H   UNL     1      -2.133  15.180  22.404  0.00  0.00    +0.000 HD
ATOM     28  H   UNL     1      -3.645  14.626  21.905  0.00  0.00    +0.000 HD
ENDBRANCH  23  26
ENDBRANCH  18  20
ENDBRANCH   1  19
TORSDOF 5
ENDMDL
MODEL 7
REMARK VINA RESULT:      -7.4      1.866      2.909
REMARK  Name = 
REMARK  6 active torsions:
REMARK  status: ('A' for Active; 'I' for Inactive)
REMARK    1  A    between atoms: C_1  and  C_2
REMARK    2  A    between atoms: C_2  and  C_19
REMARK    3  A    between atoms: N_3  and  N_4
REMARK    4  A    between atoms: C_5  and  C_7
REMARK    5  A    between atoms: C_11  and  N_12
REMARK    6  A    between atoms: C_22  and  N_23
REMARK                            x       y       z     vdW  Elec       q    Type
REMARK                         _______ _______ _______ _____ _____    ______ ____
ROOT
ATOM      1  N   UNL     1       1.153   8.637  20.885  0.00  0.00    +0.000 N 
ATOM      2  C   UNL     1       1.687   8.235  19.667  0.00  0.00    +0.000 C 
ATOM      3  O   UNL     1       1.700   8.911  18.643  0.00  0.00    +0.000 OA
ATOM      4  H   UNL     1       1.320   8.088  21.712  0.00  0.00    +0.000 HD
ENDROOT
BRANCH   2   5
ATOM      5  C   UNL     1       2.302   6.875  19.638  0.00  0.00    +0.000 A 
ATOM      6  C   UNL     1       1.776   5.915  20.506  0.00  0.00    +0.000 A 
ATOM      7  C   UNL     1       2.335   4.644  20.557  0.00  0.00    +0.000 A 
ATOM      8  C   UNL     1       3.444   4.337  19.763  0.00  0.00    +0.000 A 
ATOM      9  C   UNL     1       4.018   5.289  18.908  0.00  0.00    +0.000 A 
ATOM     10  C   UNL     1       3.415   6.560  18.836  0.00  0.00    +0.000 A 
BRANCH   9  11
ATOM     11  N   UNL     1       5.194   4.991  18.160  0.00  0.00    +0.000 N 
ATOM     12  C   UNL     1       5.195   4.815  16.729  0.00  0.00    +0.000 C 
ATOM     13  C   UNL     1       6.571   4.263  16.414  0.00  0.00    +0.000 C 
ATOM     14  C   UNL     1       7.451   4.874  17.485  0.00  0.00    +0.000 C 
ATOM     15  C   UNL     1       6.511   5.034  18.656  0.00  0.00    +0.000 C 
ATOM     16  O   UNL     1       6.907   5.242  19.792  0.00  0.00    +0.000 OA
ENDBRANCH   9  11
ENDBRANCH   2   5
BRANCH   1  19
ATOM     17  C   UNL     1      -0.137   9.447  23.334  0.00  0.00    +0.000 C 
ATOM     18  C   UNL     1       0.022  10.281  22.078  0.00  0.00    +0.000 C 
ATOM     19  N   UNL     1       0.598   9.877  20.983  0.00  0.00    +0.000 NA
BRANCH  18  20
ATOM     20  C   UNL     1      -0.557  11.675  22.102  0.00  0.00    +0.000 A 
ATOM     21  C   UNL     1      -0.123  12.671  21.219  0.00  0.00    +0.000 A 
ATOM     22  C   UNL     1      -0.644  13.970  21.295  0.00  0.00    +0.000 A 
ATOM     23  C   UNL     1      -1.638  14.291  22.219  0.00  0.00    +0.000 A 
ATOM     24  C   UNL     1      -2.045  13.309  23.124  0.00  0.00    +0.000 A 
ATOM     25  C   UNL     1      -1.528  12.008  23.055  0.00  0.00    +0.000 A 
BRANCH  23  26
ATOM     26  N   UNL     1      -2.034  15.621  22.387  0.00  0.00    +0.000 N 
ATOM     27  H   UNL     1      -2.970  15.735  22.761  0.00  0.00    +0.000 HD
ATOM     28  H   UNL     1      -1.353  16.198  22.872  0.00  0.00    +0.000 HD
ENDBRANCH  23  26
ENDBRANCH  18  20
ENDBRANCH   1  19
TORSDOF 5
ENDMDL
MODEL 8
REMARK VINA RESULT:      -7.4      2.501      4.419
REMARK  Name = 
REMARK  6 active torsions:
REMARK  status: ('A' for Active; 'I' for Inactive)
REMARK    1  A    between atoms: C_1  and  C_2
REMARK    2  A    between atoms: C_2  and  C_19
REMARK    3  A    between atoms: N_3  and  N_4
REMARK    4  A    between atoms: C_5  and  C_7
REMARK    5  A    between atoms: C_11  and  N_12
REMARK    6  A    between atoms: C_22  and  N_23
REMARK                            x       y       z     vdW  Elec       q    Type
REMARK                         _______ _______ _______ _____ _____    ______ ____
ROOT
ATOM      1  N   UNL     1       0.984  10.400  21.194  0.00  0.00    +0.000 N 
ATOM      2  C   UNL     1       0.640   9.071  20.978  0.00  0.00    +0.000 C 
ATOM      3  O   UNL     1      -0.306   8.491  21.503  0.00  0.00    +0.000 OA
ATOM      4  H   UNL     1       1.675  10.841  20.611  0.00  0.00    +0.000 HD
ENDROOT
BRANCH   2   5
ATOM      5  C   UNL     1       1.495   8.322  20.011  0.00  0.00    +0.000 A 
ATOM      6  C   UNL     1       1.725   8.914  18.766  0.00  0.00    +0.000 A 
ATOM      7  C   UNL     1       2.477   8.246  17.808  0.00  0.00    +0.000 A 
ATOM      8  C   UNL     1       2.975   6.968  18.077  0.00  0.00    +0.000 A 
ATOM      9  C   UNL     1       2.731   6.331  19.302  0.00  0.00    +0.000 A 
ATOM     10  C   UNL     1       2.003   7.037  20.280  0.00  0.00    +0.000 A 
BRANCH   9  11
ATOM     11  N   UNL     1       3.177   4.998  19.539  0.00  0.00    +0.000 N 
ATOM     12  C   UNL     1       2.276   3.885  19.717  0.00  0.00    +0.000 C 
ATOM     13  C   UNL     1       3.162   2.752  20.195  0.00  0.00    +0.000 C 
ATOM     14  C   UNL     1       4.495   3.043  19.538  0.00  0.00    +0.000 C 
ATOM     15  C   UNL     1       4.506   4.548  19.426  0.00  0.00    +0.000 C 
ATOM     16  O   UNL     1       5.524   5.183  19.196  0.00  0.00    +0.000 OA
ENDBRANCH   9  11
ENDBRANCH   2   5
BRANCH   1  19
ATOM     17  C   UNL     1      -1.099  12.105  20.160  0.00  0.00    +0.000 C 
ATOM     18  C   UNL     1      -0.729  11.912  21.618  0.00  0.00    +0.000 C 
ATOM     19  N   UNL     1       0.228  11.145  22.048  0.00  0.00    +0.000 NA
BRANCH  18  20
ATOM     20  C   UNL     1      -1.525  12.694  22.636  0.00  0.00    +0.000 A 
ATOM     21  C   UNL     1      -2.816  12.309  23.018  0.00  0.00    +0.000 A 
ATOM     22  C   UNL     1      -3.550  13.080  23.930  0.00  0.00    +0.000 A 
ATOM     23  C   UNL     1      -2.998  14.220  24.513  0.00  0.00    +0.000 A 
ATOM     24  C   UNL     1      -1.725  14.625  24.106  0.00  0.00    +0.000 A 
ATOM     25  C   UNL     1      -0.985  13.860  23.193  0.00  0.00    +0.000 A 
BRANCH  23  26
ATOM     26  N   UNL     1      -3.794  15.061  25.297  0.00  0.00    +0.000 N 
ATOM     27  H   UNL     1      -3.426  15.239  26.226  0.00  0.00    +0.000 HD
ATOM     28  H   UNL     1      -4.083  15.913  24.828  0.00  0.00    +0.000 HD
ENDBRANCH  23  26
ENDBRANCH  18  20
ENDBRANCH   1  19
TORSDOF 5
ENDMDL
MODEL 9
REMARK VINA RESULT:      -7.4      2.215      3.825
REMARK  Name = 
REMARK  6 active torsions:
REMARK  status: ('A' for Active; 'I' for Inactive)
REMARK    1  A    between atoms: C_1  and  C_2
REMARK    2  A    between atoms: C_2  and  C_19
REMARK    3  A    between atoms: N_3  and  N_4
REMARK    4  A    between atoms: C_5  and  C_7
REMARK    5  A    between atoms: C_11  and  N_12
REMARK    6  A    between atoms: C_22  and  N_23
REMARK                            x       y       z     vdW  Elec       q    Type
REMARK                         _______ _______ _______ _____ _____    ______ ____
ROOT
ATOM      1  N   UNL     1       1.487   8.568  19.480  0.00  0.00    +0.000 N 
ATOM      2  C   UNL     1       2.120   8.642  18.246  0.00  0.00    +0.000 C 
ATOM      3  O   UNL     1       2.013   9.571  17.451  0.00  0.00    +0.000 OA
ATOM      4  H   UNL     1       1.747   7.850  20.136  0.00  0.00    +0.000 HD
ENDROOT
BRANCH   2   5
ATOM      5  C   UNL     1       3.010   7.496  17.896  0.00  0.00    +0.000 A 
ATOM      6  C   UNL     1       4.106   7.762  17.072  0.00  0.00    +0.000 A 
ATOM      7  C   UNL     1       4.945   6.728  16.677  0.00  0.00    +0.000 A 
ATOM      8  C   UNL     1       4.674   5.417  17.077  0.00  0.00    +0.000 A 
ATOM      9  C   UNL     1       3.561   5.110  17.873  0.00  0.00    +0.000 A 
ATOM     10  C   UNL     1       2.743   6.174  18.302  0.00  0.00    +0.000 A 
BRANCH   9  11
ATOM     11  N   UNL     1       3.249   3.761  18.212  0.00  0.00    +0.000 N 
ATOM     12  C   UNL     1       4.143   2.909  18.956  0.00  0.00    +0.000 C 
ATOM     13  C   UNL     1       3.528   1.527  18.849  0.00  0.00    +0.000 C 
ATOM     14  C   UNL     1       2.043   1.808  18.750  0.00  0.00    +0.000 C 
ATOM     15  C   UNL     1       1.989   3.151  18.065  0.00  0.00    +0.000 C 
ATOM     16  O   UNL     1       0.967   3.594  17.564  0.00  0.00    +0.000 OA
ENDBRANCH   9  11
ENDBRANCH   2   5
BRANCH   1  19
ATOM     17  C   UNL     1       1.068   9.090  22.285  0.00  0.00    +0.000 C 
ATOM     18  C   UNL     1       0.481   9.867  21.124  0.00  0.00    +0.000 C 
ATOM     19  N   UNL     1       0.679   9.594  19.868  0.00  0.00    +0.000 NA
BRANCH  18  20
ATOM     20  C   UNL     1      -0.421  11.030  21.464  0.00  0.00    +0.000 A 
ATOM     21  C   UNL     1      -0.887  11.247  22.767  0.00  0.00    +0.000 A 
ATOM     22  C   UNL     1      -1.760  12.307  23.045  0.00  0.00    +0.000 A 
ATOM     23  C   UNL     1      -2.150  13.197  22.045  0.00  0.00    +0.000 A 
ATOM     24  C   UNL     1      -1.716  12.960  20.739  0.00  0.00    +0.000 A 
ATOM     25  C   UNL     1      -0.843  11.902  20.452  0.00  0.00    +0.000 A 
BRANCH  23  26
ATOM     26  N   UNL     1      -3.140  14.150  22.302  0.00  0.00    +0.000 N 
ATOM     27  H   UNL     1      -3.042  14.625  23.194  0.00  0.00    +0.000 HD
ATOM     28  H   UNL     1      -3.301  14.797  21.537  0.00  0.00    +0.000 HD
ENDBRANCH  23  26
ENDBRANCH  18  20
ENDBRANCH   1  19
TORSDOF 5
ENDMDL
