MODEL 1
REMARK VINA RESULT:      -8.1      0.000      0.000
REMARK  Name = 
REMARK  4 active torsions:
REMARK  status: ('A' for Active; 'I' for Inactive)
REMARK    1  A    between atoms: C_2  and  C_3
REMARK    2  A    between atoms: C_2  and  C_14
REMARK    3  A    between atoms: C_4  and  C_5
REMARK    4  A    between atoms: C_20  and  O_21
REMARK                            x       y       z     vdW  Elec       q    Type
REMARK                         _______ _______ _______ _____ _____    ______ ____
ROOT
ATOM      1  C   UNL     1       5.778   3.953  16.298  0.00  0.00    +0.000 C 
ATOM      2  C   UNL     1       4.715   4.375  16.997  0.00  0.00    +0.000 C 
ENDROOT
BRANCH   2   3
ATOM      3  C   UNL     1       3.843   3.506  17.731  0.00  0.00    +0.000 A 
ATOM      4  C   UNL     1       3.716   2.146  17.535  0.00  0.00    +0.000 A 
ATOM      5  N   UNL     1       2.818   1.666  18.451  0.00  0.00    +0.000 N 
ATOM      6  C   UNL     1       2.332   2.694  19.222  0.00  0.00    +0.000 A 
ATOM      7  C   UNL     1       1.406   2.664  20.270  0.00  0.00    +0.000 A 
ATOM      8  C   UNL     1       1.076   3.878  20.876  0.00  0.00    +0.000 A 
ATOM      9  C   UNL     1       1.652   5.072  20.449  0.00  0.00    +0.000 A 
ATOM     10  C   UNL     1       2.584   5.084  19.406  0.00  0.00    +0.000 A 
ATOM     11  C   UNL     1       2.942   3.870  18.779  0.00  0.00    +0.000 A 
ATOM     12  H   UNL     1       2.547   0.698  18.546  0.00  0.00    +0.000 HD
ENDBRANCH   2   3
BRANCH   1  14
ATOM     13  O   UNL     1       7.252   5.790  15.990  0.00  0.00    +0.000 OA
ATOM     14  C   UNL     1       6.614   4.868  15.486  0.00  0.00    +0.000 C 
BRANCH  14  15
ATOM     15  C   UNL     1       6.713   4.578  14.026  0.00  0.00    +0.000 A 
ATOM     16  C   UNL     1       5.769   3.706  13.465  0.00  0.00    +0.000 A 
ATOM     17  C   UNL     1       5.816   3.420  12.102  0.00  0.00    +0.000 A 
ATOM     18 CL   UNL     1       4.660   2.352  11.406  0.00  0.00    +0.000 Cl
ATOM     19  C   UNL     1       6.793   3.994  11.288  0.00  0.00    +0.000 A 
ATOM     20  C   UNL     1       7.744   4.849  11.839  0.00  0.00    +0.000 A 
ATOM     21  C   UNL     1       7.709   5.132  13.205  0.00  0.00    +0.000 A 
BRANCH  21  22
ATOM     22  O   UNL     1       8.683   5.935  13.727  0.00  0.00    +0.000 OA
ATOM     23  H   UNL     1       9.154   5.476  14.444  0.00  0.00    +0.000 HD
ENDBRANCH  21  22
ENDBRANCH  14  15
ENDBRANCH   1  14
TORSDOF 4
ENDMDL
MODEL 2
REMARK VINA RESULT:      -8.1      3.756      5.388
REMARK  Name = 
REMARK  4 active torsions:
REMARK  status: ('A' for Active; 'I' for Inactive)
REMARK    1  A    between atoms: C_2  and  C_3
REMARK    2  A    between atoms: C_2  and  C_14
REMARK    3  A    between atoms: C_4  and  C_5
REMARK    4  A    between atoms: C_20  and  O_21
REMARK                            x       y       z     vdW  Elec       q    Type
REMARK                         _______ _______ _______ _____ _____    ______ ____
ROOT
ATOM      1  C   UNL     1       2.675   5.558  18.335  0.00  0.00    +0.000 C 
ATOM      2  C   UNL     1       3.019   6.727  18.892  0.00  0.00    +0.000 C 
ENDROOT
BRANCH   2   3
ATOM      3  C   UNL     1       2.248   7.929  18.775  0.00  0.00    +0.000 A 
ATOM      4  C   UNL     1       2.157   8.716  17.645  0.00  0.00    +0.000 A 
ATOM      5  N   UNL     1       1.298   9.748  17.913  0.00  0.00    +0.000 N 
ATOM      6  C   UNL     1       0.850   9.668  19.210  0.00  0.00    +0.000 A 
ATOM      7  C   UNL     1      -0.033  10.503  19.903  0.00  0.00    +0.000 A 
ATOM      8  C   UNL     1      -0.303  10.191  21.237  0.00  0.00    +0.000 A 
ATOM      9  C   UNL     1       0.287   9.088  21.850  0.00  0.00    +0.000 A 
ATOM     10  C   UNL     1       1.161   8.258  21.139  0.00  0.00    +0.000 A 
ATOM     11  C   UNL     1       1.448   8.544  19.786  0.00  0.00    +0.000 A 
ATOM     12  H   UNL     1       1.034  10.469  17.258  0.00  0.00    +0.000 HD
ENDBRANCH   2   3
BRANCH   1  14
ATOM     13  O   UNL     1       3.181   3.333  18.995  0.00  0.00    +0.000 OA
ATOM     14  C   UNL     1       3.534   4.354  18.409  0.00  0.00    +0.000 C 
BRANCH  14  15
ATOM     15  C   UNL     1       4.831   4.401  17.671  0.00  0.00    +0.000 A 
ATOM     16  C   UNL     1       4.808   4.166  16.290  0.00  0.00    +0.000 A 
ATOM     17  C   UNL     1       5.995   4.216  15.560  0.00  0.00    +0.000 A 
ATOM     18 CL   UNL     1       5.974   3.930  13.863  0.00  0.00    +0.000 Cl
ATOM     19  C   UNL     1       7.205   4.499  16.190  0.00  0.00    +0.000 A 
ATOM     20  C   UNL     1       7.241   4.719  17.565  0.00  0.00    +0.000 A 
ATOM     21  C   UNL     1       6.058   4.661  18.304  0.00  0.00    +0.000 A 
BRANCH  21  22
ATOM     22  O   UNL     1       6.128   4.832  19.658  0.00  0.00    +0.000 OA
ATOM     23  H   UNL     1       6.051   3.976  20.112  0.00  0.00    +0.000 HD
ENDBRANCH  21  22
ENDBRANCH  14  15
ENDBRANCH   1  14
TORSDOF 4
ENDMDL
MODEL 3
REMARK VINA RESULT:      -8.1      3.620      7.847
REMARK  Name = 
REMARK  4 active torsions:
REMARK  status: ('A' for Active; 'I' for Inactive)
REMARK    1  A    between atoms: C_2  and  C_3
REMARK    2  A    between atoms: C_2  and  C_14
REMARK    3  A    between atoms: C_4  and  C_5
REMARK    4  A    between atoms: C_20  and  O_21
REMARK                            x       y       z     vdW  Elec       q    Type
REMARK                         _______ _______ _______ _____ _____    ______ ____
ROOT
ATOM      1  C   UNL     1       3.681   3.927  16.547  0.00  0.00    +0.000 C 
ATOM      2  C   UNL     1       5.009   3.807  16.679  0.00  0.00    +0.000 C 
ENDROOT
BRANCH   2   3
ATOM      3  C   UNL     1       5.961   4.411  15.794  0.00  0.00    +0.000 A 
ATOM      4  C   UNL     1       6.888   5.370  16.149  0.00  0.00    +0.000 A 
ATOM      5  N   UNL     1       7.639   5.665  15.042  0.00  0.00    +0.000 N 
ATOM      6  C   UNL     1       7.198   4.938  13.962  0.00  0.00    +0.000 A 
ATOM      7  C   UNL     1       7.668   4.921  12.645  0.00  0.00    +0.000 A 
ATOM      8  C   UNL     1       7.013   4.088  11.736  0.00  0.00    +0.000 A 
ATOM      9  C   UNL     1       5.931   3.305  12.131  0.00  0.00    +0.000 A 
ATOM     10  C   UNL     1       5.479   3.327  13.456  0.00  0.00    +0.000 A 
ATOM     11  C   UNL     1       6.127   4.154  14.399  0.00  0.00    +0.000 A 
ATOM     12  H   UNL     1       8.403   6.324  15.017  0.00  0.00    +0.000 HD
ENDBRANCH   2   3
BRANCH   1  14
ATOM     13  O   UNL     1       2.328   2.086  17.197  0.00  0.00    +0.000 OA
ATOM     14  C   UNL     1       2.723   3.226  17.433  0.00  0.00    +0.000 C 
BRANCH  14  15
ATOM     15  C   UNL     1       2.309   3.936  18.679  0.00  0.00    +0.000 A 
ATOM     16  C   UNL     1       2.383   5.335  18.691  0.00  0.00    +0.000 A 
ATOM     17  C   UNL     1       1.992   6.039  19.830  0.00  0.00    +0.000 A 
ATOM     18 CL   UNL     1       2.078   7.757  19.852  0.00  0.00    +0.000 Cl
ATOM     19  C   UNL     1       1.525   5.363  20.957  0.00  0.00    +0.000 A 
ATOM     20  C   UNL     1       1.462   3.972  20.959  0.00  0.00    +0.000 A 
ATOM     21  C   UNL     1       1.862   3.261  19.827  0.00  0.00    +0.000 A 
BRANCH  21  22
ATOM     22  O   UNL     1       1.836   1.896  19.874  0.00  0.00    +0.000 OA
ATOM     23  H   UNL     1       1.141   1.549  19.290  0.00  0.00    +0.000 HD
ENDBRANCH  21  22
ENDBRANCH  14  15
ENDBRANCH   1  14
TORSDOF 4
ENDMDL
MODEL 4
REMARK VINA RESULT:      -7.9      1.131      1.396
REMARK  Name = 
REMARK  4 active torsions:
REMARK  status: ('A' for Active; 'I' for Inactive)
REMARK    1  A    between atoms: C_2  and  C_3
REMARK    2  A    between atoms: C_2  and  C_14
REMARK    3  A    between atoms: C_4  and  C_5
REMARK    4  A    between atoms: C_20  and  O_21
REMARK                            x       y       z     vdW  Elec       q    Type
REMARK                         _______ _______ _______ _____ _____    ______ ____
ROOT
ATOM      1  C   UNL     1       5.099   4.552  16.358  0.00  0.00    +0.000 C 
ATOM      2  C   UNL     1       4.645   3.659  17.248  0.00  0.00    +0.000 C 
ENDROOT
BRANCH   2   3
ATOM      3  C   UNL     1       3.340   3.708  17.838  0.00  0.00    +0.000 A 
ATOM      4  C   UNL     1       2.197   4.171  17.216  0.00  0.00    +0.000 A 
ATOM      5  N   UNL     1       1.150   4.020  18.086  0.00  0.00    +0.000 N 
ATOM      6  C   UNL     1       1.593   3.496  19.276  0.00  0.00    +0.000 A 
ATOM      7  C   UNL     1       0.876   3.178  20.434  0.00  0.00    +0.000 A 
ATOM      8  C   UNL     1       1.592   2.667  21.518  0.00  0.00    +0.000 A 
ATOM      9  C   UNL     1       2.971   2.483  21.444  0.00  0.00    +0.000 A 
ATOM     10  C   UNL     1       3.672   2.797  20.274  0.00  0.00    +0.000 A 
ATOM     11  C   UNL     1       2.973   3.308  19.159  0.00  0.00    +0.000 A 
ATOM     12  H   UNL     1       0.190   4.262  17.886  0.00  0.00    +0.000 HD
ENDBRANCH   2   3
BRANCH   1  14
ATOM     13  O   UNL     1       7.466   4.518  16.564  0.00  0.00    +0.000 OA
ATOM     14  C   UNL     1       6.482   4.517  15.827  0.00  0.00    +0.000 C 
BRANCH  14  15
ATOM     15  C   UNL     1       6.636   4.403  14.347  0.00  0.00    +0.000 A 
ATOM     16  C   UNL     1       5.751   3.562  13.659  0.00  0.00    +0.000 A 
ATOM     17  C   UNL     1       5.851   3.438  12.274  0.00  0.00    +0.000 A 
ATOM     18 CL   UNL     1       4.767   2.408  11.422  0.00  0.00    +0.000 Cl
ATOM     19  C   UNL     1       6.821   4.145  11.565  0.00  0.00    +0.000 A 
ATOM     20  C   UNL     1       7.714   4.972  12.242  0.00  0.00    +0.000 A 
ATOM     21  C   UNL     1       7.628   5.093  13.629  0.00  0.00    +0.000 A 
BRANCH  21  22
ATOM     22  O   UNL     1       8.547   5.872  14.273  0.00  0.00    +0.000 OA
ATOM     23  H   UNL     1       9.435   5.483  14.197  0.00  0.00    +0.000 HD
ENDBRANCH  21  22
ENDBRANCH  14  15
ENDBRANCH   1  14
TORSDOF 4
ENDMDL
MODEL 5
REMARK VINA RESULT:      -7.9      5.592      8.271
REMARK  Name = 
REMARK  4 active torsions:
REMARK  status: ('A' for Active; 'I' for Inactive)
REMARK    1  A    between atoms: C_2  and  C_3
REMARK    2  A    between atoms: C_2  and  C_14
REMARK    3  A    between atoms: C_4  and  C_5
REMARK    4  A    between atoms: C_20  and  O_21
REMARK                            x       y       z     vdW  Elec       q    Type
REMARK                         _______ _______ _______ _____ _____    ______ ____
ROOT
ATOM      1  C   UNL     1       2.208   7.753  18.876  0.00  0.00    +0.000 C 
ATOM      2  C   UNL     1       3.025   7.047  18.082  0.00  0.00    +0.000 C 
ENDROOT
BRANCH   2   3
ATOM      3  C   UNL     1       3.574   5.770  18.430  0.00  0.00    +0.000 A 
ATOM      4  C   UNL     1       4.898   5.522  18.729  0.00  0.00    +0.000 A 
ATOM      5  N   UNL     1       5.020   4.195  19.047  0.00  0.00    +0.000 N 
ATOM      6  C   UNL     1       3.805   3.565  18.930  0.00  0.00    +0.000 A 
ATOM      7  C   UNL     1       3.467   2.226  19.156  0.00  0.00    +0.000 A 
ATOM      8  C   UNL     1       2.140   1.850  18.941  0.00  0.00    +0.000 A 
ATOM      9  C   UNL     1       1.191   2.777  18.517  0.00  0.00    +0.000 A 
ATOM     10  C   UNL     1       1.544   4.115  18.305  0.00  0.00    +0.000 A 
ATOM     11  C   UNL     1       2.877   4.527  18.522  0.00  0.00    +0.000 A 
ATOM     12  H   UNL     1       5.879   3.741  19.323  0.00  0.00    +0.000 HD
ENDBRANCH   2   3
BRANCH   1  14
ATOM     13  O   UNL     1       1.997   9.639  17.446  0.00  0.00    +0.000 OA
ATOM     14  C   UNL     1       1.722   9.107  18.519  0.00  0.00    +0.000 C 
BRANCH  14  15
ATOM     15  C   UNL     1       0.810   9.776  19.493  0.00  0.00    +0.000 A 
ATOM     16  C   UNL     1       0.858   9.358  20.830  0.00  0.00    +0.000 A 
ATOM     17  C   UNL     1       0.033   9.967  21.775  0.00  0.00    +0.000 A 
ATOM     18 CL   UNL     1       0.088   9.460  23.419  0.00  0.00    +0.000 Cl
ATOM     19  C   UNL     1      -0.838  10.991  21.404  0.00  0.00    +0.000 A 
ATOM     20  C   UNL     1      -0.903  11.403  20.075  0.00  0.00    +0.000 A 
ATOM     21  C   UNL     1      -0.089  10.790  19.122  0.00  0.00    +0.000 A 
BRANCH  21  22
ATOM     22  O   UNL     1      -0.209  11.180  17.817  0.00  0.00    +0.000 OA
ATOM     23  H   UNL     1      -1.041  10.848  17.439  0.00  0.00    +0.000 HD
ENDBRANCH  21  22
ENDBRANCH  14  15
ENDBRANCH   1  14
TORSDOF 4
ENDMDL
MODEL 6
REMARK VINA RESULT:      -7.7      1.418      1.845
REMARK  Name = 
REMARK  4 active torsions:
REMARK  status: ('A' for Active; 'I' for Inactive)
REMARK    1  A    between atoms: C_2  and  C_3
REMARK    2  A    between atoms: C_2  and  C_14
REMARK    3  A    between atoms: C_4  and  C_5
REMARK    4  A    between atoms: C_20  and  O_21
REMARK                            x       y       z     vdW  Elec       q    Type
REMARK                         _______ _______ _______ _____ _____    ______ ____
ROOT
ATOM      1  C   UNL     1       5.473   4.817  16.351  0.00  0.00    +0.000 C 
ATOM      2  C   UNL     1       5.328   4.929  17.679  0.00  0.00    +0.000 C 
ENDROOT
BRANCH   2   3
ATOM      3  C   UNL     1       4.086   5.230  18.327  0.00  0.00    +0.000 A 
ATOM      4  C   UNL     1       3.342   6.377  18.140  0.00  0.00    +0.000 A 
ATOM      5  N   UNL     1       2.208   6.277  18.901  0.00  0.00    +0.000 N 
ATOM      6  C   UNL     1       2.213   5.098  19.607  0.00  0.00    +0.000 A 
ATOM      7  C   UNL     1       1.263   4.587  20.498  0.00  0.00    +0.000 A 
ATOM      8  C   UNL     1       1.535   3.354  21.095  0.00  0.00    +0.000 A 
ATOM      9  C   UNL     1       2.711   2.663  20.809  0.00  0.00    +0.000 A 
ATOM     10  C   UNL     1       3.645   3.184  19.907  0.00  0.00    +0.000 A 
ATOM     11  C   UNL     1       3.394   4.425  19.283  0.00  0.00    +0.000 A 
ATOM     12  H   UNL     1       1.474   6.969  18.944  0.00  0.00    +0.000 HD
ENDBRANCH   2   3
BRANCH   1  14
ATOM     13  O   UNL     1       7.817   4.430  16.361  0.00  0.00    +0.000 OA
ATOM     14  C   UNL     1       6.787   4.583  15.708  0.00  0.00    +0.000 C 
BRANCH  14  15
ATOM     15  C   UNL     1       6.800   4.463  14.221  0.00  0.00    +0.000 A 
ATOM     16  C   UNL     1       5.841   3.635  13.621  0.00  0.00    +0.000 A 
ATOM     17  C   UNL     1       5.809   3.506  12.233  0.00  0.00    +0.000 A 
ATOM     18 CL   UNL     1       4.633   2.492  11.490  0.00  0.00    +0.000 Cl
ATOM     19  C   UNL     1       6.720   4.195  11.434  0.00  0.00    +0.000 A 
ATOM     20  C   UNL     1       7.686   5.009  12.021  0.00  0.00    +0.000 A 
ATOM     21  C   UNL     1       7.731   5.134  13.410  0.00  0.00    +0.000 A 
BRANCH  21  22
ATOM     22  O   UNL     1       8.719   5.899  13.962  0.00  0.00    +0.000 OA
ATOM     23  H   UNL     1       8.564   6.841  13.774  0.00  0.00    +0.000 HD
ENDBRANCH  21  22
ENDBRANCH  14  15
ENDBRANCH   1  14
TORSDOF 4
ENDMDL
MODEL 7
REMARK VINA RESULT:      -7.7      5.281      8.134
REMARK  Name = 
REMARK  4 active torsions:
REMARK  status: ('A' for Active; 'I' for Inactive)
REMARK    1  A    between atoms: C_2  and  C_3
REMARK    2  A    between atoms: C_2  and  C_14
REMARK    3  A    between atoms: C_4  and  C_5
REMARK    4  A    between atoms: C_20  and  O_21
REMARK                            x       y       z     vdW  Elec       q    Type
REMARK                         _______ _______ _______ _____ _____    ______ ____
ROOT
ATOM      1  C   UNL     1       1.825   7.854  18.112  0.00  0.00    +0.000 C 
ATOM      2  C   UNL     1       2.990   7.201  18.217  0.00  0.00    +0.000 C 
ENDROOT
BRANCH   2   3
ATOM      3  C   UNL     1       3.116   5.774  18.182  0.00  0.00    +0.000 A 
ATOM      4  C   UNL     1       3.875   5.059  17.277  0.00  0.00    +0.000 A 
ATOM      5  N   UNL     1       3.771   3.730  17.593  0.00  0.00    +0.000 N 
ATOM      6  C   UNL     1       2.933   3.562  18.669  0.00  0.00    +0.000 A 
ATOM      7  C   UNL     1       2.545   2.388  19.324  0.00  0.00    +0.000 A 
ATOM      8  C   UNL     1       1.657   2.510  20.395  0.00  0.00    +0.000 A 
ATOM      9  C   UNL     1       1.178   3.756  20.792  0.00  0.00    +0.000 A 
ATOM     10  C   UNL     1       1.584   4.921  20.132  0.00  0.00    +0.000 A 
ATOM     11  C   UNL     1       2.487   4.830  19.050  0.00  0.00    +0.000 A 
ATOM     12  H   UNL     1       4.237   2.979  17.105  0.00  0.00    +0.000 HD
ENDBRANCH   2   3
BRANCH   1  14
ATOM     13  O   UNL     1       2.314  10.088  17.470  0.00  0.00    +0.000 OA
ATOM     14  C   UNL     1       1.720   9.327  18.231  0.00  0.00    +0.000 C 
BRANCH  14  15
ATOM     15  C   UNL     1       0.795   9.858  19.274  0.00  0.00    +0.000 A 
ATOM     16  C   UNL     1       0.972   9.418  20.593  0.00  0.00    +0.000 A 
ATOM     17  C   UNL     1       0.139   9.901  21.601  0.00  0.00    +0.000 A 
ATOM     18 CL   UNL     1       0.352   9.367  23.223  0.00  0.00    +0.000 Cl
ATOM     19  C   UNL     1      -0.869  10.820  21.311  0.00  0.00    +0.000 A 
ATOM     20  C   UNL     1      -1.062  11.252  20.001  0.00  0.00    +0.000 A 
ATOM     21  C   UNL     1      -0.239  10.764  18.985  0.00  0.00    +0.000 A 
BRANCH  21  22
ATOM     22  O   UNL     1      -0.482  11.167  17.702  0.00  0.00    +0.000 OA
ATOM     23  H   UNL     1      -1.114  11.906  17.692  0.00  0.00    +0.000 HD
ENDBRANCH  21  22
ENDBRANCH  14  15
ENDBRANCH   1  14
TORSDOF 4
ENDMDL
MODEL 8
REMARK VINA RESULT:      -7.7      3.668      7.791
REMARK  Name = 
REMARK  4 active torsions:
REMARK  status: ('A' for Active; 'I' for Inactive)
REMARK    1  A    between atoms: C_2  and  C_3
REMARK    2  A    between atoms: C_2  and  C_14
REMARK    3  A    between atoms: C_4  and  C_5
REMARK    4  A    between atoms: C_20  and  O_21
REMARK                            x       y       z     vdW  Elec       q    Type
REMARK                         _______ _______ _______ _____ _____    ______ ____
ROOT
ATOM      1  C   UNL     1       4.474   4.552  17.739  0.00  0.00    +0.000 C 
ATOM      2  C   UNL     1       4.459   4.582  16.400  0.00  0.00    +0.000 C 
ENDROOT
BRANCH   2   3
ATOM      3  C   UNL     1       5.621   4.796  15.589  0.00  0.00    +0.000 A 
ATOM      4  C   UNL     1       6.747   5.496  15.973  0.00  0.00    +0.000 A 
ATOM      5  N   UNL     1       7.650   5.446  14.944  0.00  0.00    +0.000 N 
ATOM      6  C   UNL     1       7.122   4.751  13.883  0.00  0.00    +0.000 A 
ATOM      7  C   UNL     1       7.687   4.456  12.638  0.00  0.00    +0.000 A 
ATOM      8  C   UNL     1       6.908   3.738  11.728  0.00  0.00    +0.000 A 
ATOM      9  C   UNL     1       5.616   3.333  12.054  0.00  0.00    +0.000 A 
ATOM     10  C   UNL     1       5.068   3.628  13.308  0.00  0.00    +0.000 A 
ATOM     11  C   UNL     1       5.835   4.347  14.250  0.00  0.00    +0.000 A 
ATOM     12  H   UNL     1       8.570   5.862  14.957  0.00  0.00    +0.000 HD
ENDBRANCH   2   3
BRANCH   1  14
ATOM     13  O   UNL     1       2.747   3.309  18.796  0.00  0.00    +0.000 OA
ATOM     14  C   UNL     1       3.242   4.407  18.549  0.00  0.00    +0.000 C 
BRANCH  14  15
ATOM     15  C   UNL     1       2.661   5.654  19.125  0.00  0.00    +0.000 A 
ATOM     16  C   UNL     1       2.666   6.809  18.330  0.00  0.00    +0.000 A 
ATOM     17  C   UNL     1       2.119   7.992  18.824  0.00  0.00    +0.000 A 
ATOM     18 CL   UNL     1       2.121   9.413  17.852  0.00  0.00    +0.000 Cl
ATOM     19  C   UNL     1       1.563   8.039  20.102  0.00  0.00    +0.000 A 
ATOM     20  C   UNL     1       1.566   6.901  20.905  0.00  0.00    +0.000 A 
ATOM     21  C   UNL     1       2.122   5.716  20.422  0.00  0.00    +0.000 A 
BRANCH  21  22
ATOM     22  O   UNL     1       2.156   4.629  21.249  0.00  0.00    +0.000 OA
ATOM     23  H   UNL     1       2.071   4.906  22.177  0.00  0.00    +0.000 HD
ENDBRANCH  21  22
ENDBRANCH  14  15
ENDBRANCH   1  14
TORSDOF 4
ENDMDL
MODEL 9
REMARK VINA RESULT:      -7.7      4.495      6.478
REMARK  Name = 
REMARK  4 active torsions:
REMARK  status: ('A' for Active; 'I' for Inactive)
REMARK    1  A    between atoms: C_2  and  C_3
REMARK    2  A    between atoms: C_2  and  C_14
REMARK    3  A    between atoms: C_4  and  C_5
REMARK    4  A    between atoms: C_20  and  O_21
REMARK                            x       y       z     vdW  Elec       q    Type
REMARK                         _______ _______ _______ _____ _____    ______ ____
ROOT
ATOM      1  C   UNL     1       3.214   6.881  17.536  0.00  0.00    +0.000 C 
ATOM      2  C   UNL     1       2.765   7.355  18.706  0.00  0.00    +0.000 C 
ENDROOT
BRANCH   2   3
ATOM      3  C   UNL     1       1.897   8.488  18.831  0.00  0.00    +0.000 A 
ATOM      4  C   UNL     1       1.567   9.361  17.814  0.00  0.00    +0.000 A 
ATOM      5  N   UNL     1       0.688  10.284  18.314  0.00  0.00    +0.000 N 
ATOM      6  C   UNL     1       0.460  10.049  19.648  0.00  0.00    +0.000 A 
ATOM      7  C   UNL     1      -0.360  10.735  20.549  0.00  0.00    +0.000 A 
ATOM      8  C   UNL     1      -0.390  10.283  21.870  0.00  0.00    +0.000 A 
ATOM      9  C   UNL     1       0.372   9.188  22.270  0.00  0.00    +0.000 A 
ATOM     10  C   UNL     1       1.181   8.506  21.353  0.00  0.00    +0.000 A 
ATOM     11  C   UNL     1       1.225   8.936  20.009  0.00  0.00    +0.000 A 
ATOM     12  H   UNL     1       0.268  11.034  17.783  0.00  0.00    +0.000 HD
ENDBRANCH   2   3
BRANCH   1  14
ATOM     13  O   UNL     1       5.251   5.859  16.864  0.00  0.00    +0.000 OA
ATOM     14  C   UNL     1       4.173   5.755  17.446  0.00  0.00    +0.000 C 
BRANCH  14  15
ATOM     15  C   UNL     1       3.810   4.498  18.162  0.00  0.00    +0.000 A 
ATOM     16  C   UNL     1       2.470   4.086  18.125  0.00  0.00    +0.000 A 
ATOM     17  C   UNL     1       2.091   2.909  18.769  0.00  0.00    +0.000 A 
ATOM     18 CL   UNL     1       0.448   2.396  18.727  0.00  0.00    +0.000 Cl
ATOM     19  C   UNL     1       3.031   2.134  19.447  0.00  0.00    +0.000 A 
ATOM     20  C   UNL     1       4.361   2.543  19.501  0.00  0.00    +0.000 A 
ATOM     21  C   UNL     1       4.747   3.725  18.869  0.00  0.00    +0.000 A 
BRANCH  21  22
ATOM     22  O   UNL     1       6.048   4.127  18.979  0.00  0.00    +0.000 OA
ATOM     23  H   UNL     1       6.513   4.009  18.133  0.00  0.00    +0.000 HD
ENDBRANCH  21  22
ENDBRANCH  14  15
ENDBRANCH   1  14
TORSDOF 4
ENDMDL
