MODEL 1
REMARK VINA RESULT:      -7.5      0.000      0.000
REMARK  Name = 
REMARK  11 active torsions:
REMARK  status: ('A' for Active; 'I' for Inactive)
REMARK    1  A    between atoms: C_2  and  O_3
REMARK    2  A    between atoms: C_2  and  C_4
REMARK    3  A    between atoms: C_4  and  O_5
REMARK    4  A    between atoms: O_5  and  C_6
REMARK    5  A    between atoms: C_6  and  C_7
REMARK    6  A    between atoms: C_10  and  C_11
REMARK    7  A    between atoms: C_11  and  O_12
REMARK    8  A    between atoms: O_12  and  C_13
REMARK    9  A    between atoms: N_15  and  C_16
REMARK   10  A    between atoms: N_15  and  C_23
REMARK   11  A    between atoms: C_19  and  O_20
REMARK                            x       y       z     vdW  Elec       q    Type
REMARK                         _______ _______ _______ _____ _____    ______ ____
ROOT
ATOM      1  C   UNL     1       0.050  10.451  22.103  0.00  0.00    +0.000 C 
ATOM      2  O   UNL     1       0.143  10.149  23.289  0.00  0.00    +0.000 OA
ATOM      3  N   UNL     1      -0.785  11.454  21.585  0.00  0.00    +0.000 N 
ENDROOT
BRANCH   3   4
ATOM      4  C   UNL     1      -1.408  12.427  22.446  0.00  0.00    +0.000 A 
ATOM      5  C   UNL     1      -0.709  13.578  22.858  0.00  0.00    +0.000 A 
ATOM      6  C   UNL     1      -1.278  14.503  23.743  0.00  0.00    +0.000 A 
ATOM      7  C   UNL     1      -2.562  14.297  24.226  0.00  0.00    +0.000 A 
ATOM      8 CL   UNL     1      -3.258  15.420  25.326  0.00  0.00    +0.000 Cl
ATOM      9  C   UNL     1      -3.286  13.179  23.823  0.00  0.00    +0.000 A 
ATOM     10  C   UNL     1      -2.714  12.256  22.938  0.00  0.00    +0.000 A 
ENDBRANCH   3   4
BRANCH   3  11
ATOM     11  C   UNL     1      -1.125  11.480  20.199  0.00  0.00    +0.000 A 
ATOM     12  C   UNL     1      -1.752  10.378  19.600  0.00  0.00    +0.000 A 
ATOM     13  C   UNL     1      -2.093  10.408  18.242  0.00  0.00    +0.000 A 
ATOM     14  C   UNL     1      -1.779  11.529  17.480  0.00  0.00    +0.000 A 
ATOM     15  C   UNL     1      -1.156  12.632  18.060  0.00  0.00    +0.000 A 
ATOM     16  C   UNL     1      -0.840  12.612  19.419  0.00  0.00    +0.000 A 
BRANCH  14  17
ATOM     17  O   UNL     1      -2.067  11.591  16.149  0.00  0.00    +0.000 OA
ATOM     18  H   UNL     1      -1.639  12.374  15.771  0.00  0.00    +0.000 HD
ENDBRANCH  14  17
ENDBRANCH   3  11
BRANCH   1  19
ATOM     19  O   UNL     1       0.832   9.854  21.148  0.00  0.00    +0.000 OA
BRANCH  19  20
ATOM     20  C   UNL     1       0.806   8.415  21.152  0.00  0.00    +0.000 C 
BRANCH  20  24
ATOM     21  C   UNL     1       2.982   6.159  18.046  0.00  0.00    +0.000 C 
ATOM     22  C   UNL     1       3.038   5.675  19.503  0.00  0.00    +0.000 C 
ATOM     23  C   UNL     1       1.931   6.288  20.361  0.00  0.00    +0.000 C 
ATOM     24  C   UNL     1       1.935   7.821  20.288  0.00  0.00    +0.000 C 
ATOM     25  C   UNL     1       1.839   8.287  18.828  0.00  0.00    +0.000 C 
ATOM     26  C   UNL     1       2.967   7.692  17.980  0.00  0.00    +0.000 C 
BRANCH  21  27
ATOM     27  C   UNL     1       4.152   5.588  17.232  0.00  0.00    +0.000 C 
BRANCH  27  28
ATOM     28  O   UNL     1       5.054   6.645  16.879  0.00  0.00    +0.000 OA
BRANCH  28  29
ATOM     29  C   UNL     1       6.356   6.416  17.443  0.00  0.00    +0.000 C 
BRANCH  29  31
ATOM     30  O   UNL     1       7.456   5.582  15.442  0.00  0.00    +0.000 OA
ATOM     31  C   UNL     1       7.109   5.398  16.598  0.00  0.00    +0.000 C 
BRANCH  31  32
ATOM     32  O   UNL     1       7.362   4.251  17.278  0.00  0.00    +0.000 OA
ATOM     33  H   UNL     1       7.463   4.486  18.227  0.00  0.00    +0.000 HD
ENDBRANCH  31  32
ENDBRANCH  29  31
ENDBRANCH  28  29
ENDBRANCH  27  28
ENDBRANCH  21  27
ENDBRANCH  20  24
ENDBRANCH  19  20
ENDBRANCH   1  19
TORSDOF 11
ENDMDL
MODEL 2
REMARK VINA RESULT:      -7.3      4.464     10.534
REMARK  Name = 
REMARK  11 active torsions:
REMARK  status: ('A' for Active; 'I' for Inactive)
REMARK    1  A    between atoms: C_2  and  O_3
REMARK    2  A    between atoms: C_2  and  C_4
REMARK    3  A    between atoms: C_4  and  O_5
REMARK    4  A    between atoms: O_5  and  C_6
REMARK    5  A    between atoms: C_6  and  C_7
REMARK    6  A    between atoms: C_10  and  C_11
REMARK    7  A    between atoms: C_11  and  O_12
REMARK    8  A    between atoms: O_12  and  C_13
REMARK    9  A    between atoms: N_15  and  C_16
REMARK   10  A    between atoms: N_15  and  C_23
REMARK   11  A    between atoms: C_19  and  O_20
REMARK                            x       y       z     vdW  Elec       q    Type
REMARK                         _______ _______ _______ _____ _____    ______ ____
ROOT
ATOM      1  C   UNL     1       2.164   7.295  18.347  0.00  0.00    +0.000 C 
ATOM      2  O   UNL     1       2.269   8.063  17.395  0.00  0.00    +0.000 OA
ATOM      3  N   UNL     1       2.805   6.050  18.458  0.00  0.00    +0.000 N 
ENDROOT
BRANCH   3   4
ATOM      4  C   UNL     1       3.884   5.683  17.577  0.00  0.00    +0.000 A 
ATOM      5  C   UNL     1       4.910   6.599  17.273  0.00  0.00    +0.000 A 
ATOM      6  C   UNL     1       5.934   6.279  16.372  0.00  0.00    +0.000 A 
ATOM      7  C   UNL     1       5.954   5.033  15.763  0.00  0.00    +0.000 A 
ATOM      8 CL   UNL     1       7.198   4.642  14.643  0.00  0.00    +0.000 Cl
ATOM      9  C   UNL     1       4.964   4.099  16.056  0.00  0.00    +0.000 A 
ATOM     10  C   UNL     1       3.942   4.422  16.958  0.00  0.00    +0.000 A 
ENDBRANCH   3   4
BRANCH   3  11
ATOM     11  C   UNL     1       2.339   5.068  19.382  0.00  0.00    +0.000 A 
ATOM     12  C   UNL     1       1.314   4.181  19.022  0.00  0.00    +0.000 A 
ATOM     13  C   UNL     1       0.864   3.212  19.926  0.00  0.00    +0.000 A 
ATOM     14  C   UNL     1       1.421   3.150  21.199  0.00  0.00    +0.000 A 
ATOM     15  C   UNL     1       2.440   4.023  21.573  0.00  0.00    +0.000 A 
ATOM     16  C   UNL     1       2.907   4.972  20.663  0.00  0.00    +0.000 A 
BRANCH  14  17
ATOM     17  O   UNL     1       0.995   2.241  22.122  0.00  0.00    +0.000 OA
ATOM     18  H   UNL     1       0.029   2.172  22.073  0.00  0.00    +0.000 HD
ENDBRANCH  14  17
ENDBRANCH   3  11
BRANCH   1  19
ATOM     19  O   UNL     1       1.433   7.627  19.458  0.00  0.00    +0.000 OA
BRANCH  19  20
ATOM     20  C   UNL     1       1.630   8.969  19.938  0.00  0.00    +0.000 C 
BRANCH  20  24
ATOM     21  C   UNL     1      -0.932  11.296  22.676  0.00  0.00    +0.000 C 
ATOM     22  C   UNL     1      -0.527   9.865  23.061  0.00  0.00    +0.000 C 
ATOM     23  C   UNL     1       0.664   9.359  22.247  0.00  0.00    +0.000 C 
ATOM     24  C   UNL     1       0.414   9.475  20.737  0.00  0.00    +0.000 C 
ATOM     25  C   UNL     1       0.049  10.919  20.364  0.00  0.00    +0.000 C 
ATOM     26  C   UNL     1      -1.163  11.409  21.162  0.00  0.00    +0.000 C 
BRANCH  21  27
ATOM     27  C   UNL     1      -2.179  11.743  23.454  0.00  0.00    +0.000 C 
BRANCH  27  28
ATOM     28  O   UNL     1      -2.685  12.961  22.892  0.00  0.00    +0.000 OA
BRANCH  28  29
ATOM     29  C   UNL     1      -3.501  13.663  23.846  0.00  0.00    +0.000 C 
BRANCH  29  31
ATOM     30  O   UNL     1      -5.525  12.357  23.518  0.00  0.00    +0.000 OA
ATOM     31  C   UNL     1      -4.664  12.779  24.274  0.00  0.00    +0.000 C 
BRANCH  31  32
ATOM     32  O   UNL     1      -4.639  12.502  25.602  0.00  0.00    +0.000 OA
ATOM     33  H   UNL     1      -4.100  11.690  25.725  0.00  0.00    +0.000 HD
ENDBRANCH  31  32
ENDBRANCH  29  31
ENDBRANCH  28  29
ENDBRANCH  27  28
ENDBRANCH  21  27
ENDBRANCH  20  24
ENDBRANCH  19  20
ENDBRANCH   1  19
TORSDOF 11
ENDMDL
MODEL 3
REMARK VINA RESULT:      -7.3      0.674      1.200
REMARK  Name = 
REMARK  11 active torsions:
REMARK  status: ('A' for Active; 'I' for Inactive)
REMARK    1  A    between atoms: C_2  and  O_3
REMARK    2  A    between atoms: C_2  and  C_4
REMARK    3  A    between atoms: C_4  and  O_5
REMARK    4  A    between atoms: O_5  and  C_6
REMARK    5  A    between atoms: C_6  and  C_7
REMARK    6  A    between atoms: C_10  and  C_11
REMARK    7  A    between atoms: C_11  and  O_12
REMARK    8  A    between atoms: O_12  and  C_13
REMARK    9  A    between atoms: N_15  and  C_16
REMARK   10  A    between atoms: N_15  and  C_23
REMARK   11  A    between atoms: C_19  and  O_20
REMARK                            x       y       z     vdW  Elec       q    Type
REMARK                         _______ _______ _______ _____ _____    ______ ____
ROOT
ATOM      1  C   UNL     1       0.132  10.410  22.249  0.00  0.00    +0.000 C 
ATOM      2  O   UNL     1       0.219  10.087  23.430  0.00  0.00    +0.000 OA
ATOM      3  N   UNL     1      -0.699  11.424  21.746  0.00  0.00    +0.000 N 
ENDROOT
BRANCH   3   4
ATOM      4  C   UNL     1      -1.324  12.382  22.621  0.00  0.00    +0.000 A 
ATOM      5  C   UNL     1      -2.632  12.175  23.102  0.00  0.00    +0.000 A 
ATOM      6  C   UNL     1      -3.276  13.125  23.905  0.00  0.00    +0.000 A 
ATOM      7  C   UNL     1      -2.620  14.299  24.248  0.00  0.00    +0.000 A 
ATOM      8 CL   UNL     1      -3.414  15.475  25.217  0.00  0.00    +0.000 Cl
ATOM      9  C   UNL     1      -1.321  14.525  23.804  0.00  0.00    +0.000 A 
ATOM     10  C   UNL     1      -0.679  13.573  23.001  0.00  0.00    +0.000 A 
ENDBRANCH   3   4
BRANCH   3  11
ATOM     11  C   UNL     1      -1.032  11.476  20.359  0.00  0.00    +0.000 A 
ATOM     12  C   UNL     1      -1.721  10.415  19.753  0.00  0.00    +0.000 A 
ATOM     13  C   UNL     1      -2.055  10.470  18.395  0.00  0.00    +0.000 A 
ATOM     14  C   UNL     1      -1.673  11.574  17.639  0.00  0.00    +0.000 A 
ATOM     15  C   UNL     1      -0.988  12.636  18.225  0.00  0.00    +0.000 A 
ATOM     16  C   UNL     1      -0.678  12.592  19.585  0.00  0.00    +0.000 A 
BRANCH  14  17
ATOM     17  O   UNL     1      -1.953  11.658  16.307  0.00  0.00    +0.000 OA
ATOM     18  H   UNL     1      -2.620  10.991  16.082  0.00  0.00    +0.000 HD
ENDBRANCH  14  17
ENDBRANCH   3  11
BRANCH   1  19
ATOM     19  O   UNL     1       0.918   9.829  21.288  0.00  0.00    +0.000 OA
BRANCH  19  20
ATOM     20  C   UNL     1       0.903   8.390  21.276  0.00  0.00    +0.000 C 
BRANCH  20  24
ATOM     21  C   UNL     1       2.884   6.145  18.035  0.00  0.00    +0.000 C 
ATOM     22  C   UNL     1       3.076   5.690  19.490  0.00  0.00    +0.000 C 
ATOM     23  C   UNL     1       2.026   6.284  20.427  0.00  0.00    +0.000 C 
ATOM     24  C   UNL     1       1.974   7.815  20.331  0.00  0.00    +0.000 C 
ATOM     25  C   UNL     1       1.743   8.251  18.877  0.00  0.00    +0.000 C 
ATOM     26  C   UNL     1       2.815   7.677  17.947  0.00  0.00    +0.000 C 
BRANCH  21  27
ATOM     27  C   UNL     1       4.000   5.596  17.134  0.00  0.00    +0.000 C 
BRANCH  27  28
ATOM     28  O   UNL     1       5.171   5.342  17.920  0.00  0.00    +0.000 OA
BRANCH  28  29
ATOM     29  C   UNL     1       6.081   4.478  17.218  0.00  0.00    +0.000 C 
BRANCH  29  31
ATOM     30  O   UNL     1       8.398   4.113  17.855  0.00  0.00    +0.000 OA
ATOM     31  C   UNL     1       7.515   4.888  17.523  0.00  0.00    +0.000 C 
BRANCH  31  32
ATOM     32  O   UNL     1       7.712   6.222  17.378  0.00  0.00    +0.000 OA
ATOM     33  H   UNL     1       7.311   6.666  18.158  0.00  0.00    +0.000 HD
ENDBRANCH  31  32
ENDBRANCH  29  31
ENDBRANCH  28  29
ENDBRANCH  27  28
ENDBRANCH  21  27
ENDBRANCH  20  24
ENDBRANCH  19  20
ENDBRANCH   1  19
TORSDOF 11
ENDMDL
MODEL 4
REMARK VINA RESULT:      -7.2      2.637      3.234
REMARK  Name = 
REMARK  11 active torsions:
REMARK  status: ('A' for Active; 'I' for Inactive)
REMARK    1  A    between atoms: C_2  and  O_3
REMARK    2  A    between atoms: C_2  and  C_4
REMARK    3  A    between atoms: C_4  and  O_5
REMARK    4  A    between atoms: O_5  and  C_6
REMARK    5  A    between atoms: C_6  and  C_7
REMARK    6  A    between atoms: C_10  and  C_11
REMARK    7  A    between atoms: C_11  and  O_12
REMARK    8  A    between atoms: O_12  and  C_13
REMARK    9  A    between atoms: N_15  and  C_16
REMARK   10  A    between atoms: N_15  and  C_23
REMARK   11  A    between atoms: C_19  and  O_20
REMARK                            x       y       z     vdW  Elec       q    Type
REMARK                         _______ _______ _______ _____ _____    ______ ____
ROOT
ATOM      1  C   UNL     1       0.383  10.743  20.575  0.00  0.00    +0.000 C 
ATOM      2  O   UNL     1       1.149  11.038  21.488  0.00  0.00    +0.000 OA
ATOM      3  N   UNL     1      -0.058  11.621  19.572  0.00  0.00    +0.000 N 
ENDROOT
BRANCH   3   4
ATOM      4  C   UNL     1       0.582  12.893  19.357  0.00  0.00    +0.000 A 
ATOM      5  C   UNL     1       1.675  13.012  18.477  0.00  0.00    +0.000 A 
ATOM      6  C   UNL     1       2.347  14.229  18.302  0.00  0.00    +0.000 A 
ATOM      7  C   UNL     1       1.931  15.353  19.002  0.00  0.00    +0.000 A 
ATOM      8 CL   UNL     1       2.764  16.844  18.805  0.00  0.00    +0.000 Cl
ATOM      9  C   UNL     1       0.843  15.273  19.865  0.00  0.00    +0.000 A 
ATOM     10  C   UNL     1       0.174  14.055  20.037  0.00  0.00    +0.000 A 
ENDBRANCH   3   4
BRANCH   3  11
ATOM     11  C   UNL     1      -1.220  11.323  18.798  0.00  0.00    +0.000 A 
ATOM     12  C   UNL     1      -1.146  10.429  17.720  0.00  0.00    +0.000 A 
ATOM     13  C   UNL     1      -2.287  10.130  16.967  0.00  0.00    +0.000 A 
ATOM     14  C   UNL     1      -3.495  10.748  17.277  0.00  0.00    +0.000 A 
ATOM     15  C   UNL     1      -3.585  11.638  18.345  0.00  0.00    +0.000 A 
ATOM     16  C   UNL     1      -2.453  11.916  19.112  0.00  0.00    +0.000 A 
BRANCH  14  17
ATOM     17  O   UNL     1      -4.626  10.508  16.555  0.00  0.00    +0.000 OA
ATOM     18  H   UNL     1      -4.948   9.617  16.760  0.00  0.00    +0.000 HD
ENDBRANCH  14  17
ENDBRANCH   3  11
BRANCH   1  19
ATOM     19  O   UNL     1      -0.076   9.461  20.412  0.00  0.00    +0.000 OA
BRANCH  19  20
ATOM     20  C   UNL     1       0.644   8.457  21.150  0.00  0.00    +0.000 C 
BRANCH  20  24
ATOM     21  C   UNL     1       2.914   6.202  18.112  0.00  0.00    +0.000 C 
ATOM     22  C   UNL     1       2.916   5.711  19.568  0.00  0.00    +0.000 C 
ATOM     23  C   UNL     1       1.783   6.327  20.389  0.00  0.00    +0.000 C 
ATOM     24  C   UNL     1       1.799   7.860  20.324  0.00  0.00    +0.000 C 
ATOM     25  C   UNL     1       1.757   8.333  18.864  0.00  0.00    +0.000 C 
ATOM     26  C   UNL     1       2.911   7.736  18.053  0.00  0.00    +0.000 C 
BRANCH  21  27
ATOM     27  C   UNL     1       4.109   5.627  17.336  0.00  0.00    +0.000 C 
BRANCH  27  28
ATOM     28  O   UNL     1       5.281   5.669  18.159  0.00  0.00    +0.000 OA
BRANCH  28  29
ATOM     29  C   UNL     1       6.340   6.390  17.506  0.00  0.00    +0.000 C 
BRANCH  29  31
ATOM     30  O   UNL     1       7.843   4.497  17.249  0.00  0.00    +0.000 OA
ATOM     31  C   UNL     1       7.225   5.418  16.739  0.00  0.00    +0.000 C 
BRANCH  31  32
ATOM     32  O   UNL     1       7.250   5.684  15.408  0.00  0.00    +0.000 OA
ATOM     33  H   UNL     1       8.150   5.463  15.080  0.00  0.00    +0.000 HD
ENDBRANCH  31  32
ENDBRANCH  29  31
ENDBRANCH  28  29
ENDBRANCH  27  28
ENDBRANCH  21  27
ENDBRANCH  20  24
ENDBRANCH  19  20
ENDBRANCH   1  19
TORSDOF 11
ENDMDL
MODEL 5
REMARK VINA RESULT:      -7.1      2.752      3.414
REMARK  Name = 
REMARK  11 active torsions:
REMARK  status: ('A' for Active; 'I' for Inactive)
REMARK    1  A    between atoms: C_2  and  O_3
REMARK    2  A    between atoms: C_2  and  C_4
REMARK    3  A    between atoms: C_4  and  O_5
REMARK    4  A    between atoms: O_5  and  C_6
REMARK    5  A    between atoms: C_6  and  C_7
REMARK    6  A    between atoms: C_10  and  C_11
REMARK    7  A    between atoms: C_11  and  O_12
REMARK    8  A    between atoms: O_12  and  C_13
REMARK    9  A    between atoms: N_15  and  C_16
REMARK   10  A    between atoms: N_15  and  C_23
REMARK   11  A    between atoms: C_19  and  O_20
REMARK                            x       y       z     vdW  Elec       q    Type
REMARK                         _______ _______ _______ _____ _____    ______ ____
ROOT
ATOM      1  C   UNL     1       0.619  10.791  20.653  0.00  0.00    +0.000 C 
ATOM      2  O   UNL     1       1.461  11.061  21.504  0.00  0.00    +0.000 OA
ATOM      3  N   UNL     1       0.210  11.647  19.616  0.00  0.00    +0.000 N 
ENDROOT
BRANCH   3   4
ATOM      4  C   UNL     1       0.961  12.831  19.285  0.00  0.00    +0.000 A 
ATOM      5  C   UNL     1       0.635  14.076  19.858  0.00  0.00    +0.000 A 
ATOM      6  C   UNL     1       1.316  15.247  19.502  0.00  0.00    +0.000 A 
ATOM      7  C   UNL     1       2.341  15.193  18.568  0.00  0.00    +0.000 A 
ATOM      8 CL   UNL     1       3.167  16.630  18.113  0.00  0.00    +0.000 Cl
ATOM      9  C   UNL     1       2.699  13.975  17.996  0.00  0.00    +0.000 A 
ATOM     10  C   UNL     1       2.017  12.806  18.356  0.00  0.00    +0.000 A 
ENDBRANCH   3   4
BRANCH   3  11
ATOM     11  C   UNL     1      -1.018  11.423  18.925  0.00  0.00    +0.000 A 
ATOM     12  C   UNL     1      -1.056  10.598  17.791  0.00  0.00    +0.000 A 
ATOM     13  C   UNL     1      -2.262  10.371  17.119  0.00  0.00    +0.000 A 
ATOM     14  C   UNL     1      -3.423  10.995  17.564  0.00  0.00    +0.000 A 
ATOM     15  C   UNL     1      -3.403  11.818  18.688  0.00  0.00    +0.000 A 
ATOM     16  C   UNL     1      -2.205  12.023  19.374  0.00  0.00    +0.000 A 
BRANCH  14  17
ATOM     17  O   UNL     1      -4.615  10.826  16.924  0.00  0.00    +0.000 OA
ATOM     18  H   UNL     1      -4.652   9.929  16.558  0.00  0.00    +0.000 HD
ENDBRANCH  14  17
ENDBRANCH   3  11
BRANCH   1  19
ATOM     19  O   UNL     1       0.025   9.556  20.599  0.00  0.00    +0.000 OA
BRANCH  19  20
ATOM     20  C   UNL     1       0.707   8.521  21.329  0.00  0.00    +0.000 C 
BRANCH  20  24
ATOM     21  C   UNL     1       2.606   5.978  18.263  0.00  0.00    +0.000 C 
ATOM     22  C   UNL     1       2.674   5.553  19.738  0.00  0.00    +0.000 C 
ATOM     23  C   UNL     1       1.645   6.283  20.601  0.00  0.00    +0.000 C 
ATOM     24  C   UNL     1       1.760   7.807  20.460  0.00  0.00    +0.000 C 
ATOM     25  C   UNL     1       1.651   8.218  18.984  0.00  0.00    +0.000 C 
ATOM     26  C   UNL     1       2.703   7.505  18.130  0.00  0.00    +0.000 C 
BRANCH  21  27
ATOM     27  C   UNL     1       3.703   5.287  17.440  0.00  0.00    +0.000 C 
BRANCH  27  28
ATOM     28  O   UNL     1       4.710   6.242  17.083  0.00  0.00    +0.000 OA
BRANCH  28  29
ATOM     29  C   UNL     1       5.973   5.902  17.680  0.00  0.00    +0.000 C 
BRANCH  29  31
ATOM     30  O   UNL     1       7.662   5.874  15.933  0.00  0.00    +0.000 OA
ATOM     31  C   UNL     1       6.877   5.260  16.638  0.00  0.00    +0.000 C 
BRANCH  31  32
ATOM     32  O   UNL     1       6.719   3.913  16.578  0.00  0.00    +0.000 OA
ATOM     33  H   UNL     1       6.758   3.653  15.630  0.00  0.00    +0.000 HD
ENDBRANCH  31  32
ENDBRANCH  29  31
ENDBRANCH  28  29
ENDBRANCH  27  28
ENDBRANCH  21  27
ENDBRANCH  20  24
ENDBRANCH  19  20
ENDBRANCH   1  19
TORSDOF 11
ENDMDL
MODEL 6
REMARK VINA RESULT:      -7.0      4.476     10.571
REMARK  Name = 
REMARK  11 active torsions:
REMARK  status: ('A' for Active; 'I' for Inactive)
REMARK    1  A    between atoms: C_2  and  O_3
REMARK    2  A    between atoms: C_2  and  C_4
REMARK    3  A    between atoms: C_4  and  O_5
REMARK    4  A    between atoms: O_5  and  C_6
REMARK    5  A    between atoms: C_6  and  C_7
REMARK    6  A    between atoms: C_10  and  C_11
REMARK    7  A    between atoms: C_11  and  O_12
REMARK    8  A    between atoms: O_12  and  C_13
REMARK    9  A    between atoms: N_15  and  C_16
REMARK   10  A    between atoms: N_15  and  C_23
REMARK   11  A    between atoms: C_19  and  O_20
REMARK                            x       y       z     vdW  Elec       q    Type
REMARK                         _______ _______ _______ _____ _____    ______ ____
ROOT
ATOM      1  C   UNL     1       2.269   7.499  18.465  0.00  0.00    +0.000 C 
ATOM      2  O   UNL     1       2.362   8.305  17.544  0.00  0.00    +0.000 OA
ATOM      3  N   UNL     1       2.818   6.206  18.469  0.00  0.00    +0.000 N 
ENDROOT
BRANCH   3   4
ATOM      4  C   UNL     1       3.797   5.807  17.491  0.00  0.00    +0.000 A 
ATOM      5  C   UNL     1       3.926   4.457  17.109  0.00  0.00    +0.000 A 
ATOM      6  C   UNL     1       4.913   4.043  16.204  0.00  0.00    +0.000 A 
ATOM      7  C   UNL     1       5.786   4.975  15.660  0.00  0.00    +0.000 A 
ATOM      8 CL   UNL     1       7.010   4.468  14.565  0.00  0.00    +0.000 Cl
ATOM      9  C   UNL     1       5.673   6.319  16.004  0.00  0.00    +0.000 A 
ATOM     10  C   UNL     1       4.685   6.729  16.908  0.00  0.00    +0.000 A 
ENDBRANCH   3   4
BRANCH   3  11
ATOM     11  C   UNL     1       2.348   5.215  19.382  0.00  0.00    +0.000 A 
ATOM     12  C   UNL     1       1.300   4.356  19.020  0.00  0.00    +0.000 A 
ATOM     13  C   UNL     1       0.845   3.377  19.912  0.00  0.00    +0.000 A 
ATOM     14  C   UNL     1       1.421   3.280  21.175  0.00  0.00    +0.000 A 
ATOM     15  C   UNL     1       2.462   4.126  21.550  0.00  0.00    +0.000 A 
ATOM     16  C   UNL     1       2.933   5.084  20.651  0.00  0.00    +0.000 A 
BRANCH  14  17
ATOM     17  O   UNL     1       0.992   2.361  22.086  0.00  0.00    +0.000 OA
ATOM     18  H   UNL     1       0.945   2.781  22.959  0.00  0.00    +0.000 HD
ENDBRANCH  14  17
ENDBRANCH   3  11
BRANCH   1  19
ATOM     19  O   UNL     1       1.650   7.827  19.644  0.00  0.00    +0.000 OA
BRANCH  19  20
ATOM     20  C   UNL     1       1.690   9.225  19.984  0.00  0.00    +0.000 C 
BRANCH  20  24
ATOM     21  C   UNL     1      -1.080  11.375  22.662  0.00  0.00    +0.000 C 
ATOM     22  C   UNL     1      -0.654   9.942  23.017  0.00  0.00    +0.000 C 
ATOM     23  C   UNL     1       0.593   9.501  22.250  0.00  0.00    +0.000 C 
ATOM     24  C   UNL     1       0.419   9.666  20.734  0.00  0.00    +0.000 C 
ATOM     25  C   UNL     1       0.031  11.112  20.394  0.00  0.00    +0.000 C 
ATOM     26  C   UNL     1      -1.235  11.539  21.143  0.00  0.00    +0.000 C 
BRANCH  21  27
ATOM     27  C   UNL     1      -2.379  11.758  23.388  0.00  0.00    +0.000 C 
BRANCH  27  28
ATOM     28  O   UNL     1      -2.881  12.992  22.858  0.00  0.00    +0.000 OA
BRANCH  28  29
ATOM     29  C   UNL     1      -2.318  14.115  23.556  0.00  0.00    +0.000 C 
BRANCH  29  31
ATOM     30  O   UNL     1      -2.802  14.809  25.834  0.00  0.00    +0.000 OA
ATOM     31  C   UNL     1      -3.212  14.490  24.729  0.00  0.00    +0.000 C 
BRANCH  31  32
ATOM     32  O   UNL     1      -4.530  14.435  24.411  0.00  0.00    +0.000 OA
ATOM     33  H   UNL     1      -4.918  15.317  24.607  0.00  0.00    +0.000 HD
ENDBRANCH  31  32
ENDBRANCH  29  31
ENDBRANCH  28  29
ENDBRANCH  27  28
ENDBRANCH  21  27
ENDBRANCH  20  24
ENDBRANCH  19  20
ENDBRANCH   1  19
TORSDOF 11
ENDMDL
MODEL 7
REMARK VINA RESULT:      -7.0      3.300      4.209
REMARK  Name = 
REMARK  11 active torsions:
REMARK  status: ('A' for Active; 'I' for Inactive)
REMARK    1  A    between atoms: C_2  and  O_3
REMARK    2  A    between atoms: C_2  and  C_4
REMARK    3  A    between atoms: C_4  and  O_5
REMARK    4  A    between atoms: O_5  and  C_6
REMARK    5  A    between atoms: C_6  and  C_7
REMARK    6  A    between atoms: C_10  and  C_11
REMARK    7  A    between atoms: C_11  and  O_12
REMARK    8  A    between atoms: O_12  and  C_13
REMARK    9  A    between atoms: N_15  and  C_16
REMARK   10  A    between atoms: N_15  and  C_23
REMARK   11  A    between atoms: C_19  and  O_20
REMARK                            x       y       z     vdW  Elec       q    Type
REMARK                         _______ _______ _______ _____ _____    ______ ____
ROOT
ATOM      1  C   UNL     1       0.313  10.923  20.760  0.00  0.00    +0.000 C 
ATOM      2  O   UNL     1       1.079  11.324  21.631  0.00  0.00    +0.000 OA
ATOM      3  N   UNL     1       0.047  11.583  19.549  0.00  0.00    +0.000 N 
ENDROOT
BRANCH   3   4
ATOM      4  C   UNL     1       0.877  12.666  19.089  0.00  0.00    +0.000 A 
ATOM      5  C   UNL     1       2.115  12.413  18.466  0.00  0.00    +0.000 A 
ATOM      6  C   UNL     1       2.961  13.455  18.067  0.00  0.00    +0.000 A 
ATOM      7  C   UNL     1       2.582  14.773  18.279  0.00  0.00    +0.000 A 
ATOM      8 CL   UNL     1       3.626  16.055  17.809  0.00  0.00    +0.000 Cl
ATOM      9  C   UNL     1       1.357  15.057  18.876  0.00  0.00    +0.000 A 
ATOM     10  C   UNL     1       0.512  14.013  19.273  0.00  0.00    +0.000 A 
ENDBRANCH   3   4
BRANCH   3  11
ATOM     11  C   UNL     1      -1.116  11.267  18.784  0.00  0.00    +0.000 A 
ATOM     12  C   UNL     1      -1.060  10.296  17.773  0.00  0.00    +0.000 A 
ATOM     13  C   UNL     1      -2.203   9.979  17.030  0.00  0.00    +0.000 A 
ATOM     14  C   UNL     1      -3.393  10.656  17.279  0.00  0.00    +0.000 A 
ATOM     15  C   UNL     1      -3.465  11.623  18.279  0.00  0.00    +0.000 A 
ATOM     16  C   UNL     1      -2.333  11.920  19.038  0.00  0.00    +0.000 A 
BRANCH  14  17
ATOM     17  O   UNL     1      -4.524  10.401  16.562  0.00  0.00    +0.000 OA
ATOM     18  H   UNL     1      -4.768   9.470  16.679  0.00  0.00    +0.000 HD
ENDBRANCH  14  17
ENDBRANCH   3  11
BRANCH   1  19
ATOM     19  O   UNL     1      -0.326   9.715  20.868  0.00  0.00    +0.000 OA
BRANCH  19  20
ATOM     20  C   UNL     1       0.482   8.643  21.387  0.00  0.00    +0.000 C 
BRANCH  20  24
ATOM     21  C   UNL     1       3.166   6.373  18.720  0.00  0.00    +0.000 C 
ATOM     22  C   UNL     1       2.445   7.617  18.178  0.00  0.00    +0.000 C 
ATOM     23  C   UNL     1       1.905   8.508  19.296  0.00  0.00    +0.000 C 
ATOM     24  C   UNL     1       1.006   7.728  20.265  0.00  0.00    +0.000 C 
ATOM     25  C   UNL     1       1.755   6.510  20.826  0.00  0.00    +0.000 C 
ATOM     26  C   UNL     1       2.268   5.607  19.702  0.00  0.00    +0.000 C 
BRANCH  21  27
ATOM     27  C   UNL     1       3.625   5.460  17.573  0.00  0.00    +0.000 C 
BRANCH  27  28
ATOM     28  O   UNL     1       2.869   4.243  17.594  0.00  0.00    +0.000 OA
BRANCH  28  29
ATOM     29  C   UNL     1       3.722   3.107  17.372  0.00  0.00    +0.000 C 
BRANCH  29  31
ATOM     30  O   UNL     1       3.859   1.024  18.616  0.00  0.00    +0.000 OA
ATOM     31  C   UNL     1       3.171   1.899  18.116  0.00  0.00    +0.000 C 
BRANCH  31  32
ATOM     32  O   UNL     1       1.815   1.901  18.169  0.00  0.00    +0.000 OA
ATOM     33  H   UNL     1       1.485   2.192  17.289  0.00  0.00    +0.000 HD
ENDBRANCH  31  32
ENDBRANCH  29  31
ENDBRANCH  28  29
ENDBRANCH  27  28
ENDBRANCH  21  27
ENDBRANCH  20  24
ENDBRANCH  19  20
ENDBRANCH   1  19
TORSDOF 11
ENDMDL
MODEL 8
REMARK VINA RESULT:      -7.0      4.514     10.612
REMARK  Name = 
REMARK  11 active torsions:
REMARK  status: ('A' for Active; 'I' for Inactive)
REMARK    1  A    between atoms: C_2  and  O_3
REMARK    2  A    between atoms: C_2  and  C_4
REMARK    3  A    between atoms: C_4  and  O_5
REMARK    4  A    between atoms: O_5  and  C_6
REMARK    5  A    between atoms: C_6  and  C_7
REMARK    6  A    between atoms: C_10  and  C_11
REMARK    7  A    between atoms: C_11  and  O_12
REMARK    8  A    between atoms: O_12  and  C_13
REMARK    9  A    between atoms: N_15  and  C_16
REMARK   10  A    between atoms: N_15  and  C_23
REMARK   11  A    between atoms: C_19  and  O_20
REMARK                            x       y       z     vdW  Elec       q    Type
REMARK                         _______ _______ _______ _____ _____    ______ ____
ROOT
ATOM      1  C   UNL     1       2.121   7.426  18.571  0.00  0.00    +0.000 C 
ATOM      2  O   UNL     1       2.165   8.233  17.647  0.00  0.00    +0.000 OA
ATOM      3  N   UNL     1       2.748   6.170  18.581  0.00  0.00    +0.000 N 
ENDROOT
BRANCH   3   4
ATOM      4  C   UNL     1       3.749   5.826  17.604  0.00  0.00    +0.000 A 
ATOM      5  C   UNL     1       3.827   4.522  17.077  0.00  0.00    +0.000 A 
ATOM      6  C   UNL     1       4.831   4.156  16.172  0.00  0.00    +0.000 A 
ATOM      7  C   UNL     1       5.774   5.091  15.771  0.00  0.00    +0.000 A 
ATOM      8 CL   UNL     1       7.019   4.641  14.675  0.00  0.00    +0.000 Cl
ATOM      9  C   UNL     1       5.714   6.393  16.259  0.00  0.00    +0.000 A 
ATOM     10  C   UNL     1       4.708   6.756  17.164  0.00  0.00    +0.000 A 
ENDBRANCH   3   4
BRANCH   3  11
ATOM     11  C   UNL     1       2.340   5.156  19.498  0.00  0.00    +0.000 A 
ATOM     12  C   UNL     1       2.975   5.024  20.742  0.00  0.00    +0.000 A 
ATOM     13  C   UNL     1       2.568   4.035  21.645  0.00  0.00    +0.000 A 
ATOM     14  C   UNL     1       1.545   3.161  21.290  0.00  0.00    +0.000 A 
ATOM     15  C   UNL     1       0.904   3.278  20.059  0.00  0.00    +0.000 A 
ATOM     16  C   UNL     1       1.292   4.280  19.170  0.00  0.00    +0.000 A 
BRANCH  14  17
ATOM     17  O   UNL     1       1.134   2.166  22.127  0.00  0.00    +0.000 OA
ATOM     18  H   UNL     1       0.196   1.983  21.962  0.00  0.00    +0.000 HD
ENDBRANCH  14  17
ENDBRANCH   3  11
BRANCH   1  19
ATOM     19  O   UNL     1       1.484   7.721  19.750  0.00  0.00    +0.000 OA
BRANCH  19  20
ATOM     20  C   UNL     1       1.666   9.069  20.219  0.00  0.00    +0.000 C 
BRANCH  20  24
ATOM     21  C   UNL     1      -1.098  11.501  22.651  0.00  0.00    +0.000 C 
ATOM     22  C   UNL     1      -0.789  10.059  23.082  0.00  0.00    +0.000 C 
ATOM     23  C   UNL     1       0.466   9.507  22.406  0.00  0.00    +0.000 C 
ATOM     24  C   UNL     1       0.388   9.622  20.878  0.00  0.00    +0.000 C 
ATOM     25  C   UNL     1       0.117  11.075  20.463  0.00  0.00    +0.000 C 
ATOM     26  C   UNL     1      -1.157  11.612  21.121  0.00  0.00    +0.000 C 
BRANCH  21  27
ATOM     27  C   UNL     1      -2.406  11.996  23.286  0.00  0.00    +0.000 C 
BRANCH  27  28
ATOM     28  O   UNL     1      -3.101  12.842  22.360  0.00  0.00    +0.000 OA
BRANCH  28  29
ATOM     29  C   UNL     1      -4.521  12.777  22.574  0.00  0.00    +0.000 C 
BRANCH  29  31
ATOM     30  O   UNL     1      -4.513  14.667  24.102  0.00  0.00    +0.000 OA
ATOM     31  C   UNL     1      -4.883  13.532  23.845  0.00  0.00    +0.000 C 
BRANCH  31  32
ATOM     32  O   UNL     1      -5.675  12.803  24.671  0.00  0.00    +0.000 OA
ATOM     33  H   UNL     1      -5.420  13.022  25.595  0.00  0.00    +0.000 HD
ENDBRANCH  31  32
ENDBRANCH  29  31
ENDBRANCH  28  29
ENDBRANCH  27  28
ENDBRANCH  21  27
ENDBRANCH  20  24
ENDBRANCH  19  20
ENDBRANCH   1  19
TORSDOF 11
ENDMDL
MODEL 9
REMARK VINA RESULT:      -7.0      4.537     10.363
REMARK  Name = 
REMARK  11 active torsions:
REMARK  status: ('A' for Active; 'I' for Inactive)
REMARK    1  A    between atoms: C_2  and  O_3
REMARK    2  A    between atoms: C_2  and  C_4
REMARK    3  A    between atoms: C_4  and  O_5
REMARK    4  A    between atoms: O_5  and  C_6
REMARK    5  A    between atoms: C_6  and  C_7
REMARK    6  A    between atoms: C_10  and  C_11
REMARK    7  A    between atoms: C_11  and  O_12
REMARK    8  A    between atoms: O_12  and  C_13
REMARK    9  A    between atoms: N_15  and  C_16
REMARK   10  A    between atoms: N_15  and  C_23
REMARK   11  A    between atoms: C_19  and  O_20
REMARK                            x       y       z     vdW  Elec       q    Type
REMARK                         _______ _______ _______ _____ _____    ______ ____
ROOT
ATOM      1  C   UNL     1       2.366   7.686  18.194  0.00  0.00    +0.000 C 
ATOM      2  O   UNL     1       2.525   8.478  17.269  0.00  0.00    +0.000 OA
ATOM      3  N   UNL     1       2.945   6.409  18.276  0.00  0.00    +0.000 N 
ENDROOT
BRANCH   3   4
ATOM      4  C   UNL     1       4.022   6.019  17.403  0.00  0.00    +0.000 A 
ATOM      5  C   UNL     1       4.021   4.759  16.773  0.00  0.00    +0.000 A 
ATOM      6  C   UNL     1       5.089   4.341  15.969  0.00  0.00    +0.000 A 
ATOM      7  C   UNL     1       6.177   5.179  15.776  0.00  0.00    +0.000 A 
ATOM      8 CL   UNL     1       7.499   4.663  14.806  0.00  0.00    +0.000 Cl
ATOM      9  C   UNL     1       6.201   6.438  16.370  0.00  0.00    +0.000 A 
ATOM     10  C   UNL     1       5.131   6.853  17.172  0.00  0.00    +0.000 A 
ENDBRANCH   3   4
BRANCH   3  11
ATOM     11  C   UNL     1       2.416   5.422  19.161  0.00  0.00    +0.000 A 
ATOM     12  C   UNL     1       1.440   4.519  18.716  0.00  0.00    +0.000 A 
ATOM     13  C   UNL     1       0.928   3.544  19.581  0.00  0.00    +0.000 A 
ATOM     14  C   UNL     1       1.373   3.495  20.898  0.00  0.00    +0.000 A 
ATOM     15  C   UNL     1       2.342   4.385  21.356  0.00  0.00    +0.000 A 
ATOM     16  C   UNL     1       2.871   5.339  20.486  0.00  0.00    +0.000 A 
BRANCH  14  17
ATOM     17  O   UNL     1       0.883   2.581  21.784  0.00  0.00    +0.000 OA
ATOM     18  H   UNL     1       0.900   2.965  22.674  0.00  0.00    +0.000 HD
ENDBRANCH  14  17
ENDBRANCH   3  11
BRANCH   1  19
ATOM     19  O   UNL     1       1.630   8.018  19.302  0.00  0.00    +0.000 OA
BRANCH  19  20
ATOM     20  C   UNL     1       1.454   9.431  19.515  0.00  0.00    +0.000 C 
BRANCH  20  24
ATOM     21  C   UNL     1      -2.287  11.648  18.770  0.00  0.00    +0.000 C 
ATOM     22  C   UNL     1      -1.730  11.576  20.199  0.00  0.00    +0.000 C 
ATOM     23  C   UNL     1      -0.261  11.152  20.229  0.00  0.00    +0.000 C 
ATOM     24  C   UNL     1      -0.033   9.832  19.481  0.00  0.00    +0.000 C 
ATOM     25  C   UNL     1      -0.561   9.935  18.042  0.00  0.00    +0.000 C 
ATOM     26  C   UNL     1      -2.040  10.331  18.020  0.00  0.00    +0.000 C 
BRANCH  21  27
ATOM     27  C   UNL     1      -3.783  11.999  18.780  0.00  0.00    +0.000 C 
BRANCH  27  28
ATOM     28  O   UNL     1      -4.459  11.253  17.759  0.00  0.00    +0.000 OA
BRANCH  28  29
ATOM     29  C   UNL     1      -5.735  11.841  17.457  0.00  0.00    +0.000 C 
BRANCH  29  31
ATOM     30  O   UNL     1      -6.941  10.119  18.678  0.00  0.00    +0.000 OA
ATOM     31  C   UNL     1      -6.787  11.302  18.416  0.00  0.00    +0.000 C 
BRANCH  31  32
ATOM     32  O   UNL     1      -7.543  12.289  18.960  0.00  0.00    +0.000 OA
ATOM     33  H   UNL     1      -6.946  13.044  19.159  0.00  0.00    +0.000 HD
ENDBRANCH  31  32
ENDBRANCH  29  31
ENDBRANCH  28  29
ENDBRANCH  27  28
ENDBRANCH  21  27
ENDBRANCH  20  24
ENDBRANCH  19  20
ENDBRANCH   1  19
TORSDOF 11
ENDMDL
