MODEL 1
REMARK VINA RESULT:      -7.8      0.000      0.000
REMARK  Name = 
REMARK  4 active torsions:
REMARK  status: ('A' for Active; 'I' for Inactive)
REMARK    1  A    between atoms: C_1  and  C_2
REMARK    2  A    between atoms: C_9  and  C_10
REMARK    3  A    between atoms: C_10  and  C_11
REMARK    4  A    between atoms: C_17  and  N_18
REMARK                            x       y       z     vdW  Elec       q    Type
REMARK                         _______ _______ _______ _____ _____    ______ ____
ROOT
ATOM      1  C   UNL     1       4.069   2.987  17.825  0.00  0.00    +0.000 C 
ENDROOT
BRANCH   1  10
ATOM      2  C   UNL     1       8.275   5.403  20.027  0.00  0.00    +0.000 C 
ATOM      3  C   UNL     1       7.736   6.243  18.902  0.00  0.00    +0.000 A 
ATOM      4  C   UNL     1       8.351   7.465  18.615  0.00  0.00    +0.000 A 
ATOM      5  C   UNL     1       7.847   8.232  17.583  0.00  0.00    +0.000 A 
ATOM      6  N   UNL     1       6.790   7.875  16.827  0.00  0.00    +0.000 NA
ATOM      7  C   UNL     1       6.185   6.708  17.100  0.00  0.00    +0.000 A 
ATOM      8  C   UNL     1       5.085   6.344  16.339  0.00  0.00    +0.000 A 
ATOM      9  C   UNL     1       4.388   5.153  16.563  0.00  0.00    +0.000 A 
ATOM     10  C   UNL     1       4.799   4.282  17.571  0.00  0.00    +0.000 A 
ATOM     11  C   UNL     1       5.912   4.634  18.345  0.00  0.00    +0.000 A 
ATOM     12  C   UNL     1       6.617   5.843  18.131  0.00  0.00    +0.000 A 
ENDBRANCH   1  10
BRANCH   1  13
ATOM     13  C   UNL     1       3.313   2.922  19.117  0.00  0.00    +0.000 A 
ATOM     14  C   UNL     1       2.029   3.421  19.214  0.00  0.00    +0.000 A 
ATOM     15  N   UNL     1       1.257   3.312  20.311  0.00  0.00    +0.000 NA
ATOM     16  C   UNL     1       1.804   2.690  21.351  0.00  0.00    +0.000 A 
ATOM     17  N   UNL     1       1.012   2.494  22.465  0.00  0.00    +0.000 N 
ATOM     18  N   UNL     1       3.063   2.248  21.400  0.00  0.00    +0.000 NA
ATOM     19  C   UNL     1       3.798   2.364  20.286  0.00  0.00    +0.000 A 
ATOM     20  H   UNL     1       0.273   3.182  22.486  0.00  0.00    +0.000 HD
ATOM     21  H   UNL     1       1.586   2.395  23.289  0.00  0.00    +0.000 HD
BRANCH  19  22
ATOM     22  N   UNL     1       5.104   1.884  20.396  0.00  0.00    +0.000 N 
ATOM     23  H   UNL     1       5.112   1.260  21.201  0.00  0.00    +0.000 HD
ATOM     24  H   UNL     1       5.401   1.400  19.560  0.00  0.00    +0.000 HD
ENDBRANCH  19  22
ENDBRANCH   1  13
TORSDOF 3
ENDMDL
MODEL 2
REMARK VINA RESULT:      -7.5      5.085      5.969
REMARK  Name = 
REMARK  4 active torsions:
REMARK  status: ('A' for Active; 'I' for Inactive)
REMARK    1  A    between atoms: C_1  and  C_2
REMARK    2  A    between atoms: C_9  and  C_10
REMARK    3  A    between atoms: C_10  and  C_11
REMARK    4  A    between atoms: C_17  and  N_18
REMARK                            x       y       z     vdW  Elec       q    Type
REMARK                         _______ _______ _______ _____ _____    ______ ____
ROOT
ATOM      1  C   UNL     1       3.091   6.582  19.126  0.00  0.00    +0.000 C 
ENDROOT
BRANCH   1  10
ATOM      2  C   UNL     1       0.269   9.255  22.768  0.00  0.00    +0.000 C 
ATOM      3  C   UNL     1       0.120   9.914  21.424  0.00  0.00    +0.000 A 
ATOM      4  C   UNL     1      -0.693  11.045  21.311  0.00  0.00    +0.000 A 
ATOM      5  C   UNL     1      -0.828  11.640  20.072  0.00  0.00    +0.000 A 
ATOM      6  N   UNL     1      -0.220  11.198  18.954  0.00  0.00    +0.000 NA
ATOM      7  C   UNL     1       0.556  10.106  19.049  0.00  0.00    +0.000 A 
ATOM      8  C   UNL     1       1.169   9.633  17.899  0.00  0.00    +0.000 A 
ATOM      9  C   UNL     1       1.983   8.496  17.904  0.00  0.00    +0.000 A 
ATOM     10  C   UNL     1       2.209   7.805  19.094  0.00  0.00    +0.000 A 
ATOM     11  C   UNL     1       1.600   8.273  20.265  0.00  0.00    +0.000 A 
ATOM     12  C   UNL     1       0.767   9.417  20.266  0.00  0.00    +0.000 A 
ENDBRANCH   1  10
BRANCH   1  13
ATOM     13  C   UNL     1       2.369   5.271  19.039  0.00  0.00    +0.000 A 
ATOM     14  C   UNL     1       1.947   4.772  17.822  0.00  0.00    +0.000 A 
ATOM     15  N   UNL     1       1.381   3.563  17.657  0.00  0.00    +0.000 NA
ATOM     16  C   UNL     1       1.222   2.837  18.759  0.00  0.00    +0.000 A 
ATOM     17  N   UNL     1       0.714   1.561  18.614  0.00  0.00    +0.000 N 
ATOM     18  N   UNL     1       1.511   3.252  19.995  0.00  0.00    +0.000 NA
ATOM     19  C   UNL     1       2.084   4.457  20.120  0.00  0.00    +0.000 A 
ATOM     20  H   UNL     1       0.177   1.501  17.762  0.00  0.00    +0.000 HD
ATOM     21  H   UNL     1       0.275   1.260  19.471  0.00  0.00    +0.000 HD
BRANCH  19  22
ATOM     22  N   UNL     1       2.363   4.837  21.434  0.00  0.00    +0.000 N 
ATOM     23  H   UNL     1       3.271   4.436  21.660  0.00  0.00    +0.000 HD
ATOM     24  H   UNL     1       2.373   5.841  21.543  0.00  0.00    +0.000 HD
ENDBRANCH  19  22
ENDBRANCH   1  13
TORSDOF 3
ENDMDL
MODEL 3
REMARK VINA RESULT:      -7.5      3.096      4.205
REMARK  Name = 
REMARK  4 active torsions:
REMARK  status: ('A' for Active; 'I' for Inactive)
REMARK    1  A    between atoms: C_1  and  C_2
REMARK    2  A    between atoms: C_9  and  C_10
REMARK    3  A    between atoms: C_10  and  C_11
REMARK    4  A    between atoms: C_17  and  N_18
REMARK                            x       y       z     vdW  Elec       q    Type
REMARK                         _______ _______ _______ _____ _____    ______ ____
ROOT
ATOM      1  C   UNL     1       3.976   3.439  17.271  0.00  0.00    +0.000 C 
ENDROOT
BRANCH   1  10
ATOM      2  C   UNL     1       5.110   3.086  12.079  0.00  0.00    +0.000 C 
ATOM      3  C   UNL     1       6.136   3.945  12.767  0.00  0.00    +0.000 A 
ATOM      4  C   UNL     1       7.184   4.482  12.015  0.00  0.00    +0.000 A 
ATOM      5  C   UNL     1       8.123   5.266  12.656  0.00  0.00    +0.000 A 
ATOM      6  N   UNL     1       8.094   5.549  13.972  0.00  0.00    +0.000 NA
ATOM      7  C   UNL     1       7.098   5.030  14.707  0.00  0.00    +0.000 A 
ATOM      8  C   UNL     1       7.072   5.301  16.067  0.00  0.00    +0.000 A 
ATOM      9  C   UNL     1       6.079   4.792  16.908  0.00  0.00    +0.000 A 
ATOM     10  C   UNL     1       5.064   3.992  16.385  0.00  0.00    +0.000 A 
ATOM     11  C   UNL     1       5.073   3.713  15.012  0.00  0.00    +0.000 A 
ATOM     12  C   UNL     1       6.081   4.216  14.156  0.00  0.00    +0.000 A 
ENDBRANCH   1  10
BRANCH   1  13
ATOM     13  C   UNL     1       3.445   4.391  18.300  0.00  0.00    +0.000 A 
ATOM     14  C   UNL     1       3.073   5.676  17.955  0.00  0.00    +0.000 A 
ATOM     15  N   UNL     1       2.502   6.550  18.802  0.00  0.00    +0.000 NA
ATOM     16  C   UNL     1       2.309   6.119  20.045  0.00  0.00    +0.000 A 
ATOM     17  N   UNL     1       1.656   6.965  20.919  0.00  0.00    +0.000 N 
ATOM     18  N   UNL     1       2.707   4.933  20.512  0.00  0.00    +0.000 NA
ATOM     19  C   UNL     1       3.263   4.084  19.636  0.00  0.00    +0.000 A 
ATOM     20  H   UNL     1       1.764   7.921  20.616  0.00  0.00    +0.000 HD
ATOM     21  H   UNL     1       1.902   6.742  21.872  0.00  0.00    +0.000 HD
BRANCH  19  22
ATOM     22  N   UNL     1       3.659   2.861  20.181  0.00  0.00    +0.000 N 
ATOM     23  H   UNL     1       4.674   2.832  20.110  0.00  0.00    +0.000 HD
ATOM     24  H   UNL     1       3.359   2.760  21.141  0.00  0.00    +0.000 HD
ENDBRANCH  19  22
ENDBRANCH   1  13
TORSDOF 3
ENDMDL
MODEL 4
REMARK VINA RESULT:      -7.5      1.683      6.263
REMARK  Name = 
REMARK  4 active torsions:
REMARK  status: ('A' for Active; 'I' for Inactive)
REMARK    1  A    between atoms: C_1  and  C_2
REMARK    2  A    between atoms: C_9  and  C_10
REMARK    3  A    between atoms: C_10  and  C_11
REMARK    4  A    between atoms: C_17  and  N_18
REMARK                            x       y       z     vdW  Elec       q    Type
REMARK                         _______ _______ _______ _____ _____    ______ ____
ROOT
ATOM      1  C   UNL     1       5.337   4.170  16.207  0.00  0.00    +0.000 C 
ENDROOT
BRANCH   1  10
ATOM      2  C   UNL     1       2.243   6.474  19.879  0.00  0.00    +0.000 C 
ATOM      3  C   UNL     1       2.044   4.983  19.908  0.00  0.00    +0.000 A 
ATOM      4  C   UNL     1       1.155   4.436  20.837  0.00  0.00    +0.000 A 
ATOM      5  C   UNL     1       0.982   3.066  20.859  0.00  0.00    +0.000 A 
ATOM      6  N   UNL     1       1.621   2.214  20.035  0.00  0.00    +0.000 NA
ATOM      7  C   UNL     1       2.486   2.726  19.145  0.00  0.00    +0.000 A 
ATOM      8  C   UNL     1       3.162   1.854  18.307  0.00  0.00    +0.000 A 
ATOM      9  C   UNL     1       4.089   2.300  17.360  0.00  0.00    +0.000 A 
ATOM     10  C   UNL     1       4.350   3.663  17.227  0.00  0.00    +0.000 A 
ATOM     11  C   UNL     1       3.671   4.558  18.065  0.00  0.00    +0.000 A 
ATOM     12  C   UNL     1       2.739   4.113  19.032  0.00  0.00    +0.000 A 
ENDBRANCH   1  10
BRANCH   1  13
ATOM     13  C   UNL     1       6.143   5.360  16.632  0.00  0.00    +0.000 A 
ATOM     14  C   UNL     1       5.779   6.637  16.251  0.00  0.00    +0.000 A 
ATOM     15  N   UNL     1       6.396   7.756  16.671  0.00  0.00    +0.000 NA
ATOM     16  C   UNL     1       7.424   7.581  17.495  0.00  0.00    +0.000 A 
ATOM     17  N   UNL     1       8.031   8.711  18.006  0.00  0.00    +0.000 N 
ATOM     18  N   UNL     1       7.918   6.395  17.859  0.00  0.00    +0.000 NA
ATOM     19  C   UNL     1       7.271   5.303  17.429  0.00  0.00    +0.000 A 
ATOM     20  H   UNL     1       7.870   9.495  17.390  0.00  0.00    +0.000 HD
ATOM     21  H   UNL     1       8.984   8.509  18.269  0.00  0.00    +0.000 HD
BRANCH  19  22
ATOM     22  N   UNL     1       7.832   4.093  17.842  0.00  0.00    +0.000 N 
ATOM     23  H   UNL     1       7.655   3.426  17.093  0.00  0.00    +0.000 HD
ATOM     24  H   UNL     1       8.822   4.178  18.024  0.00  0.00    +0.000 HD
ENDBRANCH  19  22
ENDBRANCH   1  13
TORSDOF 3
ENDMDL
MODEL 5
REMARK VINA RESULT:      -7.4      3.421      6.248
REMARK  Name = 
REMARK  4 active torsions:
REMARK  status: ('A' for Active; 'I' for Inactive)
REMARK    1  A    between atoms: C_1  and  C_2
REMARK    2  A    between atoms: C_9  and  C_10
REMARK    3  A    between atoms: C_10  and  C_11
REMARK    4  A    between atoms: C_17  and  N_18
REMARK                            x       y       z     vdW  Elec       q    Type
REMARK                         _______ _______ _______ _____ _____    ______ ____
ROOT
ATOM      1  C   UNL     1       4.828   3.712  16.757  0.00  0.00    +0.000 C 
ENDROOT
BRANCH   1  10
ATOM      2  C   UNL     1       1.715   3.996  21.069  0.00  0.00    +0.000 C 
ATOM      3  C   UNL     1       1.889   5.368  20.476  0.00  0.00    +0.000 A 
ATOM      4  C   UNL     1       1.246   6.452  21.077  0.00  0.00    +0.000 A 
ATOM      5  C   UNL     1       1.408   7.707  20.523  0.00  0.00    +0.000 A 
ATOM      6  N   UNL     1       2.155   7.955  19.430  0.00  0.00    +0.000 NA
ATOM      7  C   UNL     1       2.770   6.919  18.837  0.00  0.00    +0.000 A 
ATOM      8  C   UNL     1       3.525   7.164  17.700  0.00  0.00    +0.000 A 
ATOM      9  C   UNL     1       4.188   6.143  17.014  0.00  0.00    +0.000 A 
ATOM     10  C   UNL     1       4.113   4.829  17.474  0.00  0.00    +0.000 A 
ATOM     11  C   UNL     1       3.358   4.566  18.625  0.00  0.00    +0.000 A 
ATOM     12  C   UNL     1       2.676   5.593  19.319  0.00  0.00    +0.000 A 
ENDBRANCH   1  10
BRANCH   1  13
ATOM     13  C   UNL     1       5.789   4.148  15.692  0.00  0.00    +0.000 A 
ATOM     14  C   UNL     1       5.469   4.028  14.354  0.00  0.00    +0.000 A 
ATOM     15  N   UNL     1       6.239   4.484  13.349  0.00  0.00    +0.000 NA
ATOM     16  C   UNL     1       7.377   5.071  13.706  0.00  0.00    +0.000 A 
ATOM     17  N   UNL     1       8.153   5.618  12.703  0.00  0.00    +0.000 N 
ATOM     18  N   UNL     1       7.828   5.164  14.959  0.00  0.00    +0.000 NA
ATOM     19  C   UNL     1       7.030   4.708  15.934  0.00  0.00    +0.000 A 
ATOM     20  H   UNL     1       7.952   5.162  11.826  0.00  0.00    +0.000 HD
ATOM     21  H   UNL     1       9.117   5.670  12.996  0.00  0.00    +0.000 HD
BRANCH  19  22
ATOM     22  N   UNL     1       7.554   4.832  17.222  0.00  0.00    +0.000 N 
ATOM     23  H   UNL     1       7.292   3.984  17.720  0.00  0.00    +0.000 HD
ATOM     24  H   UNL     1       8.557   4.951  17.212  0.00  0.00    +0.000 HD
ENDBRANCH  19  22
ENDBRANCH   1  13
TORSDOF 3
ENDMDL
MODEL 6
REMARK VINA RESULT:      -7.4      1.651      6.480
REMARK  Name = 
REMARK  4 active torsions:
REMARK  status: ('A' for Active; 'I' for Inactive)
REMARK    1  A    between atoms: C_1  and  C_2
REMARK    2  A    between atoms: C_9  and  C_10
REMARK    3  A    between atoms: C_10  and  C_11
REMARK    4  A    between atoms: C_17  and  N_18
REMARK                            x       y       z     vdW  Elec       q    Type
REMARK                         _______ _______ _______ _____ _____    ______ ____
ROOT
ATOM      1  C   UNL     1       5.773   4.142  16.567  0.00  0.00    +0.000 C 
ENDROOT
BRANCH   1  10
ATOM      2  C   UNL     1       2.321   6.436  19.912  0.00  0.00    +0.000 C 
ATOM      3  C   UNL     1       2.017   4.967  19.795  0.00  0.00    +0.000 A 
ATOM      4  C   UNL     1       0.961   4.433  20.537  0.00  0.00    +0.000 A 
ATOM      5  C   UNL     1       0.692   3.083  20.426  0.00  0.00    +0.000 A 
ATOM      6  N   UNL     1       1.389   2.239  19.641  0.00  0.00    +0.000 NA
ATOM      7  C   UNL     1       2.413   2.739  18.931  0.00  0.00    +0.000 A 
ATOM      8  C   UNL     1       3.148   1.873  18.136  0.00  0.00    +0.000 A 
ATOM      9  C   UNL     1       4.237   2.306  17.374  0.00  0.00    +0.000 A 
ATOM     10  C   UNL     1       4.609   3.650  17.388  0.00  0.00    +0.000 A 
ATOM     11  C   UNL     1       3.873   4.538  18.184  0.00  0.00    +0.000 A 
ATOM     12  C   UNL     1       2.776   4.105  18.966  0.00  0.00    +0.000 A 
ENDBRANCH   1  10
BRANCH   1  13
ATOM     13  C   UNL     1       6.395   5.421  17.042  0.00  0.00    +0.000 A 
ATOM     14  C   UNL     1       7.282   5.428  18.102  0.00  0.00    +0.000 A 
ATOM     15  N   UNL     1       7.950   6.518  18.520  0.00  0.00    +0.000 NA
ATOM     16  C   UNL     1       7.706   7.644  17.856  0.00  0.00    +0.000 A 
ATOM     17  N   UNL     1       8.432   8.763  18.211  0.00  0.00    +0.000 N 
ATOM     18  N   UNL     1       6.807   7.772  16.877  0.00  0.00    +0.000 NA
ATOM     19  C   UNL     1       6.169   6.663  16.479  0.00  0.00    +0.000 A 
ATOM     20  H   UNL     1       8.753   8.676  19.163  0.00  0.00    +0.000 HD
ATOM     21  H   UNL     1       7.928   9.601  17.959  0.00  0.00    +0.000 HD
BRANCH  19  22
ATOM     22  N   UNL     1       5.243   6.859  15.453  0.00  0.00    +0.000 N 
ATOM     23  H   UNL     1       5.291   7.847  15.210  0.00  0.00    +0.000 HD
ATOM     24  H   UNL     1       5.440   6.278  14.650  0.00  0.00    +0.000 HD
ENDBRANCH  19  22
ENDBRANCH   1  13
TORSDOF 3
ENDMDL
MODEL 7
REMARK VINA RESULT:      -7.4      0.664      1.565
REMARK  Name = 
REMARK  4 active torsions:
REMARK  status: ('A' for Active; 'I' for Inactive)
REMARK    1  A    between atoms: C_1  and  C_2
REMARK    2  A    between atoms: C_9  and  C_10
REMARK    3  A    between atoms: C_10  and  C_11
REMARK    4  A    between atoms: C_17  and  N_18
REMARK                            x       y       z     vdW  Elec       q    Type
REMARK                         _______ _______ _______ _____ _____    ______ ____
ROOT
ATOM      1  C   UNL     1       4.194   3.100  17.423  0.00  0.00    +0.000 C 
ENDROOT
BRANCH   1  10
ATOM      2  C   UNL     1       8.269   5.380  19.985  0.00  0.00    +0.000 C 
ATOM      3  C   UNL     1       7.782   6.290  18.891  0.00  0.00    +0.000 A 
ATOM      4  C   UNL     1       8.403   7.530  18.715  0.00  0.00    +0.000 A 
ATOM      5  C   UNL     1       7.946   8.361  17.712  0.00  0.00    +0.000 A 
ATOM      6  N   UNL     1       6.931   8.051  16.882  0.00  0.00    +0.000 NA
ATOM      7  C   UNL     1       6.320   6.867  17.048  0.00  0.00    +0.000 A 
ATOM      8  C   UNL     1       5.261   6.549  16.211  0.00  0.00    +0.000 A 
ATOM      9  C   UNL     1       4.561   5.345  16.322  0.00  0.00    +0.000 A 
ATOM     10  C   UNL     1       4.928   4.411  17.291  0.00  0.00    +0.000 A 
ATOM     11  C   UNL     1       5.999   4.715  18.141  0.00  0.00    +0.000 A 
ATOM     12  C   UNL     1       6.705   5.937  18.041  0.00  0.00    +0.000 A 
ENDBRANCH   1  10
BRANCH   1  13
ATOM     13  C   UNL     1       3.402   2.935  18.684  0.00  0.00    +0.000 A 
ATOM     14  C   UNL     1       3.952   2.321  19.793  0.00  0.00    +0.000 A 
ATOM     15  N   UNL     1       3.336   2.224  20.985  0.00  0.00    +0.000 NA
ATOM     16  C   UNL     1       2.118   2.752  21.059  0.00  0.00    +0.000 A 
ATOM     17  N   UNL     1       1.490   2.736  22.289  0.00  0.00    +0.000 N 
ATOM     18  N   UNL     1       1.456   3.289  20.032  0.00  0.00    +0.000 NA
ATOM     19  C   UNL     1       2.105   3.379  18.863  0.00  0.00    +0.000 A 
ATOM     20  H   UNL     1       1.867   1.992  22.856  0.00  0.00    +0.000 HD
ATOM     21  H   UNL     1       0.489   2.778  22.171  0.00  0.00    +0.000 HD
BRANCH  19  22
ATOM     22  N   UNL     1       1.363   3.950  17.826  0.00  0.00    +0.000 N 
ATOM     23  H   UNL     1       2.031   4.435  17.231  0.00  0.00    +0.000 HD
ATOM     24  H   UNL     1       0.849   3.255  17.303  0.00  0.00    +0.000 HD
ENDBRANCH  19  22
ENDBRANCH   1  13
TORSDOF 3
ENDMDL
MODEL 8
REMARK VINA RESULT:      -7.3      3.924      5.165
REMARK  Name = 
REMARK  4 active torsions:
REMARK  status: ('A' for Active; 'I' for Inactive)
REMARK    1  A    between atoms: C_1  and  C_2
REMARK    2  A    between atoms: C_9  and  C_10
REMARK    3  A    between atoms: C_10  and  C_11
REMARK    4  A    between atoms: C_17  and  N_18
REMARK                            x       y       z     vdW  Elec       q    Type
REMARK                         _______ _______ _______ _____ _____    ______ ____
ROOT
ATOM      1  C   UNL     1       2.648   6.310  19.684  0.00  0.00    +0.000 C 
ENDROOT
BRANCH   1  10
ATOM      2  C   UNL     1       7.395   7.042  17.383  0.00  0.00    +0.000 C 
ATOM      3  C   UNL     1       6.705   5.859  16.761  0.00  0.00    +0.000 A 
ATOM      4  C   UNL     1       7.342   5.169  15.726  0.00  0.00    +0.000 A 
ATOM      5  C   UNL     1       6.699   4.087  15.159  0.00  0.00    +0.000 A 
ATOM      6  N   UNL     1       5.485   3.648  15.542  0.00  0.00    +0.000 NA
ATOM      7  C   UNL     1       4.858   4.309  16.528  0.00  0.00    +0.000 A 
ATOM      8  C   UNL     1       3.599   3.875  16.915  0.00  0.00    +0.000 A 
ATOM      9  C   UNL     1       2.871   4.511  17.924  0.00  0.00    +0.000 A 
ATOM     10  C   UNL     1       3.410   5.613  18.586  0.00  0.00    +0.000 A 
ATOM     11  C   UNL     1       4.684   6.061  18.210  0.00  0.00    +0.000 A 
ATOM     12  C   UNL     1       5.423   5.428  17.182  0.00  0.00    +0.000 A 
ENDBRANCH   1  10
BRANCH   1  13
ATOM     13  C   UNL     1       2.123   7.669  19.335  0.00  0.00    +0.000 A 
ATOM     14  C   UNL     1       2.189   8.145  18.040  0.00  0.00    +0.000 A 
ATOM     15  N   UNL     1       1.654   9.311  17.635  0.00  0.00    +0.000 NA
ATOM     16  C   UNL     1       1.042  10.029  18.572  0.00  0.00    +0.000 A 
ATOM     17  N   UNL     1       0.417  11.195  18.174  0.00  0.00    +0.000 N 
ATOM     18  N   UNL     1       0.995   9.712  19.868  0.00  0.00    +0.000 NA
ATOM     19  C   UNL     1       1.528   8.538  20.232  0.00  0.00    +0.000 A 
ATOM     20  H   UNL     1       0.837  11.535  17.322  0.00  0.00    +0.000 HD
ATOM     21  H   UNL     1       0.343  11.834  18.951  0.00  0.00    +0.000 HD
BRANCH  19  22
ATOM     22  N   UNL     1       1.448   8.259  21.598  0.00  0.00    +0.000 N 
ATOM     23  H   UNL     1       2.027   8.955  22.065  0.00  0.00    +0.000 HD
ATOM     24  H   UNL     1       0.496   8.294  21.935  0.00  0.00    +0.000 HD
ENDBRANCH  19  22
ENDBRANCH   1  13
TORSDOF 3
ENDMDL
MODEL 9
REMARK VINA RESULT:      -7.3      4.728      6.138
REMARK  Name = 
REMARK  4 active torsions:
REMARK  status: ('A' for Active; 'I' for Inactive)
REMARK    1  A    between atoms: C_1  and  C_2
REMARK    2  A    between atoms: C_9  and  C_10
REMARK    3  A    between atoms: C_10  and  C_11
REMARK    4  A    between atoms: C_17  and  N_18
REMARK                            x       y       z     vdW  Elec       q    Type
REMARK                         _______ _______ _______ _____ _____    ______ ____
ROOT
ATOM      1  C   UNL     1       3.020   5.544  19.584  0.00  0.00    +0.000 C 
ENDROOT
BRANCH   1  10
ATOM      2  C   UNL     1       0.515   9.149  22.600  0.00  0.00    +0.000 C 
ATOM      3  C   UNL     1       0.624   9.655  21.188  0.00  0.00    +0.000 A 
ATOM      4  C   UNL     1       0.079  10.902  20.870  0.00  0.00    +0.000 A 
ATOM      5  C   UNL     1       0.181  11.356  19.570  0.00  0.00    +0.000 A 
ATOM      6  N   UNL     1       0.777  10.668  18.578  0.00  0.00    +0.000 NA
ATOM      7  C   UNL     1       1.295   9.464  18.868  0.00  0.00    +0.000 A 
ATOM      8  C   UNL     1       1.894   8.741  17.847  0.00  0.00    +0.000 A 
ATOM      9  C   UNL     1       2.447   7.475  18.058  0.00  0.00    +0.000 A 
ATOM     10  C   UNL     1       2.420   6.904  19.330  0.00  0.00    +0.000 A 
ATOM     11  C   UNL     1       1.823   7.624  20.373  0.00  0.00    +0.000 A 
ATOM     12  C   UNL     1       1.251   8.902  20.165  0.00  0.00    +0.000 A 
ENDBRANCH   1  10
BRANCH   1  13
ATOM     13  C   UNL     1       4.291   5.258  18.844  0.00  0.00    +0.000 A 
ATOM     14  C   UNL     1       5.493   5.795  19.264  0.00  0.00    +0.000 A 
ATOM     15  N   UNL     1       6.684   5.506  18.708  0.00  0.00    +0.000 NA
ATOM     16  C   UNL     1       6.661   4.657  17.686  0.00  0.00    +0.000 A 
ATOM     17  N   UNL     1       7.874   4.281  17.143  0.00  0.00    +0.000 N 
ATOM     18  N   UNL     1       5.554   4.147  17.141  0.00  0.00    +0.000 NA
ATOM     19  C   UNL     1       4.387   4.448  17.728  0.00  0.00    +0.000 A 
ATOM     20  H   UNL     1       8.569   4.988  17.332  0.00  0.00    +0.000 HD
ATOM     21  H   UNL     1       7.752   3.985  16.186  0.00  0.00    +0.000 HD
BRANCH  19  22
ATOM     22  N   UNL     1       3.265   3.887  17.115  0.00  0.00    +0.000 N 
ATOM     23  H   UNL     1       3.252   2.906  17.388  0.00  0.00    +0.000 HD
ATOM     24  H   UNL     1       2.411   4.351  17.392  0.00  0.00    +0.000 HD
ENDBRANCH  19  22
ENDBRANCH   1  13
TORSDOF 3
ENDMDL
