MODEL 1
REMARK VINA RESULT:      -8.4      0.000      0.000
REMARK  Name = 
REMARK  11 active torsions:
REMARK  status: ('A' for Active; 'I' for Inactive)
REMARK    1  A    between atoms: C_1  and  C_2
REMARK    2  A    between atoms: C_2  and  C_3
REMARK    3  A    between atoms: C_2  and  O_4
REMARK    4  A    between atoms: C_2  and  C_5
REMARK    5  A    between atoms: C_5  and  O_6
REMARK    6  A    between atoms: O_6  and  C_7
REMARK    7  A    between atoms: C_10  and  N_11
REMARK    8  A    between atoms: C_18  and  C_19
REMARK    9  A    between atoms: C_25  and  O_26
REMARK   10  A    between atoms: O_26  and  C_27
REMARK   11  A    between atoms: C_27  and  C_28
REMARK                            x       y       z     vdW  Elec       q    Type
REMARK                         _______ _______ _______ _____ _____    ______ ____
ROOT
ATOM      1  N   UNL     1       2.225   6.895  18.926  0.00  0.00    +0.000 N 
ATOM      2  C   UNL     1       3.174   6.554  17.882  0.00  0.00    +0.000 C 
ATOM      3  C   UNL     1       3.625   5.176  18.236  0.00  0.00    +0.000 A 
ATOM      4  C   UNL     1       2.992   4.779  19.407  0.00  0.00    +0.000 A 
ATOM      5  C   UNL     1       3.142   3.515  19.923  0.00  0.00    +0.000 A 
ATOM      6  C   UNL     1       4.003   2.693  19.213  0.00  0.00    +0.000 A 
ATOM      7  N   UNL     1       4.687   3.063  18.090  0.00  0.00    +0.000 NA
ATOM      8  C   UNL     1       4.499   4.308  17.586  0.00  0.00    +0.000 A 
ATOM      9  C   UNL     1       2.196   5.911  19.917  0.00  0.00    +0.000 C 
ATOM     10  O   UNL     1       1.639   5.919  20.995  0.00  0.00    +0.000 OA
ENDROOT
BRANCH   8  11
ATOM     11  C   UNL     1       5.217   4.693  16.337  0.00  0.00    +0.000 A 
ATOM     12  C   UNL     1       5.001   3.915  15.173  0.00  0.00    +0.000 A 
ATOM     13  C   UNL     1       5.843   3.958  14.061  0.00  0.00    +0.000 A 
ATOM     14  C   UNL     1       6.878   4.864  14.059  0.00  0.00    +0.000 A 
ATOM     15  F   UNL     1       7.716   4.908  13.015  0.00  0.00    +0.000 F 
ATOM     16  C   UNL     1       7.033   5.758  15.102  0.00  0.00    +0.000 A 
ATOM     17  C   UNL     1       6.183   5.728  16.224  0.00  0.00    +0.000 A 
BRANCH  17  18
ATOM     18  O   UNL     1       6.275   6.688  17.213  0.00  0.00    +0.000 OA
BRANCH  18  19
ATOM     19  C   UNL     1       7.531   6.690  17.926  0.00  0.00    +0.000 C 
BRANCH  19  20
ATOM     20  C   UNL     1       7.727   5.538  18.904  0.00  0.00    +0.000 C 
ATOM     21  F   UNL     1       8.016   4.362  18.315  0.00  0.00    +0.000 F 
ATOM     22  F   UNL     1       8.742   5.825  19.761  0.00  0.00    +0.000 F 
ATOM     23  F   UNL     1       6.619   5.363  19.665  0.00  0.00    +0.000 F 
ENDBRANCH  19  20
ENDBRANCH  18  19
ENDBRANCH  17  18
ENDBRANCH   8  11
BRANCH   1  27
ATOM     24  C   UNL     1       0.996  10.912  19.393  0.00  0.00    +0.000 A 
ATOM     25  C   UNL     1       1.521  10.466  18.180  0.00  0.00    +0.000 A 
ATOM     26  C   UNL     1       1.968   9.147  18.023  0.00  0.00    +0.000 A 
ATOM     27  C   UNL     1       1.852   8.242  19.077  0.00  0.00    +0.000 A 
ATOM     28  C   UNL     1       1.265   8.662  20.274  0.00  0.00    +0.000 A 
ATOM     29  C   UNL     1       0.865   9.997  20.442  0.00  0.00    +0.000 A 
BRANCH  24  30
ATOM     30  O   UNL     1       0.587  12.198  19.668  0.00  0.00    +0.000 OA
BRANCH  30  31
ATOM     31  C   UNL     1       0.812  13.149  18.619  0.00  0.00    +0.000 C 
BRANCH  31  33
ATOM     32  C   UNL     1       2.690  13.767  20.218  0.00  0.00    +0.000 C 
ATOM     33  C   UNL     1       2.061  14.025  18.849  0.00  0.00    +0.000 C 
ATOM     34  C   UNL     1       1.744  15.511  18.675  0.00  0.00    +0.000 C 
BRANCH  33  35
ATOM     35  O   UNL     1       3.023  13.660  17.844  0.00  0.00    +0.000 OA
ATOM     36  H   UNL     1       3.673  14.377  17.776  0.00  0.00    +0.000 HD
ENDBRANCH  33  35
ENDBRANCH  31  33
ENDBRANCH  30  31
ENDBRANCH  24  30
ENDBRANCH   1  27
TORSDOF 9
ENDMDL
MODEL 2
REMARK VINA RESULT:      -8.4      1.003      1.550
REMARK  Name = 
REMARK  11 active torsions:
REMARK  status: ('A' for Active; 'I' for Inactive)
REMARK    1  A    between atoms: C_1  and  C_2
REMARK    2  A    between atoms: C_2  and  C_3
REMARK    3  A    between atoms: C_2  and  O_4
REMARK    4  A    between atoms: C_2  and  C_5
REMARK    5  A    between atoms: C_5  and  O_6
REMARK    6  A    between atoms: O_6  and  C_7
REMARK    7  A    between atoms: C_10  and  N_11
REMARK    8  A    between atoms: C_18  and  C_19
REMARK    9  A    between atoms: C_25  and  O_26
REMARK   10  A    between atoms: O_26  and  C_27
REMARK   11  A    between atoms: C_27  and  C_28
REMARK                            x       y       z     vdW  Elec       q    Type
REMARK                         _______ _______ _______ _____ _____    ______ ____
ROOT
ATOM      1  N   UNL     1       2.152   6.419  18.966  0.00  0.00    +0.000 N 
ATOM      2  C   UNL     1       3.118   6.200  17.906  0.00  0.00    +0.000 C 
ATOM      3  C   UNL     1       3.548   4.784  18.091  0.00  0.00    +0.000 A 
ATOM      4  C   UNL     1       2.889   4.250  19.191  0.00  0.00    +0.000 A 
ATOM      5  C   UNL     1       3.016   2.930  19.547  0.00  0.00    +0.000 A 
ATOM      6  C   UNL     1       3.882   2.193  18.754  0.00  0.00    +0.000 A 
ATOM      7  N   UNL     1       4.592   2.693  17.699  0.00  0.00    +0.000 NA
ATOM      8  C   UNL     1       4.426   3.993  17.353  0.00  0.00    +0.000 A 
ATOM      9  C   UNL     1       2.094   5.318  19.825  0.00  0.00    +0.000 C 
ATOM     10  O   UNL     1       1.517   5.198  20.886  0.00  0.00    +0.000 OA
ENDROOT
BRANCH   8  11
ATOM     11  C   UNL     1       5.172   4.524  16.175  0.00  0.00    +0.000 A 
ATOM     12  C   UNL     1       5.045   3.843  14.939  0.00  0.00    +0.000 A 
ATOM     13  C   UNL     1       5.928   4.027  13.874  0.00  0.00    +0.000 A 
ATOM     14  C   UNL     1       6.911   4.980  13.998  0.00  0.00    +0.000 A 
ATOM     15  F   UNL     1       7.787   5.159  13.000  0.00  0.00    +0.000 F 
ATOM     16  C   UNL     1       6.976   5.784  15.120  0.00  0.00    +0.000 A 
ATOM     17  C   UNL     1       6.084   5.612  16.196  0.00  0.00    +0.000 A 
BRANCH  17  18
ATOM     18  O   UNL     1       6.085   6.483  17.268  0.00  0.00    +0.000 OA
BRANCH  18  19
ATOM     19  C   UNL     1       7.343   6.561  17.972  0.00  0.00    +0.000 C 
BRANCH  19  20
ATOM     20  C   UNL     1       7.669   5.364  18.858  0.00  0.00    +0.000 C 
ATOM     21  F   UNL     1       8.110   4.286  18.183  0.00  0.00    +0.000 F 
ATOM     22  F   UNL     1       8.628   5.702  19.760  0.00  0.00    +0.000 F 
ATOM     23  F   UNL     1       6.581   4.991  19.576  0.00  0.00    +0.000 F 
ENDBRANCH  19  20
ENDBRANCH  18  19
ENDBRANCH  17  18
ENDBRANCH   8  11
BRANCH   1  27
ATOM     24  C   UNL     1       1.170  10.427  19.882  0.00  0.00    +0.000 A 
ATOM     25  C   UNL     1       1.183   9.452  20.881  0.00  0.00    +0.000 A 
ATOM     26  C   UNL     1       1.469   8.113  20.584  0.00  0.00    +0.000 A 
ATOM     27  C   UNL     1       1.790   7.741  19.279  0.00  0.00    +0.000 A 
ATOM     28  C   UNL     1       1.845   8.722  18.285  0.00  0.00    +0.000 A 
ATOM     29  C   UNL     1       1.510  10.054  18.578  0.00  0.00    +0.000 A 
BRANCH  24  30
ATOM     30  O   UNL     1       0.843  11.753  20.057  0.00  0.00    +0.000 OA
BRANCH  30  31
ATOM     31  C   UNL     1       0.836  12.545  18.863  0.00  0.00    +0.000 C 
BRANCH  31  33
ATOM     32  C   UNL     1      -0.220  14.847  18.634  0.00  0.00    +0.000 C 
ATOM     33  C   UNL     1      -0.471  13.338  18.664  0.00  0.00    +0.000 C 
ATOM     34  C   UNL     1      -1.509  12.989  19.732  0.00  0.00    +0.000 C 
BRANCH  33  35
ATOM     35  O   UNL     1      -1.009  12.954  17.387  0.00  0.00    +0.000 OA
ATOM     36  H   UNL     1      -1.593  13.665  17.080  0.00  0.00    +0.000 HD
ENDBRANCH  33  35
ENDBRANCH  31  33
ENDBRANCH  30  31
ENDBRANCH  24  30
ENDBRANCH   1  27
TORSDOF 9
ENDMDL
MODEL 3
REMARK VINA RESULT:      -8.4      4.727     10.267
REMARK  Name = 
REMARK  11 active torsions:
REMARK  status: ('A' for Active; 'I' for Inactive)
REMARK    1  A    between atoms: C_1  and  C_2
REMARK    2  A    between atoms: C_2  and  C_3
REMARK    3  A    between atoms: C_2  and  O_4
REMARK    4  A    between atoms: C_2  and  C_5
REMARK    5  A    between atoms: C_5  and  O_6
REMARK    6  A    between atoms: O_6  and  C_7
REMARK    7  A    between atoms: C_10  and  N_11
REMARK    8  A    between atoms: C_18  and  C_19
REMARK    9  A    between atoms: C_25  and  O_26
REMARK   10  A    between atoms: O_26  and  C_27
REMARK   11  A    between atoms: C_27  and  C_28
REMARK                            x       y       z     vdW  Elec       q    Type
REMARK                         _______ _______ _______ _____ _____    ______ ____
ROOT
ATOM      1  N   UNL     1       0.970  10.667  18.728  0.00  0.00    +0.000 N 
ATOM      2  C   UNL     1      -0.253  11.006  19.432  0.00  0.00    +0.000 C 
ATOM      3  C   UNL     1      -0.270  12.497  19.435  0.00  0.00    +0.000 A 
ATOM      4  C   UNL     1       0.873  12.965  18.800  0.00  0.00    +0.000 A 
ATOM      5  C   UNL     1       1.083  14.303  18.569  0.00  0.00    +0.000 A 
ATOM      6  C   UNL     1       0.093  15.141  19.059  0.00  0.00    +0.000 A 
ATOM      7  N   UNL     1      -1.017  14.726  19.737  0.00  0.00    +0.000 NA
ATOM      8  C   UNL     1      -1.213  13.398  19.927  0.00  0.00    +0.000 A 
ATOM      9  C   UNL     1       1.725  11.811  18.457  0.00  0.00    +0.000 C 
ATOM     10  O   UNL     1       2.852  11.904  18.018  0.00  0.00    +0.000 OA
ENDROOT
BRANCH   8  11
ATOM     11  C   UNL     1      -2.447  12.947  20.633  0.00  0.00    +0.000 A 
ATOM     12  C   UNL     1      -3.681  13.029  19.943  0.00  0.00    +0.000 A 
ATOM     13  C   UNL     1      -4.919  12.962  20.585  0.00  0.00    +0.000 A 
ATOM     14  C   UNL     1      -4.941  12.714  21.937  0.00  0.00    +0.000 A 
ATOM     15  F   UNL     1      -6.114  12.670  22.582  0.00  0.00    +0.000 F 
ATOM     16  C   UNL     1      -3.769  12.465  22.627  0.00  0.00    +0.000 A 
ATOM     17  C   UNL     1      -2.517  12.521  21.986  0.00  0.00    +0.000 A 
BRANCH  17  18
ATOM     18  O   UNL     1      -1.359  12.170  22.652  0.00  0.00    +0.000 OA
BRANCH  18  19
ATOM     19  C   UNL     1      -1.444  10.925  23.380  0.00  0.00    +0.000 C 
BRANCH  19  20
ATOM     20  C   UNL     1      -0.382   9.891  23.028  0.00  0.00    +0.000 C 
ATOM     21  F   UNL     1      -0.836   8.872  22.275  0.00  0.00    +0.000 F 
ATOM     22  F   UNL     1       0.633  10.483  22.344  0.00  0.00    +0.000 F 
ATOM     23  F   UNL     1       0.167   9.368  24.152  0.00  0.00    +0.000 F 
ENDBRANCH  19  20
ENDBRANCH  18  19
ENDBRANCH  17  18
ENDBRANCH   8  11
BRANCH   1  27
ATOM     24  C   UNL     1       2.513   6.749  19.099  0.00  0.00    +0.000 A 
ATOM     25  C   UNL     1       2.586   7.429  17.883  0.00  0.00    +0.000 A 
ATOM     26  C   UNL     1       2.044   8.714  17.736  0.00  0.00    +0.000 A 
ATOM     27  C   UNL     1       1.457   9.352  18.827  0.00  0.00    +0.000 A 
ATOM     28  C   UNL     1       1.439   8.704  20.067  0.00  0.00    +0.000 A 
ATOM     29  C   UNL     1       1.939   7.399  20.196  0.00  0.00    +0.000 A 
BRANCH  24  30
ATOM     30  O   UNL     1       2.958   5.466  19.330  0.00  0.00    +0.000 OA
BRANCH  30  31
ATOM     31  C   UNL     1       4.379   5.290  19.261  0.00  0.00    +0.000 C 
BRANCH  31  33
ATOM     32  C   UNL     1       4.642   4.350  16.913  0.00  0.00    +0.000 C 
ATOM     33  C   UNL     1       4.801   4.075  18.409  0.00  0.00    +0.000 C 
ATOM     34  C   UNL     1       4.034   2.814  18.808  0.00  0.00    +0.000 C 
BRANCH  33  35
ATOM     35  O   UNL     1       6.197   3.842  18.670  0.00  0.00    +0.000 OA
ATOM     36  H   UNL     1       6.698   4.593  18.316  0.00  0.00    +0.000 HD
ENDBRANCH  33  35
ENDBRANCH  31  33
ENDBRANCH  30  31
ENDBRANCH  24  30
ENDBRANCH   1  27
TORSDOF 9
ENDMDL
MODEL 4
REMARK VINA RESULT:      -8.4      1.277      1.873
REMARK  Name = 
REMARK  11 active torsions:
REMARK  status: ('A' for Active; 'I' for Inactive)
REMARK    1  A    between atoms: C_1  and  C_2
REMARK    2  A    between atoms: C_2  and  C_3
REMARK    3  A    between atoms: C_2  and  O_4
REMARK    4  A    between atoms: C_2  and  C_5
REMARK    5  A    between atoms: C_5  and  O_6
REMARK    6  A    between atoms: O_6  and  C_7
REMARK    7  A    between atoms: C_10  and  N_11
REMARK    8  A    between atoms: C_18  and  C_19
REMARK    9  A    between atoms: C_25  and  O_26
REMARK   10  A    between atoms: O_26  and  C_27
REMARK   11  A    between atoms: C_27  and  C_28
REMARK                            x       y       z     vdW  Elec       q    Type
REMARK                         _______ _______ _______ _____ _____    ______ ____
ROOT
ATOM      1  N   UNL     1       2.192   7.025  18.953  0.00  0.00    +0.000 N 
ATOM      2  C   UNL     1       3.158   6.675  17.927  0.00  0.00    +0.000 C 
ATOM      3  C   UNL     1       3.600   5.300  18.298  0.00  0.00    +0.000 A 
ATOM      4  C   UNL     1       2.948   4.912  19.461  0.00  0.00    +0.000 A 
ATOM      5  C   UNL     1       3.088   3.652  19.989  0.00  0.00    +0.000 A 
ATOM      6  C   UNL     1       3.959   2.823  19.298  0.00  0.00    +0.000 A 
ATOM      7  N   UNL     1       4.661   3.184  18.184  0.00  0.00    +0.000 NA
ATOM      8  C   UNL     1       4.484   4.425  17.669  0.00  0.00    +0.000 A 
ATOM      9  C   UNL     1       2.146   6.048  19.950  0.00  0.00    +0.000 C 
ATOM     10  O   UNL     1       1.572   6.065  21.020  0.00  0.00    +0.000 OA
ENDROOT
BRANCH   8  11
ATOM     11  C   UNL     1       5.222   4.801  16.428  0.00  0.00    +0.000 A 
ATOM     12  C   UNL     1       4.973   4.057  15.249  0.00  0.00    +0.000 A 
ATOM     13  C   UNL     1       5.819   4.082  14.139  0.00  0.00    +0.000 A 
ATOM     14  C   UNL     1       6.895   4.938  14.157  0.00  0.00    +0.000 A 
ATOM     15  F   UNL     1       7.737   4.963  13.116  0.00  0.00    +0.000 F 
ATOM     16  C   UNL     1       7.090   5.803  15.218  0.00  0.00    +0.000 A 
ATOM     17  C   UNL     1       6.236   5.791  16.337  0.00  0.00    +0.000 A 
BRANCH  17  18
ATOM     18  O   UNL     1       6.371   6.725  17.345  0.00  0.00    +0.000 OA
BRANCH  18  19
ATOM     19  C   UNL     1       7.628   6.661  18.054  0.00  0.00    +0.000 C 
BRANCH  19  20
ATOM     20  C   UNL     1       7.776   5.485  19.012  0.00  0.00    +0.000 C 
ATOM     21  F   UNL     1       8.781   5.620  19.896  0.00  0.00    +0.000 F 
ATOM     22  F   UNL     1       6.628   5.317  19.721  0.00  0.00    +0.000 F 
ATOM     23  F   UNL     1       7.974   4.332  18.326  0.00  0.00    +0.000 F 
ENDBRANCH  19  20
ENDBRANCH  18  19
ENDBRANCH  17  18
ENDBRANCH   8  11
BRANCH   1  27
ATOM     24  C   UNL     1       0.962  11.048  19.366  0.00  0.00    +0.000 A 
ATOM     25  C   UNL     1       1.568  10.607  18.188  0.00  0.00    +0.000 A 
ATOM     26  C   UNL     1       2.015   9.286  18.052  0.00  0.00    +0.000 A 
ATOM     27  C   UNL     1       1.819   8.374  19.089  0.00  0.00    +0.000 A 
ATOM     28  C   UNL     1       1.153   8.790  20.245  0.00  0.00    +0.000 A 
ATOM     29  C   UNL     1       0.751  10.126  20.396  0.00  0.00    +0.000 A 
BRANCH  24  30
ATOM     30  O   UNL     1       0.544  12.335  19.622  0.00  0.00    +0.000 OA
BRANCH  30  31
ATOM     31  C   UNL     1      -0.399  12.471  20.693  0.00  0.00    +0.000 C 
BRANCH  31  33
ATOM     32  C   UNL     1      -2.678  13.330  21.422  0.00  0.00    +0.000 C 
ATOM     33  C   UNL     1      -1.768  13.012  20.234  0.00  0.00    +0.000 C 
ATOM     34  C   UNL     1      -2.461  12.046  19.272  0.00  0.00    +0.000 C 
BRANCH  33  35
ATOM     35  O   UNL     1      -1.522  14.239  19.525  0.00  0.00    +0.000 OA
ATOM     36  H   UNL     1      -0.597  14.236  19.232  0.00  0.00    +0.000 HD
ENDBRANCH  33  35
ENDBRANCH  31  33
ENDBRANCH  30  31
ENDBRANCH  24  30
ENDBRANCH   1  27
TORSDOF 9
ENDMDL
MODEL 5
REMARK VINA RESULT:      -8.3      4.846     10.338
REMARK  Name = 
REMARK  11 active torsions:
REMARK  status: ('A' for Active; 'I' for Inactive)
REMARK    1  A    between atoms: C_1  and  C_2
REMARK    2  A    between atoms: C_2  and  C_3
REMARK    3  A    between atoms: C_2  and  O_4
REMARK    4  A    between atoms: C_2  and  C_5
REMARK    5  A    between atoms: C_5  and  O_6
REMARK    6  A    between atoms: O_6  and  C_7
REMARK    7  A    between atoms: C_10  and  N_11
REMARK    8  A    between atoms: C_18  and  C_19
REMARK    9  A    between atoms: C_25  and  O_26
REMARK   10  A    between atoms: O_26  and  C_27
REMARK   11  A    between atoms: C_27  and  C_28
REMARK                            x       y       z     vdW  Elec       q    Type
REMARK                         _______ _______ _______ _____ _____    ______ ____
ROOT
ATOM      1  N   UNL     1       0.956  10.605  18.724  0.00  0.00    +0.000 N 
ATOM      2  C   UNL     1      -0.261  10.955  19.432  0.00  0.00    +0.000 C 
ATOM      3  C   UNL     1      -0.274  12.447  19.420  0.00  0.00    +0.000 A 
ATOM      4  C   UNL     1       0.866  12.904  18.772  0.00  0.00    +0.000 A 
ATOM      5  C   UNL     1       1.079  14.239  18.527  0.00  0.00    +0.000 A 
ATOM      6  C   UNL     1       0.095  15.085  19.014  0.00  0.00    +0.000 A 
ATOM      7  N   UNL     1      -1.012  14.680  19.704  0.00  0.00    +0.000 NA
ATOM      8  C   UNL     1      -1.211  13.355  19.909  0.00  0.00    +0.000 A 
ATOM      9  C   UNL     1       1.712  11.744  18.436  0.00  0.00    +0.000 C 
ATOM     10  O   UNL     1       2.837  11.830  17.989  0.00  0.00    +0.000 OA
ENDROOT
BRANCH   8  11
ATOM     11  C   UNL     1      -2.442  12.915  20.627  0.00  0.00    +0.000 A 
ATOM     12  C   UNL     1      -3.682  13.007  19.948  0.00  0.00    +0.000 A 
ATOM     13  C   UNL     1      -4.914  12.950  20.603  0.00  0.00    +0.000 A 
ATOM     14  C   UNL     1      -4.925  12.704  21.956  0.00  0.00    +0.000 A 
ATOM     15  F   UNL     1      -6.092  12.671  22.612  0.00  0.00    +0.000 F 
ATOM     16  C   UNL     1      -3.748  12.447  22.635  0.00  0.00    +0.000 A 
ATOM     17  C   UNL     1      -2.502  12.492  21.981  0.00  0.00    +0.000 A 
BRANCH  17  18
ATOM     18  O   UNL     1      -1.341  12.132  22.637  0.00  0.00    +0.000 OA
BRANCH  18  19
ATOM     19  C   UNL     1      -1.433  10.895  23.377  0.00  0.00    +0.000 C 
BRANCH  19  20
ATOM     20  C   UNL     1      -0.339   9.876  23.079  0.00  0.00    +0.000 C 
ATOM     21  F   UNL     1       0.215   9.328  24.176  0.00  0.00    +0.000 F 
ATOM     22  F   UNL     1      -0.843   8.862  22.327  0.00  0.00    +0.000 F 
ATOM     23  F   UNL     1       0.653  10.440  22.347  0.00  0.00    +0.000 F 
ENDBRANCH  19  20
ENDBRANCH  18  19
ENDBRANCH  17  18
ENDBRANCH   8  11
BRANCH   1  27
ATOM     24  C   UNL     1       2.490   6.687  19.126  0.00  0.00    +0.000 A 
ATOM     25  C   UNL     1       2.564   7.357  17.904  0.00  0.00    +0.000 A 
ATOM     26  C   UNL     1       2.026   8.642  17.747  0.00  0.00    +0.000 A 
ATOM     27  C   UNL     1       1.439   9.290  18.834  0.00  0.00    +0.000 A 
ATOM     28  C   UNL     1       1.420   8.652  20.078  0.00  0.00    +0.000 A 
ATOM     29  C   UNL     1       1.917   7.346  20.218  0.00  0.00    +0.000 A 
BRANCH  24  30
ATOM     30  O   UNL     1       2.931   5.405  19.368  0.00  0.00    +0.000 OA
BRANCH  30  31
ATOM     31  C   UNL     1       2.407   4.790  20.551  0.00  0.00    +0.000 C 
BRANCH  31  33
ATOM     32  C   UNL     1       1.029   3.087  19.260  0.00  0.00    +0.000 C 
ATOM     33  C   UNL     1       2.067   3.297  20.363  0.00  0.00    +0.000 C 
ATOM     34  C   UNL     1       1.597   2.657  21.670  0.00  0.00    +0.000 C 
BRANCH  33  35
ATOM     35  O   UNL     1       3.279   2.636  19.960  0.00  0.00    +0.000 OA
ATOM     36  H   UNL     1       3.865   3.298  19.561  0.00  0.00    +0.000 HD
ENDBRANCH  33  35
ENDBRANCH  31  33
ENDBRANCH  30  31
ENDBRANCH  24  30
ENDBRANCH   1  27
TORSDOF 9
ENDMDL
MODEL 6
REMARK VINA RESULT:      -8.3      1.778      2.266
REMARK  Name = 
REMARK  11 active torsions:
REMARK  status: ('A' for Active; 'I' for Inactive)
REMARK    1  A    between atoms: C_1  and  C_2
REMARK    2  A    between atoms: C_2  and  C_3
REMARK    3  A    between atoms: C_2  and  O_4
REMARK    4  A    between atoms: C_2  and  C_5
REMARK    5  A    between atoms: C_5  and  O_6
REMARK    6  A    between atoms: O_6  and  C_7
REMARK    7  A    between atoms: C_10  and  N_11
REMARK    8  A    between atoms: C_18  and  C_19
REMARK    9  A    between atoms: C_25  and  O_26
REMARK   10  A    between atoms: O_26  and  C_27
REMARK   11  A    between atoms: C_27  and  C_28
REMARK                            x       y       z     vdW  Elec       q    Type
REMARK                         _______ _______ _______ _____ _____    ______ ____
ROOT
ATOM      1  N   UNL     1       2.273   6.584  19.074  0.00  0.00    +0.000 N 
ATOM      2  C   UNL     1       3.254   6.258  18.057  0.00  0.00    +0.000 C 
ATOM      3  C   UNL     1       3.734   4.897  18.436  0.00  0.00    +0.000 A 
ATOM      4  C   UNL     1       3.085   4.496  19.597  0.00  0.00    +0.000 A 
ATOM      5  C   UNL     1       3.258   3.242  20.131  0.00  0.00    +0.000 A 
ATOM      6  C   UNL     1       4.156   2.436  19.449  0.00  0.00    +0.000 A 
ATOM      7  N   UNL     1       4.855   2.812  18.338  0.00  0.00    +0.000 NA
ATOM      8  C   UNL     1       4.646   4.046  17.816  0.00  0.00    +0.000 A 
ATOM      9  C   UNL     1       2.248   5.610  20.076  0.00  0.00    +0.000 C 
ATOM     10  O   UNL     1       1.667   5.615  21.142  0.00  0.00    +0.000 OA
ENDROOT
BRANCH   8  11
ATOM     11  C   UNL     1       5.381   4.437  16.578  0.00  0.00    +0.000 A 
ATOM     12  C   UNL     1       4.765   4.189  15.327  0.00  0.00    +0.000 A 
ATOM     13  C   UNL     1       5.466   4.194  14.120  0.00  0.00    +0.000 A 
ATOM     14  C   UNL     1       6.796   4.545  14.137  0.00  0.00    +0.000 A 
ATOM     15  F   UNL     1       7.497   4.532  12.996  0.00  0.00    +0.000 F 
ATOM     16  C   UNL     1       7.402   4.952  15.310  0.00  0.00    +0.000 A 
ATOM     17  C   UNL     1       6.701   4.959  16.531  0.00  0.00    +0.000 A 
BRANCH  17  18
ATOM     18  O   UNL     1       7.277   5.465  17.680  0.00  0.00    +0.000 OA
BRANCH  18  19
ATOM     19  C   UNL     1       6.831   6.792  18.036  0.00  0.00    +0.000 C 
BRANCH  19  20
ATOM     20  C   UNL     1       7.855   7.901  17.828  0.00  0.00    +0.000 C 
ATOM     21  F   UNL     1       8.481   7.854  16.638  0.00  0.00    +0.000 F 
ATOM     22  F   UNL     1       7.251   9.115  17.924  0.00  0.00    +0.000 F 
ATOM     23  F   UNL     1       8.801   7.866  18.799  0.00  0.00    +0.000 F 
ENDBRANCH  19  20
ENDBRANCH  18  19
ENDBRANCH  17  18
ENDBRANCH   8  11
BRANCH   1  27
ATOM     24  C   UNL     1       0.927  10.571  19.479  0.00  0.00    +0.000 A 
ATOM     25  C   UNL     1       1.399  10.101  18.252  0.00  0.00    +0.000 A 
ATOM     26  C   UNL     1       1.883   8.793  18.114  0.00  0.00    +0.000 A 
ATOM     27  C   UNL     1       1.861   7.922  19.202  0.00  0.00    +0.000 A 
ATOM     28  C   UNL     1       1.328   8.364  20.417  0.00  0.00    +0.000 A 
ATOM     29  C   UNL     1       0.890   9.690  20.564  0.00  0.00    +0.000 A 
BRANCH  24  30
ATOM     30  O   UNL     1       0.489  11.851  19.734  0.00  0.00    +0.000 OA
BRANCH  30  31
ATOM     31  C   UNL     1      -0.836  11.948  20.273  0.00  0.00    +0.000 C 
BRANCH  31  33
ATOM     32  C   UNL     1      -3.231  12.637  19.768  0.00  0.00    +0.000 C 
ATOM     33  C   UNL     1      -1.925  12.088  19.190  0.00  0.00    +0.000 C 
ATOM     34  C   UNL     1      -2.174  10.763  18.468  0.00  0.00    +0.000 C 
BRANCH  33  35
ATOM     35  O   UNL     1      -1.439  13.033  18.221  0.00  0.00    +0.000 OA
ATOM     36  H   UNL     1      -0.988  12.538  17.519  0.00  0.00    +0.000 HD
ENDBRANCH  33  35
ENDBRANCH  31  33
ENDBRANCH  30  31
ENDBRANCH  24  30
ENDBRANCH   1  27
TORSDOF 9
ENDMDL
MODEL 7
REMARK VINA RESULT:      -8.3      4.759     10.267
REMARK  Name = 
REMARK  11 active torsions:
REMARK  status: ('A' for Active; 'I' for Inactive)
REMARK    1  A    between atoms: C_1  and  C_2
REMARK    2  A    between atoms: C_2  and  C_3
REMARK    3  A    between atoms: C_2  and  O_4
REMARK    4  A    between atoms: C_2  and  C_5
REMARK    5  A    between atoms: C_5  and  O_6
REMARK    6  A    between atoms: O_6  and  C_7
REMARK    7  A    between atoms: C_10  and  N_11
REMARK    8  A    between atoms: C_18  and  C_19
REMARK    9  A    between atoms: C_25  and  O_26
REMARK   10  A    between atoms: O_26  and  C_27
REMARK   11  A    between atoms: C_27  and  C_28
REMARK                            x       y       z     vdW  Elec       q    Type
REMARK                         _______ _______ _______ _____ _____    ______ ____
ROOT
ATOM      1  N   UNL     1       0.967  10.604  18.785  0.00  0.00    +0.000 N 
ATOM      2  C   UNL     1      -0.244  10.940  19.511  0.00  0.00    +0.000 C 
ATOM      3  C   UNL     1      -0.287  12.431  19.477  0.00  0.00    +0.000 A 
ATOM      4  C   UNL     1       0.832  12.901  18.801  0.00  0.00    +0.000 A 
ATOM      5  C   UNL     1       1.012  14.236  18.531  0.00  0.00    +0.000 A 
ATOM      6  C   UNL     1       0.021  15.070  19.025  0.00  0.00    +0.000 A 
ATOM      7  N   UNL     1      -1.064  14.654  19.742  0.00  0.00    +0.000 NA
ATOM      8  C   UNL     1      -1.232  13.328  19.970  0.00  0.00    +0.000 A 
ATOM      9  C   UNL     1       1.694  11.753  18.465  0.00  0.00    +0.000 C 
ATOM     10  O   UNL     1       2.808  11.855  17.995  0.00  0.00    +0.000 OA
ENDROOT
BRANCH   8  11
ATOM     11  C   UNL     1      -2.440  12.875  20.718  0.00  0.00    +0.000 A 
ATOM     12  C   UNL     1      -3.699  12.961  20.075  0.00  0.00    +0.000 A 
ATOM     13  C   UNL     1      -4.912  12.892  20.762  0.00  0.00    +0.000 A 
ATOM     14  C   UNL     1      -4.884  12.638  22.113  0.00  0.00    +0.000 A 
ATOM     15  F   UNL     1      -6.033  12.592  22.800  0.00  0.00    +0.000 F 
ATOM     16  C   UNL     1      -3.688  12.385  22.758  0.00  0.00    +0.000 A 
ATOM     17  C   UNL     1      -2.461  12.443  22.071  0.00  0.00    +0.000 A 
BRANCH  17  18
ATOM     18  O   UNL     1      -1.279  12.087  22.693  0.00  0.00    +0.000 OA
BRANCH  18  19
ATOM     19  C   UNL     1      -1.350  10.859  23.450  0.00  0.00    +0.000 C 
BRANCH  19  20
ATOM     20  C   UNL     1      -0.312   9.806  23.080  0.00  0.00    +0.000 C 
ATOM     21  F   UNL     1      -0.792   8.807  22.316  0.00  0.00    +0.000 F 
ATOM     22  F   UNL     1       0.713  10.384  22.399  0.00  0.00    +0.000 F 
ATOM     23  F   UNL     1       0.229   9.256  24.194  0.00  0.00    +0.000 F 
ENDBRANCH  19  20
ENDBRANCH  18  19
ENDBRANCH  17  18
ENDBRANCH   8  11
BRANCH   1  27
ATOM     24  C   UNL     1       2.583   6.723  19.219  0.00  0.00    +0.000 A 
ATOM     25  C   UNL     1       2.667   7.395  17.999  0.00  0.00    +0.000 A 
ATOM     26  C   UNL     1       2.102   8.667  17.830  0.00  0.00    +0.000 A 
ATOM     27  C   UNL     1       1.478   9.300  18.904  0.00  0.00    +0.000 A 
ATOM     28  C   UNL     1       1.449   8.662  20.148  0.00  0.00    +0.000 A 
ATOM     29  C   UNL     1       1.973   7.368  20.299  0.00  0.00    +0.000 A 
BRANCH  24  30
ATOM     30  O   UNL     1       3.050   5.451  19.469  0.00  0.00    +0.000 OA
BRANCH  30  31
ATOM     31  C   UNL     1       3.140   4.596  18.323  0.00  0.00    +0.000 C 
BRANCH  31  33
ATOM     32  C   UNL     1       1.243   3.451  19.571  0.00  0.00    +0.000 C 
ATOM     33  C   UNL     1       2.005   3.554  18.249  0.00  0.00    +0.000 C 
ATOM     34  C   UNL     1       2.528   2.181  17.824  0.00  0.00    +0.000 C 
BRANCH  33  35
ATOM     35  O   UNL     1       1.083   4.005  17.242  0.00  0.00    +0.000 OA
ATOM     36  H   UNL     1       0.669   4.824  17.557  0.00  0.00    +0.000 HD
ENDBRANCH  33  35
ENDBRANCH  31  33
ENDBRANCH  30  31
ENDBRANCH  24  30
ENDBRANCH   1  27
TORSDOF 9
ENDMDL
MODEL 8
REMARK VINA RESULT:      -8.3      1.294      1.924
REMARK  Name = 
REMARK  11 active torsions:
REMARK  status: ('A' for Active; 'I' for Inactive)
REMARK    1  A    between atoms: C_1  and  C_2
REMARK    2  A    between atoms: C_2  and  C_3
REMARK    3  A    between atoms: C_2  and  O_4
REMARK    4  A    between atoms: C_2  and  C_5
REMARK    5  A    between atoms: C_5  and  O_6
REMARK    6  A    between atoms: O_6  and  C_7
REMARK    7  A    between atoms: C_10  and  N_11
REMARK    8  A    between atoms: C_18  and  C_19
REMARK    9  A    between atoms: C_25  and  O_26
REMARK   10  A    between atoms: O_26  and  C_27
REMARK   11  A    between atoms: C_27  and  C_28
REMARK                            x       y       z     vdW  Elec       q    Type
REMARK                         _______ _______ _______ _____ _____    ______ ____
ROOT
ATOM      1  N   UNL     1       2.209   6.781  18.973  0.00  0.00    +0.000 N 
ATOM      2  C   UNL     1       3.167   6.486  17.923  0.00  0.00    +0.000 C 
ATOM      3  C   UNL     1       3.654   5.114  18.249  0.00  0.00    +0.000 A 
ATOM      4  C   UNL     1       3.032   4.678  19.412  0.00  0.00    +0.000 A 
ATOM      5  C   UNL     1       3.215   3.408  19.904  0.00  0.00    +0.000 A 
ATOM      6  C   UNL     1       4.097   2.623  19.178  0.00  0.00    +0.000 A 
ATOM      7  N   UNL     1       4.770   3.032  18.062  0.00  0.00    +0.000 NA
ATOM      8  C   UNL     1       4.550   4.282  17.583  0.00  0.00    +0.000 A 
ATOM      9  C   UNL     1       2.207   5.778  19.944  0.00  0.00    +0.000 C 
ATOM     10  O   UNL     1       1.651   5.750  21.023  0.00  0.00    +0.000 OA
ENDROOT
BRANCH   8  11
ATOM     11  C   UNL     1       5.257   4.710  16.341  0.00  0.00    +0.000 A 
ATOM     12  C   UNL     1       5.040   3.965  15.156  0.00  0.00    +0.000 A 
ATOM     13  C   UNL     1       5.875   4.048  14.041  0.00  0.00    +0.000 A 
ATOM     14  C   UNL     1       6.902   4.963  14.060  0.00  0.00    +0.000 A 
ATOM     15  F   UNL     1       7.733   5.045  13.013  0.00  0.00    +0.000 F 
ATOM     16  C   UNL     1       7.057   5.827  15.128  0.00  0.00    +0.000 A 
ATOM     17  C   UNL     1       6.213   5.756  16.253  0.00  0.00    +0.000 A 
BRANCH  17  18
ATOM     18  O   UNL     1       6.303   6.687  17.270  0.00  0.00    +0.000 OA
BRANCH  18  19
ATOM     19  C   UNL     1       7.558   6.668  17.986  0.00  0.00    +0.000 C 
BRANCH  19  20
ATOM     20  C   UNL     1       7.713   5.540  18.999  0.00  0.00    +0.000 C 
ATOM     21  F   UNL     1       6.624   5.335  19.762  0.00  0.00    +0.000 F 
ATOM     22  F   UNL     1       7.987   4.374  18.356  0.00  0.00    +0.000 F 
ATOM     23  F   UNL     1       8.762   5.780  19.823  0.00  0.00    +0.000 F 
ENDBRANCH  19  20
ENDBRANCH  18  19
ENDBRANCH  17  18
ENDBRANCH   8  11
BRANCH   1  27
ATOM     24  C   UNL     1       0.879  10.754  19.535  0.00  0.00    +0.000 A 
ATOM     25  C   UNL     1       1.256  10.303  18.269  0.00  0.00    +0.000 A 
ATOM     26  C   UNL     1       1.734   9.000  18.075  0.00  0.00    +0.000 A 
ATOM     27  C   UNL     1       1.802   8.115  19.150  0.00  0.00    +0.000 A 
ATOM     28  C   UNL     1       1.364   8.538  20.409  0.00  0.00    +0.000 A 
ATOM     29  C   UNL     1       0.931   9.858  20.608  0.00  0.00    +0.000 A 
BRANCH  24  30
ATOM     30  O   UNL     1       0.456  12.028  19.841  0.00  0.00    +0.000 OA
BRANCH  30  31
ATOM     31  C   UNL     1       0.416  12.340  21.239  0.00  0.00    +0.000 C 
BRANCH  31  33
ATOM     32  C   UNL     1      -1.443  11.927  22.925  0.00  0.00    +0.000 C 
ATOM     33  C   UNL     1      -0.984  12.764  21.730  0.00  0.00    +0.000 C 
ATOM     34  C   UNL     1      -2.017  12.702  20.604  0.00  0.00    +0.000 C 
BRANCH  33  35
ATOM     35  O   UNL     1      -0.884  14.132  22.160  0.00  0.00    +0.000 OA
ATOM     36  H   UNL     1      -0.870  14.143  23.130  0.00  0.00    +0.000 HD
ENDBRANCH  33  35
ENDBRANCH  31  33
ENDBRANCH  30  31
ENDBRANCH  24  30
ENDBRANCH   1  27
TORSDOF 9
ENDMDL
MODEL 9
REMARK VINA RESULT:      -8.3      4.871     10.339
REMARK  Name = 
REMARK  11 active torsions:
REMARK  status: ('A' for Active; 'I' for Inactive)
REMARK    1  A    between atoms: C_1  and  C_2
REMARK    2  A    between atoms: C_2  and  C_3
REMARK    3  A    between atoms: C_2  and  O_4
REMARK    4  A    between atoms: C_2  and  C_5
REMARK    5  A    between atoms: C_5  and  O_6
REMARK    6  A    between atoms: O_6  and  C_7
REMARK    7  A    between atoms: C_10  and  N_11
REMARK    8  A    between atoms: C_18  and  C_19
REMARK    9  A    between atoms: C_25  and  O_26
REMARK   10  A    between atoms: O_26  and  C_27
REMARK   11  A    between atoms: C_27  and  C_28
REMARK                            x       y       z     vdW  Elec       q    Type
REMARK                         _______ _______ _______ _____ _____    ______ ____
ROOT
ATOM      1  N   UNL     1       0.978  10.620  18.767  0.00  0.00    +0.000 N 
ATOM      2  C   UNL     1      -0.255  10.962  19.452  0.00  0.00    +0.000 C 
ATOM      3  C   UNL     1      -0.286  12.453  19.425  0.00  0.00    +0.000 A 
ATOM      4  C   UNL     1       0.860  12.918  18.791  0.00  0.00    +0.000 A 
ATOM      5  C   UNL     1       1.060  14.252  18.535  0.00  0.00    +0.000 A 
ATOM      6  C   UNL     1       0.058  15.091  18.998  0.00  0.00    +0.000 A 
ATOM      7  N   UNL     1      -1.055  14.680  19.674  0.00  0.00    +0.000 NA
ATOM      8  C   UNL     1      -1.241  13.354  19.889  0.00  0.00    +0.000 A 
ATOM      9  C   UNL     1       1.724  11.765  18.480  0.00  0.00    +0.000 C 
ATOM     10  O   UNL     1       2.855  11.860  18.050  0.00  0.00    +0.000 OA
ENDROOT
BRANCH   8  11
ATOM     11  C   UNL     1      -2.478  12.907  20.592  0.00  0.00    +0.000 A 
ATOM     12  C   UNL     1      -3.701  12.934  19.878  0.00  0.00    +0.000 A 
ATOM     13  C   UNL     1      -4.948  12.867  20.502  0.00  0.00    +0.000 A 
ATOM     14  C   UNL     1      -4.989  12.675  21.863  0.00  0.00    +0.000 A 
ATOM     15  F   UNL     1      -6.172  12.633  22.489  0.00  0.00    +0.000 F 
ATOM     16  C   UNL     1      -3.825  12.480  22.582  0.00  0.00    +0.000 A 
ATOM     17  C   UNL     1      -2.563  12.536  21.960  0.00  0.00    +0.000 A 
BRANCH  17  18
ATOM     18  O   UNL     1      -1.410  12.237  22.660  0.00  0.00    +0.000 OA
BRANCH  18  19
ATOM     19  C   UNL     1      -1.465  10.996  23.397  0.00  0.00    +0.000 C 
BRANCH  19  20
ATOM     20  C   UNL     1      -0.418   9.960  23.006  0.00  0.00    +0.000 C 
ATOM     21  F   UNL     1      -0.885   8.985  22.204  0.00  0.00    +0.000 F 
ATOM     22  F   UNL     1       0.612  10.564  22.357  0.00  0.00    +0.000 F 
ATOM     23  F   UNL     1       0.112   9.376  24.108  0.00  0.00    +0.000 F 
ENDBRANCH  19  20
ENDBRANCH  18  19
ENDBRANCH  17  18
ENDBRANCH   8  11
BRANCH   1  27
ATOM     24  C   UNL     1       2.387   6.648  19.091  0.00  0.00    +0.000 A 
ATOM     25  C   UNL     1       1.881   7.316  20.208  0.00  0.00    +0.000 A 
ATOM     26  C   UNL     1       1.445   8.645  20.122  0.00  0.00    +0.000 A 
ATOM     27  C   UNL     1       1.475   9.311  18.898  0.00  0.00    +0.000 A 
ATOM     28  C   UNL     1       1.918   8.628  17.761  0.00  0.00    +0.000 A 
ATOM     29  C   UNL     1       2.398   7.312  17.861  0.00  0.00    +0.000 A 
BRANCH  24  30
ATOM     30  O   UNL     1       2.895   5.367  19.083  0.00  0.00    +0.000 OA
BRANCH  30  31
ATOM     31  C   UNL     1       2.835   4.677  20.338  0.00  0.00    +0.000 C 
BRANCH  31  33
ATOM     32  C   UNL     1       2.013   2.618  21.583  0.00  0.00    +0.000 C 
ATOM     33  C   UNL     1       1.860   3.482  20.330  0.00  0.00    +0.000 C 
ATOM     34  C   UNL     1       2.023   2.631  19.070  0.00  0.00    +0.000 C 
BRANCH  33  35
ATOM     35  O   UNL     1       0.528   4.024  20.326  0.00  0.00    +0.000 OA
ATOM     36  H   UNL     1       0.565   4.917  20.703  0.00  0.00    +0.000 HD
ENDBRANCH  33  35
ENDBRANCH  31  33
ENDBRANCH  30  31
ENDBRANCH  24  30
ENDBRANCH   1  27
TORSDOF 9
ENDMDL
