MODEL 1
REMARK VINA RESULT:      -6.5      0.000      0.000
REMARK  Name = 
REMARK  5 active torsions:
REMARK  status: ('A' for Active; 'I' for Inactive)
REMARK    1  A    between atoms: C_1  and  C_2
REMARK    2  A    between atoms: C_2  and  C_3
REMARK    3  A    between atoms: C_5  and  C_6
REMARK    4  A    between atoms: C_8  and  C_9
REMARK    5  A    between atoms: C_11  and  C_12
REMARK                            x       y       z     vdW  Elec       q    Type
REMARK                         _______ _______ _______ _____ _____    ______ ____
ROOT
ATOM      1  C   UNL     1       6.969   5.587  17.055  0.00  0.00    +0.000 A 
ATOM      2  N   UNL     1       7.546   5.729  15.796  0.00  0.00    +0.000 NA
ATOM      3  C   UNL     1       6.971   4.919  14.937  0.00  0.00    +0.000 A 
ATOM      4  C   UNL     1       7.309   4.849  13.491  0.00  0.00    +0.000 C 
ATOM      5  S   UNL     1       5.744   3.915  15.584  0.00  0.00    +0.000 S 
ATOM      6  C   UNL     1       5.945   4.652  17.126  0.00  0.00    +0.000 A 
ENDROOT
BRANCH   6   7
ATOM      7  C   UNL     1       5.116   4.305  18.241  0.00  0.00    +0.000 A 
ATOM      8  N   UNL     1       4.075   4.978  18.687  0.00  0.00    +0.000 NA
ATOM      9  C   UNL     1       3.608   4.203  19.718  0.00  0.00    +0.000 A 
ATOM     10  C   UNL     1       2.410   4.558  20.504  0.00  0.00    +0.000 C 
ATOM     11  N   UNL     1       4.311   3.088  19.945  0.00  0.00    +0.000 NA
ATOM     12  N   UNL     1       5.261   3.179  19.001  0.00  0.00    +0.000 N 
ATOM     13  H   UNL     1       5.956   2.447  18.915  0.00  0.00    +0.000 HD
ENDBRANCH   6   7
BRANCH   1  15
ATOM     14  C   UNL     1       7.769   7.880  17.654  0.00  0.00    +0.000 C 
ATOM     15  C   UNL     1       7.491   6.469  18.147  0.00  0.00    +0.000 C 
ENDBRANCH   1  15
TORSDOF 2
ENDMDL
MODEL 2
REMARK VINA RESULT:      -6.5      1.409      5.026
REMARK  Name = 
REMARK  5 active torsions:
REMARK  status: ('A' for Active; 'I' for Inactive)
REMARK    1  A    between atoms: C_1  and  C_2
REMARK    2  A    between atoms: C_2  and  C_3
REMARK    3  A    between atoms: C_5  and  C_6
REMARK    4  A    between atoms: C_8  and  C_9
REMARK    5  A    between atoms: C_11  and  C_12
REMARK                            x       y       z     vdW  Elec       q    Type
REMARK                         _______ _______ _______ _____ _____    ______ ____
ROOT
ATOM      1  C   UNL     1       6.440   4.650  18.164  0.00  0.00    +0.000 A 
ATOM      2  N   UNL     1       5.646   4.372  19.273  0.00  0.00    +0.000 NA
ATOM      3  C   UNL     1       4.474   3.919  18.893  0.00  0.00    +0.000 A 
ATOM      4  C   UNL     1       3.402   3.478  19.823  0.00  0.00    +0.000 C 
ATOM      5  S   UNL     1       4.233   3.837  17.200  0.00  0.00    +0.000 S 
ATOM      6  C   UNL     1       5.839   4.396  16.937  0.00  0.00    +0.000 A 
ENDROOT
BRANCH   6   7
ATOM      7  C   UNL     1       6.390   4.518  15.621  0.00  0.00    +0.000 A 
ATOM      8  N   UNL     1       6.108   3.765  14.577  0.00  0.00    +0.000 NA
ATOM      9  C   UNL     1       6.847   4.326  13.567  0.00  0.00    +0.000 A 
ATOM     10  C   UNL     1       6.817   3.820  12.181  0.00  0.00    +0.000 C 
ATOM     11  N   UNL     1       7.584   5.383  13.930  0.00  0.00    +0.000 NA
ATOM     12  N   UNL     1       7.279   5.479  15.234  0.00  0.00    +0.000 N 
ATOM     13  H   UNL     1       7.689   6.220  15.792  0.00  0.00    +0.000 HD
ENDBRANCH   6   7
BRANCH   1  15
ATOM     14  C   UNL     1       7.874   6.659  18.571  0.00  0.00    +0.000 C 
ATOM     15  C   UNL     1       7.828   5.146  18.426  0.00  0.00    +0.000 C 
ENDBRANCH   1  15
TORSDOF 2
ENDMDL
MODEL 3
REMARK VINA RESULT:      -6.3      2.206      5.279
REMARK  Name = 
REMARK  5 active torsions:
REMARK  status: ('A' for Active; 'I' for Inactive)
REMARK    1  A    between atoms: C_1  and  C_2
REMARK    2  A    between atoms: C_2  and  C_3
REMARK    3  A    between atoms: C_5  and  C_6
REMARK    4  A    between atoms: C_8  and  C_9
REMARK    5  A    between atoms: C_11  and  C_12
REMARK                            x       y       z     vdW  Elec       q    Type
REMARK                         _______ _______ _______ _____ _____    ______ ____
ROOT
ATOM      1  C   UNL     1       3.436   5.268  18.885  0.00  0.00    +0.000 A 
ATOM      2  N   UNL     1       2.543   4.925  19.897  0.00  0.00    +0.000 NA
ATOM      3  C   UNL     1       2.834   3.738  20.378  0.00  0.00    +0.000 A 
ATOM      4  C   UNL     1       2.112   3.089  21.504  0.00  0.00    +0.000 C 
ATOM      5  S   UNL     1       4.155   2.946  19.631  0.00  0.00    +0.000 S 
ATOM      6  C   UNL     1       4.408   4.313  18.615  0.00  0.00    +0.000 A 
ENDROOT
BRANCH   6   7
ATOM      7  C   UNL     1       5.497   4.371  17.687  0.00  0.00    +0.000 A 
ATOM      8  N   UNL     1       5.412   4.513  16.381  0.00  0.00    +0.000 NA
ATOM      9  C   UNL     1       6.721   4.567  15.976  0.00  0.00    +0.000 A 
ATOM     10  C   UNL     1       7.114   4.756  14.566  0.00  0.00    +0.000 C 
ATOM     11  N   UNL     1       7.619   4.452  16.962  0.00  0.00    +0.000 NA
ATOM     12  N   UNL     1       6.818   4.325  18.033  0.00  0.00    +0.000 N 
ATOM     13  H   UNL     1       7.225   4.231  18.956  0.00  0.00    +0.000 HD
ENDBRANCH   6   7
BRANCH   1  15
ATOM     14  C   UNL     1       2.357   7.517  19.071  0.00  0.00    +0.000 C 
ATOM     15  C   UNL     1       3.263   6.612  18.250  0.00  0.00    +0.000 C 
ENDBRANCH   1  15
TORSDOF 2
ENDMDL
MODEL 4
REMARK VINA RESULT:      -6.2      1.914      3.050
REMARK  Name = 
REMARK  5 active torsions:
REMARK  status: ('A' for Active; 'I' for Inactive)
REMARK    1  A    between atoms: C_1  and  C_2
REMARK    2  A    between atoms: C_2  and  C_3
REMARK    3  A    between atoms: C_5  and  C_6
REMARK    4  A    between atoms: C_8  and  C_9
REMARK    5  A    between atoms: C_11  and  C_12
REMARK                            x       y       z     vdW  Elec       q    Type
REMARK                         _______ _______ _______ _____ _____    ______ ____
ROOT
ATOM      1  C   UNL     1       5.581   5.046  16.159  0.00  0.00    +0.000 A 
ATOM      2  N   UNL     1       6.548   6.047  16.150  0.00  0.00    +0.000 NA
ATOM      3  C   UNL     1       6.762   6.485  17.369  0.00  0.00    +0.000 A 
ATOM      4  C   UNL     1       7.769   7.519  17.725  0.00  0.00    +0.000 C 
ATOM      5  S   UNL     1       5.800   5.764  18.588  0.00  0.00    +0.000 S 
ATOM      6  C   UNL     1       5.070   4.738  17.413  0.00  0.00    +0.000 A 
ENDROOT
BRANCH   6   7
ATOM      7  C   UNL     1       4.117   3.733  17.778  0.00  0.00    +0.000 A 
ATOM      8  N   UNL     1       2.864   3.929  18.134  0.00  0.00    +0.000 NA
ATOM      9  C   UNL     1       2.380   2.660  18.320  0.00  0.00    +0.000 A 
ATOM     10  C   UNL     1       0.980   2.387  18.701  0.00  0.00    +0.000 C 
ATOM     11  N   UNL     1       3.270   1.682  18.111  0.00  0.00    +0.000 NA
ATOM     12  N   UNL     1       4.361   2.389  17.774  0.00  0.00    +0.000 N 
ATOM     13  H   UNL     1       5.220   1.906  17.538  0.00  0.00    +0.000 HD
ENDBRANCH   6   7
BRANCH   1  15
ATOM     14  C   UNL     1       6.487   4.067  14.043  0.00  0.00    +0.000 C 
ATOM     15  C   UNL     1       5.242   4.413  14.845  0.00  0.00    +0.000 C 
ENDBRANCH   1  15
TORSDOF 2
ENDMDL
MODEL 5
REMARK VINA RESULT:      -6.1      0.998      1.116
REMARK  Name = 
REMARK  5 active torsions:
REMARK  status: ('A' for Active; 'I' for Inactive)
REMARK    1  A    between atoms: C_1  and  C_2
REMARK    2  A    between atoms: C_2  and  C_3
REMARK    3  A    between atoms: C_5  and  C_6
REMARK    4  A    between atoms: C_8  and  C_9
REMARK    5  A    between atoms: C_11  and  C_12
REMARK                            x       y       z     vdW  Elec       q    Type
REMARK                         _______ _______ _______ _____ _____    ______ ____
ROOT
ATOM      1  C   UNL     1       6.736   5.615  16.610  0.00  0.00    +0.000 A 
ATOM      2  N   UNL     1       7.501   5.812  15.464  0.00  0.00    +0.000 NA
ATOM      3  C   UNL     1       7.108   5.000  14.509  0.00  0.00    +0.000 A 
ATOM      4  C   UNL     1       7.677   4.981  13.136  0.00  0.00    +0.000 C 
ATOM      5  S   UNL     1       5.838   3.931  14.930  0.00  0.00    +0.000 S 
ATOM      6  C   UNL     1       5.756   4.636  16.498  0.00  0.00    +0.000 A 
ENDROOT
BRANCH   6   7
ATOM      7  C   UNL     1       4.775   4.229  17.458  0.00  0.00    +0.000 A 
ATOM      8  N   UNL     1       3.495   4.541  17.457  0.00  0.00    +0.000 NA
ATOM      9  C   UNL     1       2.996   3.861  18.538  0.00  0.00    +0.000 A 
ATOM     10  C   UNL     1       1.569   3.892  18.912  0.00  0.00    +0.000 C 
ATOM     11  N   UNL     1       3.902   3.150  19.221  0.00  0.00    +0.000 NA
ATOM     12  N   UNL     1       5.018   3.404  18.519  0.00  0.00    +0.000 N 
ATOM     13  H   UNL     1       5.894   2.978  18.798  0.00  0.00    +0.000 HD
ENDBRANCH   6   7
BRANCH   1  15
ATOM     14  C   UNL     1       7.822   5.751  18.860  0.00  0.00    +0.000 C 
ATOM     15  C   UNL     1       7.035   6.489  17.788  0.00  0.00    +0.000 C 
ENDBRANCH   1  15
TORSDOF 2
ENDMDL
MODEL 6
REMARK VINA RESULT:      -6.0      2.354      5.220
REMARK  Name = 
REMARK  5 active torsions:
REMARK  status: ('A' for Active; 'I' for Inactive)
REMARK    1  A    between atoms: C_1  and  C_2
REMARK    2  A    between atoms: C_2  and  C_3
REMARK    3  A    between atoms: C_5  and  C_6
REMARK    4  A    between atoms: C_8  and  C_9
REMARK    5  A    between atoms: C_11  and  C_12
REMARK                            x       y       z     vdW  Elec       q    Type
REMARK                         _______ _______ _______ _____ _____    ______ ____
ROOT
ATOM      1  C   UNL     1       3.282   5.494  18.082  0.00  0.00    +0.000 A 
ATOM      2  N   UNL     1       2.222   5.149  18.917  0.00  0.00    +0.000 NA
ATOM      3  C   UNL     1       2.156   3.844  19.052  0.00  0.00    +0.000 A 
ATOM      4  C   UNL     1       1.172   3.138  19.915  0.00  0.00    +0.000 C 
ATOM      5  S   UNL     1       3.319   2.954  18.166  0.00  0.00    +0.000 S 
ATOM      6  C   UNL     1       4.014   4.421  17.593  0.00  0.00    +0.000 A 
ENDROOT
BRANCH   6   7
ATOM      7  C   UNL     1       5.183   4.428  16.766  0.00  0.00    +0.000 A 
ATOM      8  N   UNL     1       5.220   4.536  15.454  0.00  0.00    +0.000 NA
ATOM      9  C   UNL     1       6.561   4.548  15.169  0.00  0.00    +0.000 A 
ATOM     10  C   UNL     1       7.084   4.689  13.796  0.00  0.00    +0.000 C 
ATOM     11  N   UNL     1       7.363   4.441  16.235  0.00  0.00    +0.000 NA
ATOM     12  N   UNL     1       6.466   4.362  17.231  0.00  0.00    +0.000 N 
ATOM     13  H   UNL     1       6.786   4.284  18.189  0.00  0.00    +0.000 HD
ENDBRANCH   6   7
BRANCH   1  15
ATOM     14  C   UNL     1       2.297   7.791  18.200  0.00  0.00    +0.000 C 
ATOM     15  C   UNL     1       3.518   6.954  17.850  0.00  0.00    +0.000 C 
ENDBRANCH   1  15
TORSDOF 2
ENDMDL
MODEL 7
REMARK VINA RESULT:      -6.0      2.376      4.999
REMARK  Name = 
REMARK  5 active torsions:
REMARK  status: ('A' for Active; 'I' for Inactive)
REMARK    1  A    between atoms: C_1  and  C_2
REMARK    2  A    between atoms: C_2  and  C_3
REMARK    3  A    between atoms: C_5  and  C_6
REMARK    4  A    between atoms: C_8  and  C_9
REMARK    5  A    between atoms: C_11  and  C_12
REMARK                            x       y       z     vdW  Elec       q    Type
REMARK                         _______ _______ _______ _____ _____    ______ ____
ROOT
ATOM      1  C   UNL     1       2.730   5.193  19.019  0.00  0.00    +0.000 A 
ATOM      2  N   UNL     1       1.548   4.461  19.102  0.00  0.00    +0.000 NA
ATOM      3  C   UNL     1       1.757   3.217  18.738  0.00  0.00    +0.000 A 
ATOM      4  C   UNL     1       0.720   2.152  18.756  0.00  0.00    +0.000 C 
ATOM      5  S   UNL     1       3.354   2.856  18.239  0.00  0.00    +0.000 S 
ATOM      6  C   UNL     1       3.835   4.472  18.585  0.00  0.00    +0.000 A 
ENDROOT
BRANCH   6   7
ATOM      7  C   UNL     1       5.193   4.901  18.444  0.00  0.00    +0.000 A 
ATOM      8  N   UNL     1       5.607   6.102  18.097  0.00  0.00    +0.000 NA
ATOM      9  C   UNL     1       6.974   6.004  18.166  0.00  0.00    +0.000 A 
ATOM     10  C   UNL     1       7.871   7.142  17.886  0.00  0.00    +0.000 C 
ATOM     11  N   UNL     1       7.433   4.800  18.525  0.00  0.00    +0.000 NA
ATOM     12  N   UNL     1       6.287   4.121  18.691  0.00  0.00    +0.000 N 
ATOM     13  H   UNL     1       6.315   3.151  18.985  0.00  0.00    +0.000 HD
ENDBRANCH   6   7
BRANCH   1  15
ATOM     14  C   UNL     1       2.377   7.550  18.259  0.00  0.00    +0.000 C 
ATOM     15  C   UNL     1       2.672   6.631  19.434  0.00  0.00    +0.000 C 
ENDBRANCH   1  15
TORSDOF 2
ENDMDL
MODEL 8
REMARK VINA RESULT:      -5.9      0.932      1.329
REMARK  Name = 
REMARK  5 active torsions:
REMARK  status: ('A' for Active; 'I' for Inactive)
REMARK    1  A    between atoms: C_1  and  C_2
REMARK    2  A    between atoms: C_2  and  C_3
REMARK    3  A    between atoms: C_5  and  C_6
REMARK    4  A    between atoms: C_8  and  C_9
REMARK    5  A    between atoms: C_11  and  C_12
REMARK                            x       y       z     vdW  Elec       q    Type
REMARK                         _______ _______ _______ _____ _____    ______ ____
ROOT
ATOM      1  C   UNL     1       6.941   4.847  17.339  0.00  0.00    +0.000 A 
ATOM      2  N   UNL     1       7.568   4.890  16.096  0.00  0.00    +0.000 NA
ATOM      3  C   UNL     1       6.722   4.560  15.148  0.00  0.00    +0.000 A 
ATOM      4  C   UNL     1       7.048   4.551  13.697  0.00  0.00    +0.000 C 
ATOM      5  S   UNL     1       5.149   4.141  15.679  0.00  0.00    +0.000 S 
ATOM      6  C   UNL     1       5.603   4.478  17.305  0.00  0.00    +0.000 A 
ENDROOT
BRANCH   6   7
ATOM      7  C   UNL     1       4.664   4.391  18.383  0.00  0.00    +0.000 A 
ATOM      8  N   UNL     1       4.225   3.290  18.958  0.00  0.00    +0.000 NA
ATOM      9  C   UNL     1       3.403   3.752  19.954  0.00  0.00    +0.000 A 
ATOM     10  C   UNL     1       2.704   2.853  20.893  0.00  0.00    +0.000 C 
ATOM     11  N   UNL     1       3.297   5.084  20.021  0.00  0.00    +0.000 NA
ATOM     12  N   UNL     1       4.100   5.463  19.014  0.00  0.00    +0.000 N 
ATOM     13  H   UNL     1       4.235   6.449  18.823  0.00  0.00    +0.000 HD
ENDBRANCH   6   7
BRANCH   1  15
ATOM     14  C   UNL     1       7.953   6.736  18.629  0.00  0.00    +0.000 C 
ATOM     15  C   UNL     1       7.763   5.230  18.530  0.00  0.00    +0.000 C 
ENDBRANCH   1  15
TORSDOF 2
ENDMDL
MODEL 9
REMARK VINA RESULT:      -5.9      1.505      2.056
REMARK  Name = 
REMARK  5 active torsions:
REMARK  status: ('A' for Active; 'I' for Inactive)
REMARK    1  A    between atoms: C_1  and  C_2
REMARK    2  A    between atoms: C_2  and  C_3
REMARK    3  A    between atoms: C_5  and  C_6
REMARK    4  A    between atoms: C_8  and  C_9
REMARK    5  A    between atoms: C_11  and  C_12
REMARK                            x       y       z     vdW  Elec       q    Type
REMARK                         _______ _______ _______ _____ _____    ______ ____
ROOT
ATOM      1  C   UNL     1       6.028   4.789  18.242  0.00  0.00    +0.000 A 
ATOM      2  N   UNL     1       6.687   4.748  17.016  0.00  0.00    +0.000 NA
ATOM      3  C   UNL     1       5.905   4.235  16.095  0.00  0.00    +0.000 A 
ATOM      4  C   UNL     1       6.276   4.091  14.663  0.00  0.00    +0.000 C 
ATOM      5  S   UNL     1       4.361   3.734  16.639  0.00  0.00    +0.000 S 
ATOM      6  C   UNL     1       4.730   4.295  18.224  0.00  0.00    +0.000 A 
ENDROOT
BRANCH   6   7
ATOM      7  C   UNL     1       3.769   4.244  19.285  0.00  0.00    +0.000 A 
ATOM      8  N   UNL     1       3.218   3.163  19.795  0.00  0.00    +0.000 NA
ATOM      9  C   UNL     1       2.427   3.651  20.805  0.00  0.00    +0.000 A 
ATOM     10  C   UNL     1       1.630   2.777  21.687  0.00  0.00    +0.000 C 
ATOM     11  N   UNL     1       2.448   4.982  20.941  0.00  0.00    +0.000 NA
ATOM     12  N   UNL     1       3.301   5.332  19.965  0.00  0.00    +0.000 N 
ATOM     13  H   UNL     1       3.533   6.309  19.828  0.00  0.00    +0.000 HD
ENDBRANCH   6   7
BRANCH   1  15
ATOM     14  C   UNL     1       7.927   6.260  18.940  0.00  0.00    +0.000 C 
ATOM     15  C   UNL     1       6.773   5.382  19.397  0.00  0.00    +0.000 C 
ENDBRANCH   1  15
TORSDOF 2
ENDMDL
