MODEL 1
REMARK VINA RESULT:      -4.2      0.000      0.000
REMARK  Name = 
REMARK  11 active torsions:
REMARK  status: ('A' for Active; 'I' for Inactive)
REMARK    1  A    between atoms: C_1  and  C_2
REMARK    2  A    between atoms: C_2  and  O_3
REMARK    3  A    between atoms: O_3  and  C_4
REMARK    4  A    between atoms: C_4  and  C_5
REMARK    5  A    between atoms: C_5  and  O_6
REMARK    6  A    between atoms: O_6  and  C_7
REMARK    7  A    between atoms: C_7  and  C_8
REMARK    8  A    between atoms: C_8  and  O_9
REMARK    9  A    between atoms: O_9  and  C_10
REMARK   10  A    between atoms: C_10  and  C_11
REMARK   11  A    between atoms: C_11  and  O_12
REMARK                            x       y       z     vdW  Elec       q    Type
REMARK                         _______ _______ _______ _____ _____    ______ ____
ROOT
ATOM      1  C   UNL     1       4.292   5.723  18.091  0.00  0.00    +0.000 C 
ENDROOT
BRANCH   1   2
ATOM      2  O   UNL     1       3.113   5.152  17.524  0.00  0.00    +0.000 OA
BRANCH   2   3
ATOM      3  C   UNL     1       2.129   4.883  18.524  0.00  0.00    +0.000 C 
BRANCH   3   4
ATOM      4  C   UNL     1       1.484   3.529  18.241  0.00  0.00    +0.000 C 
BRANCH   4   5
ATOM      5  O   UNL     1       0.740   3.108  19.384  0.00  0.00    +0.000 OA
BRANCH   5   7
ATOM      6  C   UNL     1       1.571   2.724  21.588  0.00  0.00    +0.000 C 
ATOM      7  C   UNL     1       1.177   3.771  20.568  0.00  0.00    +0.000 C 
ENDBRANCH   5   7
ENDBRANCH   4   5
ENDBRANCH   3   4
ENDBRANCH   2   3
ENDBRANCH   1   2
BRANCH   1   8
ATOM      8  C   UNL     1       4.466   5.201  19.512  0.00  0.00    +0.000 C 
BRANCH   8   9
ATOM      9  O   UNL     1       5.832   4.840  19.732  0.00  0.00    +0.000 OA
BRANCH   9  10
ATOM     10  C   UNL     1       6.662   5.294  18.654  0.00  0.00    +0.000 C 
BRANCH  10  11
ATOM     11  C   UNL     1       7.967   5.831  19.233  0.00  0.00    +0.000 C 
BRANCH  11  12
ATOM     12  O   UNL     1       8.102   5.437  20.597  0.00  0.00    +0.000 OA
ATOM     13  H   UNL     1       7.215   5.562  20.988  0.00  0.00    +0.000 HD
ENDBRANCH  11  12
ENDBRANCH  10  11
ENDBRANCH   9  10
ENDBRANCH   8   9
ENDBRANCH   1   8
TORSDOF 10
ENDMDL
MODEL 2
REMARK VINA RESULT:      -4.2      1.852      2.289
REMARK  Name = 
REMARK  11 active torsions:
REMARK  status: ('A' for Active; 'I' for Inactive)
REMARK    1  A    between atoms: C_1  and  C_2
REMARK    2  A    between atoms: C_2  and  O_3
REMARK    3  A    between atoms: O_3  and  C_4
REMARK    4  A    between atoms: C_4  and  C_5
REMARK    5  A    between atoms: C_5  and  O_6
REMARK    6  A    between atoms: O_6  and  C_7
REMARK    7  A    between atoms: C_7  and  C_8
REMARK    8  A    between atoms: C_8  and  O_9
REMARK    9  A    between atoms: O_9  and  C_10
REMARK   10  A    between atoms: C_10  and  C_11
REMARK   11  A    between atoms: C_11  and  O_12
REMARK                            x       y       z     vdW  Elec       q    Type
REMARK                         _______ _______ _______ _____ _____    ______ ____
ROOT
ATOM      1  C   UNL     1       1.765   4.978  18.054  0.00  0.00    +0.000 C 
ENDROOT
BRANCH   1   2
ATOM      2  O   UNL     1       1.494   3.778  17.329  0.00  0.00    +0.000 OA
BRANCH   2   3
ATOM      3  C   UNL     1       2.409   2.738  17.677  0.00  0.00    +0.000 C 
BRANCH   3   4
ATOM      4  C   UNL     1       2.009   2.148  19.025  0.00  0.00    +0.000 C 
BRANCH   4   5
ATOM      5  O   UNL     1       3.098   2.268  19.940  0.00  0.00    +0.000 OA
BRANCH   5   7
ATOM      6  C   UNL     1       1.181   2.827  21.247  0.00  0.00    +0.000 C 
ATOM      7  C   UNL     1       2.692   2.884  21.160  0.00  0.00    +0.000 C 
ENDBRANCH   5   7
ENDBRANCH   4   5
ENDBRANCH   3   4
ENDBRANCH   2   3
ENDBRANCH   1   2
BRANCH   1   8
ATOM      8  C   UNL     1       3.240   5.331  17.903  0.00  0.00    +0.000 C 
BRANCH   8   9
ATOM      9  O   UNL     1       3.836   5.484  19.194  0.00  0.00    +0.000 OA
BRANCH   9  10
ATOM     10  C   UNL     1       5.266   5.527  19.096  0.00  0.00    +0.000 C 
BRANCH  10  11
ATOM     11  C   UNL     1       5.742   4.288  18.343  0.00  0.00    +0.000 C 
BRANCH  11  12
ATOM     12  O   UNL     1       5.582   3.126  19.152  0.00  0.00    +0.000 OA
ATOM     13  H   UNL     1       6.428   2.642  19.076  0.00  0.00    +0.000 HD
ENDBRANCH  11  12
ENDBRANCH  10  11
ENDBRANCH   9  10
ENDBRANCH   8   9
ENDBRANCH   1   8
TORSDOF 10
ENDMDL
MODEL 3
REMARK VINA RESULT:      -4.1      2.165      5.884
REMARK  Name = 
REMARK  11 active torsions:
REMARK  status: ('A' for Active; 'I' for Inactive)
REMARK    1  A    between atoms: C_1  and  C_2
REMARK    2  A    between atoms: C_2  and  O_3
REMARK    3  A    between atoms: O_3  and  C_4
REMARK    4  A    between atoms: C_4  and  C_5
REMARK    5  A    between atoms: C_5  and  O_6
REMARK    6  A    between atoms: O_6  and  C_7
REMARK    7  A    between atoms: C_7  and  C_8
REMARK    8  A    between atoms: C_8  and  O_9
REMARK    9  A    between atoms: O_9  and  C_10
REMARK   10  A    between atoms: C_10  and  C_11
REMARK   11  A    between atoms: C_11  and  O_12
REMARK                            x       y       z     vdW  Elec       q    Type
REMARK                         _______ _______ _______ _____ _____    ______ ____
ROOT
ATOM      1  C   UNL     1       4.597   4.952  19.386  0.00  0.00    +0.000 C 
ENDROOT
BRANCH   1   2
ATOM      2  O   UNL     1       6.010   5.062  19.565  0.00  0.00    +0.000 OA
BRANCH   2   3
ATOM      3  C   UNL     1       6.648   5.568  18.391  0.00  0.00    +0.000 C 
BRANCH   3   4
ATOM      4  C   UNL     1       7.801   4.645  18.011  0.00  0.00    +0.000 C 
BRANCH   4   5
ATOM      5  O   UNL     1       7.808   4.448  16.597  0.00  0.00    +0.000 OA
BRANCH   5   7
ATOM      6  C   UNL     1       6.223   4.096  14.849  0.00  0.00    +0.000 C 
ATOM      7  C   UNL     1       6.647   5.003  15.985  0.00  0.00    +0.000 C 
ENDBRANCH   5   7
ENDBRANCH   4   5
ENDBRANCH   3   4
ENDBRANCH   2   3
ENDBRANCH   1   2
BRANCH   1   8
ATOM      8  C   UNL     1       4.264   3.547  18.898  0.00  0.00    +0.000 C 
BRANCH   8   9
ATOM      9  O   UNL     1       3.446   2.880  19.863  0.00  0.00    +0.000 OA
BRANCH   9  10
ATOM     10  C   UNL     1       2.379   2.166  19.224  0.00  0.00    +0.000 C 
BRANCH  10  11
ATOM     11  C   UNL     1       1.163   3.083  19.133  0.00  0.00    +0.000 C 
BRANCH  11  12
ATOM     12  O   UNL     1       0.529   3.190  20.405  0.00  0.00    +0.000 OA
ATOM     13  H   UNL     1       0.588   2.297  20.797  0.00  0.00    +0.000 HD
ENDBRANCH  11  12
ENDBRANCH  10  11
ENDBRANCH   9  10
ENDBRANCH   8   9
ENDBRANCH   1   8
TORSDOF 10
ENDMDL
MODEL 4
REMARK VINA RESULT:      -4.0      2.230      5.030
REMARK  Name = 
REMARK  11 active torsions:
REMARK  status: ('A' for Active; 'I' for Inactive)
REMARK    1  A    between atoms: C_1  and  C_2
REMARK    2  A    between atoms: C_2  and  O_3
REMARK    3  A    between atoms: O_3  and  C_4
REMARK    4  A    between atoms: C_4  and  C_5
REMARK    5  A    between atoms: C_5  and  O_6
REMARK    6  A    between atoms: O_6  and  C_7
REMARK    7  A    between atoms: C_7  and  C_8
REMARK    8  A    between atoms: C_8  and  O_9
REMARK    9  A    between atoms: O_9  and  C_10
REMARK   10  A    between atoms: C_10  and  C_11
REMARK   11  A    between atoms: C_11  and  O_12
REMARK                            x       y       z     vdW  Elec       q    Type
REMARK                         _______ _______ _______ _____ _____    ______ ____
ROOT
ATOM      1  C   UNL     1       2.647   5.297  18.131  0.00  0.00    +0.000 C 
ENDROOT
BRANCH   1   2
ATOM      2  O   UNL     1       3.788   5.207  17.279  0.00  0.00    +0.000 OA
BRANCH   2   3
ATOM      3  C   UNL     1       4.493   6.448  17.214  0.00  0.00    +0.000 C 
BRANCH   3   4
ATOM      4  C   UNL     1       5.993   6.175  17.241  0.00  0.00    +0.000 C 
BRANCH   4   5
ATOM      5  O   UNL     1       6.234   4.803  16.929  0.00  0.00    +0.000 OA
BRANCH   5   7
ATOM      6  C   UNL     1       6.122   3.966  14.697  0.00  0.00    +0.000 C 
ATOM      7  C   UNL     1       6.987   4.663  15.727  0.00  0.00    +0.000 C 
ENDBRANCH   5   7
ENDBRANCH   4   5
ENDBRANCH   3   4
ENDBRANCH   2   3
ENDBRANCH   1   2
BRANCH   1   8
ATOM      8  C   UNL     1       1.791   4.048  17.956  0.00  0.00    +0.000 C 
BRANCH   8   9
ATOM      9  O   UNL     1       2.034   3.140  19.033  0.00  0.00    +0.000 OA
BRANCH   9  10
ATOM     10  C   UNL     1       3.007   2.154  18.663  0.00  0.00    +0.000 C 
BRANCH  10  11
ATOM     11  C   UNL     1       4.184   2.241  19.630  0.00  0.00    +0.000 C 
BRANCH  11  12
ATOM     12  O   UNL     1       5.175   3.131  19.124  0.00  0.00    +0.000 OA
ATOM     13  H   UNL     1       4.678   3.827  18.651  0.00  0.00    +0.000 HD
ENDBRANCH  11  12
ENDBRANCH  10  11
ENDBRANCH   9  10
ENDBRANCH   8   9
ENDBRANCH   1   8
TORSDOF 10
ENDMDL
MODEL 5
REMARK VINA RESULT:      -4.0      2.321      5.993
REMARK  Name = 
REMARK  11 active torsions:
REMARK  status: ('A' for Active; 'I' for Inactive)
REMARK    1  A    between atoms: C_1  and  C_2
REMARK    2  A    between atoms: C_2  and  O_3
REMARK    3  A    between atoms: O_3  and  C_4
REMARK    4  A    between atoms: C_4  and  C_5
REMARK    5  A    between atoms: C_5  and  O_6
REMARK    6  A    between atoms: O_6  and  C_7
REMARK    7  A    between atoms: C_7  and  C_8
REMARK    8  A    between atoms: C_8  and  O_9
REMARK    9  A    between atoms: O_9  and  C_10
REMARK   10  A    between atoms: C_10  and  C_11
REMARK   11  A    between atoms: C_11  and  O_12
REMARK                            x       y       z     vdW  Elec       q    Type
REMARK                         _______ _______ _______ _____ _____    ______ ____
ROOT
ATOM      1  C   UNL     1       4.868   5.010  19.171  0.00  0.00    +0.000 C 
ENDROOT
BRANCH   1   2
ATOM      2  O   UNL     1       6.285   4.955  19.342  0.00  0.00    +0.000 OA
BRANCH   2   3
ATOM      3  C   UNL     1       6.955   4.758  18.096  0.00  0.00    +0.000 C 
BRANCH   3   4
ATOM      4  C   UNL     1       7.249   6.115  17.465  0.00  0.00    +0.000 C 
BRANCH   4   5
ATOM      5  O   UNL     1       7.450   5.954  16.061  0.00  0.00    +0.000 OA
BRANCH   5   7
ATOM      6  C   UNL     1       6.801   4.758  14.100  0.00  0.00    +0.000 C 
ATOM      7  C   UNL     1       6.971   4.692  15.604  0.00  0.00    +0.000 C 
ENDBRANCH   5   7
ENDBRANCH   4   5
ENDBRANCH   3   4
ENDBRANCH   2   3
ENDBRANCH   1   2
BRANCH   1   8
ATOM      8  C   UNL     1       4.405   3.762  18.429  0.00  0.00    +0.000 C 
BRANCH   8   9
ATOM      9  O   UNL     1       3.088   3.406  18.856  0.00  0.00    +0.000 OA
BRANCH   9  10
ATOM     10  C   UNL     1       2.882   3.760  20.231  0.00  0.00    +0.000 C 
BRANCH  10  11
ATOM     11  C   UNL     1       1.468   4.310  20.388  0.00  0.00    +0.000 C 
BRANCH  11  12
ATOM     12  O   UNL     1       0.526   3.243  20.445  0.00  0.00    +0.000 OA
ATOM     13  H   UNL     1       0.819   2.681  21.189  0.00  0.00    +0.000 HD
ENDBRANCH  11  12
ENDBRANCH  10  11
ENDBRANCH   9  10
ENDBRANCH   8   9
ENDBRANCH   1   8
TORSDOF 10
ENDMDL
MODEL 6
REMARK VINA RESULT:      -4.0      2.087      2.330
REMARK  Name = 
REMARK  11 active torsions:
REMARK  status: ('A' for Active; 'I' for Inactive)
REMARK    1  A    between atoms: C_1  and  C_2
REMARK    2  A    between atoms: C_2  and  O_3
REMARK    3  A    between atoms: O_3  and  C_4
REMARK    4  A    between atoms: C_4  and  C_5
REMARK    5  A    between atoms: C_5  and  O_6
REMARK    6  A    between atoms: O_6  and  C_7
REMARK    7  A    between atoms: C_7  and  C_8
REMARK    8  A    between atoms: C_8  and  O_9
REMARK    9  A    between atoms: O_9  and  C_10
REMARK   10  A    between atoms: C_10  and  C_11
REMARK   11  A    between atoms: C_11  and  O_12
REMARK                            x       y       z     vdW  Elec       q    Type
REMARK                         _______ _______ _______ _____ _____    ______ ____
ROOT
ATOM      1  C   UNL     1       5.237   4.350  16.112  0.00  0.00    +0.000 C 
ENDROOT
BRANCH   1   2
ATOM      2  O   UNL     1       4.159   4.526  17.031  0.00  0.00    +0.000 OA
BRANCH   2   3
ATOM      3  C   UNL     1       3.677   3.273  17.519  0.00  0.00    +0.000 C 
BRANCH   3   4
ATOM      4  C   UNL     1       4.135   3.088  18.963  0.00  0.00    +0.000 C 
BRANCH   4   5
ATOM      5  O   UNL     1       3.178   3.673  19.845  0.00  0.00    +0.000 OA
BRANCH   5   7
ATOM      6  C   UNL     1       1.406   2.797  21.182  0.00  0.00    +0.000 C 
ATOM      7  C   UNL     1       2.904   2.826  20.957  0.00  0.00    +0.000 C 
ENDBRANCH   5   7
ENDBRANCH   4   5
ENDBRANCH   3   4
ENDBRANCH   2   3
ENDBRANCH   1   2
BRANCH   1   8
ATOM      8  C   UNL     1       6.125   5.588  16.140  0.00  0.00    +0.000 C 
BRANCH   8   9
ATOM      9  O   UNL     1       7.480   5.208  16.393  0.00  0.00    +0.000 OA
BRANCH   9  10
ATOM     10  C   UNL     1       7.613   4.624  17.696  0.00  0.00    +0.000 C 
BRANCH  10  11
ATOM     11  C   UNL     1       7.681   5.745  18.729  0.00  0.00    +0.000 C 
BRANCH  11  12
ATOM     12  O   UNL     1       7.101   5.320  19.959  0.00  0.00    +0.000 OA
ATOM     13  H   UNL     1       6.215   5.730  19.980  0.00  0.00    +0.000 HD
ENDBRANCH  11  12
ENDBRANCH  10  11
ENDBRANCH   9  10
ENDBRANCH   8   9
ENDBRANCH   1   8
TORSDOF 10
ENDMDL
MODEL 7
REMARK VINA RESULT:      -4.0      1.386      1.593
REMARK  Name = 
REMARK  11 active torsions:
REMARK  status: ('A' for Active; 'I' for Inactive)
REMARK    1  A    between atoms: C_1  and  C_2
REMARK    2  A    between atoms: C_2  and  O_3
REMARK    3  A    between atoms: O_3  and  C_4
REMARK    4  A    between atoms: C_4  and  C_5
REMARK    5  A    between atoms: C_5  and  O_6
REMARK    6  A    between atoms: O_6  and  C_7
REMARK    7  A    between atoms: C_7  and  C_8
REMARK    8  A    between atoms: C_8  and  O_9
REMARK    9  A    between atoms: O_9  and  C_10
REMARK   10  A    between atoms: C_10  and  C_11
REMARK   11  A    between atoms: C_11  and  O_12
REMARK                            x       y       z     vdW  Elec       q    Type
REMARK                         _______ _______ _______ _____ _____    ______ ____
ROOT
ATOM      1  C   UNL     1       4.713   3.867  17.470  0.00  0.00    +0.000 C 
ENDROOT
BRANCH   1   2
ATOM      2  O   UNL     1       3.405   3.668  16.933  0.00  0.00    +0.000 OA
BRANCH   2   3
ATOM      3  C   UNL     1       2.575   2.934  17.835  0.00  0.00    +0.000 C 
BRANCH   3   4
ATOM      4  C   UNL     1       3.006   3.232  19.268  0.00  0.00    +0.000 C 
BRANCH   4   5
ATOM      5  O   UNL     1       2.205   4.287  19.797  0.00  0.00    +0.000 OA
BRANCH   5   7
ATOM      6  C   UNL     1       1.454   2.782  21.491  0.00  0.00    +0.000 C 
ATOM      7  C   UNL     1       1.034   3.786  20.437  0.00  0.00    +0.000 C 
ENDBRANCH   5   7
ENDBRANCH   4   5
ENDBRANCH   3   4
ENDBRANCH   2   3
ENDBRANCH   1   2
BRANCH   1   8
ATOM      8  C   UNL     1       5.270   5.188  16.952  0.00  0.00    +0.000 C 
BRANCH   8   9
ATOM      9  O   UNL     1       5.590   6.044  18.052  0.00  0.00    +0.000 OA
BRANCH   9  10
ATOM     10  C   UNL     1       6.178   5.298  19.127  0.00  0.00    +0.000 C 
BRANCH  10  11
ATOM     11  C   UNL     1       7.620   5.760  19.311  0.00  0.00    +0.000 C 
BRANCH  11  12
ATOM     12  O   UNL     1       8.084   5.427  20.617  0.00  0.00    +0.000 OA
ATOM     13  H   UNL     1       8.899   4.907  20.475  0.00  0.00    +0.000 HD
ENDBRANCH  11  12
ENDBRANCH  10  11
ENDBRANCH   9  10
ENDBRANCH   8   9
ENDBRANCH   1   8
TORSDOF 10
ENDMDL
MODEL 8
REMARK VINA RESULT:      -4.0      1.678      1.791
REMARK  Name = 
REMARK  11 active torsions:
REMARK  status: ('A' for Active; 'I' for Inactive)
REMARK    1  A    between atoms: C_1  and  C_2
REMARK    2  A    between atoms: C_2  and  O_3
REMARK    3  A    between atoms: O_3  and  C_4
REMARK    4  A    between atoms: C_4  and  C_5
REMARK    5  A    between atoms: C_5  and  O_6
REMARK    6  A    between atoms: O_6  and  C_7
REMARK    7  A    between atoms: C_7  and  C_8
REMARK    8  A    between atoms: C_8  and  O_9
REMARK    9  A    between atoms: O_9  and  C_10
REMARK   10  A    between atoms: C_10  and  C_11
REMARK   11  A    between atoms: C_11  and  O_12
REMARK                            x       y       z     vdW  Elec       q    Type
REMARK                         _______ _______ _______ _____ _____    ______ ____
ROOT
ATOM      1  C   UNL     1       4.707   3.646  17.361  0.00  0.00    +0.000 C 
ENDROOT
BRANCH   1   2
ATOM      2  O   UNL     1       3.318   3.807  17.068  0.00  0.00    +0.000 OA
BRANCH   2   3
ATOM      3  C   UNL     1       2.512   2.929  17.855  0.00  0.00    +0.000 C 
BRANCH   3   4
ATOM      4  C   UNL     1       1.261   3.671  18.311  0.00  0.00    +0.000 C 
BRANCH   4   5
ATOM      5  O   UNL     1       0.736   3.045  19.482  0.00  0.00    +0.000 OA
BRANCH   5   7
ATOM      6  C   UNL     1       1.798   2.964  21.617  0.00  0.00    +0.000 C 
ATOM      7  C   UNL     1       1.755   2.378  20.221  0.00  0.00    +0.000 C 
ENDBRANCH   5   7
ENDBRANCH   4   5
ENDBRANCH   3   4
ENDBRANCH   2   3
ENDBRANCH   1   2
BRANCH   1   8
ATOM      8  C   UNL     1       4.940   3.920  18.843  0.00  0.00    +0.000 C 
BRANCH   8   9
ATOM      9  O   UNL     1       6.257   4.440  19.038  0.00  0.00    +0.000 OA
BRANCH   9  10
ATOM     10  C   UNL     1       6.859   4.793  17.785  0.00  0.00    +0.000 C 
BRANCH  10  11
ATOM     11  C   UNL     1       7.419   6.208  17.892  0.00  0.00    +0.000 C 
BRANCH  11  12
ATOM     12  O   UNL     1       7.637   6.753  16.593  0.00  0.00    +0.000 OA
ATOM     13  H   UNL     1       6.748   6.824  16.193  0.00  0.00    +0.000 HD
ENDBRANCH  11  12
ENDBRANCH  10  11
ENDBRANCH   9  10
ENDBRANCH   8   9
ENDBRANCH   1   8
TORSDOF 10
ENDMDL
MODEL 9
REMARK VINA RESULT:      -4.0      1.877      2.155
REMARK  Name = 
REMARK  11 active torsions:
REMARK  status: ('A' for Active; 'I' for Inactive)
REMARK    1  A    between atoms: C_1  and  C_2
REMARK    2  A    between atoms: C_2  and  O_3
REMARK    3  A    between atoms: O_3  and  C_4
REMARK    4  A    between atoms: C_4  and  C_5
REMARK    5  A    between atoms: C_5  and  O_6
REMARK    6  A    between atoms: O_6  and  C_7
REMARK    7  A    between atoms: C_7  and  C_8
REMARK    8  A    between atoms: C_8  and  O_9
REMARK    9  A    between atoms: O_9  and  C_10
REMARK   10  A    between atoms: C_10  and  C_11
REMARK   11  A    between atoms: C_11  and  O_12
REMARK                            x       y       z     vdW  Elec       q    Type
REMARK                         _______ _______ _______ _____ _____    ______ ____
ROOT
ATOM      1  C   UNL     1       5.354   4.223  16.663  0.00  0.00    +0.000 C 
ENDROOT
BRANCH   1   2
ATOM      2  O   UNL     1       4.766   4.577  17.915  0.00  0.00    +0.000 OA
BRANCH   2   3
ATOM      3  C   UNL     1       3.345   4.679  17.816  0.00  0.00    +0.000 C 
BRANCH   3   4
ATOM      4  C   UNL     1       2.807   3.466  17.064  0.00  0.00    +0.000 C 
BRANCH   4   5
ATOM      5  O   UNL     1       1.663   2.951  17.745  0.00  0.00    +0.000 OA
BRANCH   5   7
ATOM      6  C   UNL     1       0.916   3.105  20.006  0.00  0.00    +0.000 C 
ATOM      7  C   UNL     1       1.980   2.558  19.078  0.00  0.00    +0.000 C 
ENDBRANCH   5   7
ENDBRANCH   4   5
ENDBRANCH   3   4
ENDBRANCH   2   3
ENDBRANCH   1   2
BRANCH   1   8
ATOM      8  C   UNL     1       6.164   5.403  16.139  0.00  0.00    +0.000 C 
BRANCH   8   9
ATOM      9  O   UNL     1       7.418   5.472  16.823  0.00  0.00    +0.000 OA
BRANCH   9  10
ATOM     10  C   UNL     1       7.425   6.547  17.772  0.00  0.00    +0.000 C 
BRANCH  10  11
ATOM     11  C   UNL     1       7.904   6.008  19.117  0.00  0.00    +0.000 C 
BRANCH  11  12
ATOM     12  O   UNL     1       6.874   5.243  19.738  0.00  0.00    +0.000 OA
ATOM     13  H   UNL     1       6.956   4.346  19.359  0.00  0.00    +0.000 HD
ENDBRANCH  11  12
ENDBRANCH  10  11
ENDBRANCH   9  10
ENDBRANCH   8   9
ENDBRANCH   1   8
TORSDOF 10
ENDMDL
