MODEL 1
REMARK VINA RESULT:      -7.3      0.000      0.000
REMARK  Name = 
REMARK  12 active torsions:
REMARK  status: ('A' for Active; 'I' for Inactive)
REMARK    1  A    between atoms: C_1  and  O_2
REMARK    2  A    between atoms: O_2  and  C_3
REMARK    3  A    between atoms: C_3  and  C_4
REMARK    4  A    between atoms: N_8  and  C_9
REMARK    5  A    between atoms: C_10  and  O_11
REMARK    6  A    between atoms: C_12  and  C_13
REMARK    7  A    between atoms: C_13  and  O_14
REMARK    8  A    between atoms: C_16  and  C_17
REMARK    9  A    between atoms: C_17  and  N_18
REMARK   10  A    between atoms: N_21  and  C_22
REMARK   11  A    between atoms: C_25  and  O_26
REMARK   12  A    between atoms: O_26  and  C_27
REMARK                            x       y       z     vdW  Elec       q    Type
REMARK                         _______ _______ _______ _____ _____    ______ ____
ROOT
ATOM      1  C   UNL     1       4.216   3.262  17.601  0.00  0.00    +0.000 C 
ATOM      2  C   UNL     1       2.712   3.338  17.288  0.00  0.00    +0.000 C 
ATOM      3  C   UNL     1       2.138   2.216  18.145  0.00  0.00    +0.000 C 
ATOM      4  O   UNL     1       2.949   2.129  19.338  0.00  0.00    +0.000 OA
ATOM      5  C   UNL     1       4.221   2.800  19.095  0.00  0.00    +0.000 C 
ENDROOT
BRANCH   1  10
ATOM      6  C   UNL     1       4.693   5.137  16.000  0.00  0.00    +0.000 C 
ATOM      7  C   UNL     1       5.503   4.418  14.927  0.00  0.00    +0.000 C 
ATOM      8  C   UNL     1       6.811   4.103  15.622  0.00  0.00    +0.000 C 
ATOM      9  C   UNL     1       6.474   4.065  17.113  0.00  0.00    +0.000 C 
ATOM     10  N   UNL     1       5.047   4.443  17.272  0.00  0.00    +0.000 NA
BRANCH   6  11
ATOM     11  C   UNL     1       5.063   6.639  16.107  0.00  0.00    +0.000 C 
BRANCH  11  13
ATOM     12  C   UNL     1       6.809   7.536  17.407  0.00  0.00    +0.000 C 
ATOM     13  O   UNL     1       5.506   6.965  17.428  0.00  0.00    +0.000 OA
ENDBRANCH  11  13
ENDBRANCH   6  11
ENDBRANCH   1  10
BRANCH   2  14
ATOM     14  O   UNL     1       2.126   4.603  17.598  0.00  0.00    +0.000 OA
ATOM     15  H   UNL     1       2.561   4.967  18.383  0.00  0.00    +0.000 HD
ENDBRANCH   2  14
BRANCH   3  16
ATOM     16  C   UNL     1       0.677   2.425  18.542  0.00  0.00    +0.000 C 
BRANCH  16  17
ATOM     17  O   UNL     1       0.593   3.131  19.781  0.00  0.00    +0.000 OA
ATOM     18  H   UNL     1      -0.160   2.749  20.269  0.00  0.00    +0.000 HD
ENDBRANCH  16  17
ENDBRANCH   3  16
BRANCH   5  19
ATOM     19  C   UNL     1       4.347   3.893  20.181  0.00  0.00    +0.000 C 
BRANCH  19  20
ATOM     20  N   UNL     1       4.204   5.244  19.618  0.00  0.00    +0.000 N 
ATOM     21  C   UNL     1       3.040   5.967  19.806  0.00  0.00    +0.000 C 
ATOM     22  O   UNL     1       2.122   5.529  20.489  0.00  0.00    +0.000 OA
ATOM     23  N   UNL     1       3.072   7.186  19.153  0.00  0.00    +0.000 N 
ATOM     24  H   UNL     1       4.719   5.405  18.763  0.00  0.00    +0.000 HD
ATOM     25  H   UNL     1       3.944   7.402  18.673  0.00  0.00    +0.000 HD
BRANCH  23  26
ATOM     26  C   UNL     1       2.039   8.146  19.066  0.00  0.00    +0.000 A 
ATOM     27  C   UNL     1       1.661   8.766  17.878  0.00  0.00    +0.000 A 
ATOM     28  C   UNL     1       0.684   9.769  17.872  0.00  0.00    +0.000 A 
ATOM     29  C   UNL     1       0.048  10.165  19.049  0.00  0.00    +0.000 A 
ATOM     30  C   UNL     1       0.409   9.545  20.242  0.00  0.00    +0.000 A 
ATOM     31  C   UNL     1       1.378   8.526  20.247  0.00  0.00    +0.000 A 
BRANCH  29  32
ATOM     32  O   UNL     1      -0.834  11.187  18.887  0.00  0.00    +0.000 OA
BRANCH  32  33
ATOM     33  C   UNL     1      -2.098  10.961  18.286  0.00  0.00    +0.000 C 
ATOM     34  F   UNL     1      -2.468   9.665  18.243  0.00  0.00    +0.000 F 
ATOM     35  F   UNL     1      -3.044  11.664  18.946  0.00  0.00    +0.000 F 
ATOM     36  F   UNL     1      -2.049  11.419  17.014  0.00  0.00    +0.000 F 
ENDBRANCH  32  33
ENDBRANCH  29  32
ENDBRANCH  23  26
ENDBRANCH  19  20
ENDBRANCH   5  19
TORSDOF 11
ENDMDL
MODEL 2
REMARK VINA RESULT:      -7.3      2.618      3.366
REMARK  Name = 
REMARK  12 active torsions:
REMARK  status: ('A' for Active; 'I' for Inactive)
REMARK    1  A    between atoms: C_1  and  O_2
REMARK    2  A    between atoms: O_2  and  C_3
REMARK    3  A    between atoms: C_3  and  C_4
REMARK    4  A    between atoms: N_8  and  C_9
REMARK    5  A    between atoms: C_10  and  O_11
REMARK    6  A    between atoms: C_12  and  C_13
REMARK    7  A    between atoms: C_13  and  O_14
REMARK    8  A    between atoms: C_16  and  C_17
REMARK    9  A    between atoms: C_17  and  N_18
REMARK   10  A    between atoms: N_21  and  C_22
REMARK   11  A    between atoms: C_25  and  O_26
REMARK   12  A    between atoms: O_26  and  C_27
REMARK                            x       y       z     vdW  Elec       q    Type
REMARK                         _______ _______ _______ _____ _____    ______ ____
ROOT
ATOM      1  C   UNL     1       4.577   3.954  18.068  0.00  0.00    +0.000 C 
ATOM      2  C   UNL     1       3.499   2.859  17.984  0.00  0.00    +0.000 C 
ATOM      3  C   UNL     1       3.115   2.658  19.445  0.00  0.00    +0.000 C 
ATOM      4  O   UNL     1       3.248   3.937  20.104  0.00  0.00    +0.000 OA
ATOM      5  C   UNL     1       4.090   4.805  19.288  0.00  0.00    +0.000 C 
ENDROOT
BRANCH   1  10
ATOM      6  C   UNL     1       5.857   4.021  15.910  0.00  0.00    +0.000 C 
ATOM      7  C   UNL     1       7.236   4.461  16.391  0.00  0.00    +0.000 C 
ATOM      8  C   UNL     1       7.022   5.901  16.808  0.00  0.00    +0.000 C 
ATOM      9  C   UNL     1       5.533   6.005  17.141  0.00  0.00    +0.000 C 
ATOM     10  N   UNL     1       4.899   4.699  16.830  0.00  0.00    +0.000 NA
BRANCH   6  11
ATOM     11  C   UNL     1       5.577   4.461  14.450  0.00  0.00    +0.000 C 
BRANCH  11  13
ATOM     12  C   UNL     1       5.824   3.360  12.383  0.00  0.00    +0.000 C 
ATOM     13  O   UNL     1       6.494   3.842  13.543  0.00  0.00    +0.000 OA
ENDBRANCH  11  13
ENDBRANCH   6  11
ENDBRANCH   1  10
BRANCH   2  14
ATOM     14  O   UNL     1       2.377   3.223  17.179  0.00  0.00    +0.000 OA
ATOM     15  H   UNL     1       1.823   2.440  17.039  0.00  0.00    +0.000 HD
ENDBRANCH   2  14
BRANCH   3  16
ATOM     16  C   UNL     1       1.694   2.132  19.645  0.00  0.00    +0.000 C 
BRANCH  16  17
ATOM     17  O   UNL     1       0.746   3.193  19.506  0.00  0.00    +0.000 OA
ATOM     18  H   UNL     1      -0.136   2.779  19.496  0.00  0.00    +0.000 HD
ENDBRANCH  16  17
ENDBRANCH   3  16
BRANCH   5  19
ATOM     19  C   UNL     1       3.247   6.066  18.988  0.00  0.00    +0.000 C 
BRANCH  19  20
ATOM     20  N   UNL     1       2.666   6.640  20.212  0.00  0.00    +0.000 N 
ATOM     21  C   UNL     1       1.862   7.764  20.150  0.00  0.00    +0.000 C 
ATOM     22  O   UNL     1       1.566   8.277  19.078  0.00  0.00    +0.000 OA
ATOM     23  N   UNL     1       1.462   8.187  21.405  0.00  0.00    +0.000 N 
ATOM     24  H   UNL     1       3.219   6.509  21.047  0.00  0.00    +0.000 HD
ATOM     25  H   UNL     1       1.766   7.603  22.182  0.00  0.00    +0.000 HD
BRANCH  23  26
ATOM     26  C   UNL     1       0.700   9.333  21.727  0.00  0.00    +0.000 A 
ATOM     27  C   UNL     1       0.871  10.570  21.110  0.00  0.00    +0.000 A 
ATOM     28  C   UNL     1       0.139  11.687  21.531  0.00  0.00    +0.000 A 
ATOM     29  C   UNL     1      -0.794  11.593  22.563  0.00  0.00    +0.000 A 
ATOM     30  C   UNL     1      -0.983  10.360  23.180  0.00  0.00    +0.000 A 
ATOM     31  C   UNL     1      -0.260   9.233  22.747  0.00  0.00    +0.000 A 
BRANCH  29  32
ATOM     32  O   UNL     1      -1.381  12.775  22.891  0.00  0.00    +0.000 OA
BRANCH  32  33
ATOM     33  C   UNL     1      -2.793  12.887  22.953  0.00  0.00    +0.000 C 
ATOM     34  F   UNL     1      -3.442  12.274  21.943  0.00  0.00    +0.000 F 
ATOM     35  F   UNL     1      -3.235  12.384  24.127  0.00  0.00    +0.000 F 
ATOM     36  F   UNL     1      -3.115  14.200  22.915  0.00  0.00    +0.000 F 
ENDBRANCH  32  33
ENDBRANCH  29  32
ENDBRANCH  23  26
ENDBRANCH  19  20
ENDBRANCH   5  19
TORSDOF 11
ENDMDL
MODEL 3
REMARK VINA RESULT:      -7.1      2.419      4.596
REMARK  Name = 
REMARK  12 active torsions:
REMARK  status: ('A' for Active; 'I' for Inactive)
REMARK    1  A    between atoms: C_1  and  O_2
REMARK    2  A    between atoms: O_2  and  C_3
REMARK    3  A    between atoms: C_3  and  C_4
REMARK    4  A    between atoms: N_8  and  C_9
REMARK    5  A    between atoms: C_10  and  O_11
REMARK    6  A    between atoms: C_12  and  C_13
REMARK    7  A    between atoms: C_13  and  O_14
REMARK    8  A    between atoms: C_16  and  C_17
REMARK    9  A    between atoms: C_17  and  N_18
REMARK   10  A    between atoms: N_21  and  C_22
REMARK   11  A    between atoms: C_25  and  O_26
REMARK   12  A    between atoms: O_26  and  C_27
REMARK                            x       y       z     vdW  Elec       q    Type
REMARK                         _______ _______ _______ _____ _____    ______ ____
ROOT
ATOM      1  C   UNL     1       4.969   4.343  17.702  0.00  0.00    +0.000 C 
ATOM      2  C   UNL     1       5.968   4.628  18.837  0.00  0.00    +0.000 C 
ATOM      3  C   UNL     1       7.180   5.163  18.085  0.00  0.00    +0.000 C 
ATOM      4  O   UNL     1       6.688   5.879  16.930  0.00  0.00    +0.000 OA
ATOM      5  C   UNL     1       5.314   5.465  16.668  0.00  0.00    +0.000 C 
ENDROOT
BRANCH   1  10
ATOM      6  C   UNL     1       3.279   3.452  19.331  0.00  0.00    +0.000 C 
ATOM      7  C   UNL     1       3.202   1.987  18.915  0.00  0.00    +0.000 C 
ATOM      8  C   UNL     1       2.515   2.038  17.567  0.00  0.00    +0.000 C 
ATOM      9  C   UNL     1       2.801   3.437  17.023  0.00  0.00    +0.000 C 
ATOM     10  N   UNL     1       3.541   4.195  18.064  0.00  0.00    +0.000 NA
BRANCH   6  11
ATOM     11  C   UNL     1       1.955   3.953  19.963  0.00  0.00    +0.000 C 
BRANCH  11  13
ATOM     12  C   UNL     1       1.344   2.638  21.819  0.00  0.00    +0.000 C 
ATOM     13  O   UNL     1       1.989   3.831  21.388  0.00  0.00    +0.000 OA
ENDBRANCH  11  13
ENDBRANCH   6  11
ENDBRANCH   1  10
BRANCH   2  14
ATOM     14  O   UNL     1       5.483   5.557  19.806  0.00  0.00    +0.000 OA
ATOM     15  H   UNL     1       4.816   5.120  20.356  0.00  0.00    +0.000 HD
ENDBRANCH   2  14
BRANCH   3  16
ATOM     16  C   UNL     1       8.063   6.094  18.916  0.00  0.00    +0.000 C 
BRANCH  16  17
ATOM     17  O   UNL     1       8.321   5.521  20.200  0.00  0.00    +0.000 OA
ATOM     18  H   UNL     1       9.134   5.943  20.535  0.00  0.00    +0.000 HD
ENDBRANCH  16  17
ENDBRANCH   3  16
BRANCH   5  19
ATOM     19  C   UNL     1       4.461   6.754  16.702  0.00  0.00    +0.000 C 
BRANCH  19  20
ATOM     20  N   UNL     1       3.698   6.873  17.954  0.00  0.00    +0.000 N 
ATOM     21  C   UNL     1       2.747   7.866  18.107  0.00  0.00    +0.000 C 
ATOM     22  O   UNL     1       2.473   8.633  17.192  0.00  0.00    +0.000 OA
ATOM     23  N   UNL     1       2.180   7.853  19.369  0.00  0.00    +0.000 N 
ATOM     24  H   UNL     1       4.189   6.567  18.782  0.00  0.00    +0.000 HD
ATOM     25  H   UNL     1       2.497   7.105  19.984  0.00  0.00    +0.000 HD
BRANCH  23  26
ATOM     26  C   UNL     1       1.233   8.758  19.899  0.00  0.00    +0.000 A 
ATOM     27  C   UNL     1       0.570   9.715  19.134  0.00  0.00    +0.000 A 
ATOM     28  C   UNL     1      -0.297  10.636  19.734  0.00  0.00    +0.000 A 
ATOM     29  C   UNL     1      -0.539  10.613  21.107  0.00  0.00    +0.000 A 
ATOM     30  C   UNL     1       0.109   9.655  21.882  0.00  0.00    +0.000 A 
ATOM     31  C   UNL     1       0.968   8.718  21.278  0.00  0.00    +0.000 A 
BRANCH  29  32
ATOM     32  O   UNL     1      -1.360  11.605  21.544  0.00  0.00    +0.000 OA
BRANCH  32  33
ATOM     33  C   UNL     1      -1.707  11.704  22.915  0.00  0.00    +0.000 C 
ATOM     34  F   UNL     1      -1.427  10.602  23.638  0.00  0.00    +0.000 F 
ATOM     35  F   UNL     1      -1.073  12.762  23.466  0.00  0.00    +0.000 F 
ATOM     36  F   UNL     1      -3.039  11.926  22.999  0.00  0.00    +0.000 F 
ENDBRANCH  32  33
ENDBRANCH  29  32
ENDBRANCH  23  26
ENDBRANCH  19  20
ENDBRANCH   5  19
TORSDOF 11
ENDMDL
MODEL 4
REMARK VINA RESULT:      -7.0      2.386      4.596
REMARK  Name = 
REMARK  12 active torsions:
REMARK  status: ('A' for Active; 'I' for Inactive)
REMARK    1  A    between atoms: C_1  and  O_2
REMARK    2  A    between atoms: O_2  and  C_3
REMARK    3  A    between atoms: C_3  and  C_4
REMARK    4  A    between atoms: N_8  and  C_9
REMARK    5  A    between atoms: C_10  and  O_11
REMARK    6  A    between atoms: C_12  and  C_13
REMARK    7  A    between atoms: C_13  and  O_14
REMARK    8  A    between atoms: C_16  and  C_17
REMARK    9  A    between atoms: C_17  and  N_18
REMARK   10  A    between atoms: N_21  and  C_22
REMARK   11  A    between atoms: C_25  and  O_26
REMARK   12  A    between atoms: O_26  and  C_27
REMARK                            x       y       z     vdW  Elec       q    Type
REMARK                         _______ _______ _______ _____ _____    ______ ____
ROOT
ATOM      1  C   UNL     1       4.894   4.366  17.653  0.00  0.00    +0.000 C 
ATOM      2  C   UNL     1       5.912   4.626  18.777  0.00  0.00    +0.000 C 
ATOM      3  C   UNL     1       7.095   5.219  18.022  0.00  0.00    +0.000 C 
ATOM      4  O   UNL     1       6.562   5.971  16.909  0.00  0.00    +0.000 OA
ATOM      5  C   UNL     1       5.191   5.538  16.660  0.00  0.00    +0.000 C 
ENDROOT
BRANCH   1  10
ATOM      6  C   UNL     1       3.261   3.366  19.276  0.00  0.00    +0.000 C 
ATOM      7  C   UNL     1       3.204   1.921  18.794  0.00  0.00    +0.000 C 
ATOM      8  C   UNL     1       2.484   2.019  17.466  0.00  0.00    +0.000 C 
ATOM      9  C   UNL     1       2.729   3.448  16.981  0.00  0.00    +0.000 C 
ATOM     10  N   UNL     1       3.478   4.172  18.040  0.00  0.00    +0.000 NA
BRANCH   6  11
ATOM     11  C   UNL     1       1.942   3.809  19.960  0.00  0.00    +0.000 C 
BRANCH  11  13
ATOM     12  C   UNL     1       1.513   2.609  21.940  0.00  0.00    +0.000 C 
ATOM     13  O   UNL     1       1.265   2.691  20.542  0.00  0.00    +0.000 OA
ENDBRANCH  11  13
ENDBRANCH   6  11
ENDBRANCH   1  10
BRANCH   2  14
ATOM     14  O   UNL     1       5.430   5.503  19.794  0.00  0.00    +0.000 OA
ATOM     15  H   UNL     1       6.056   5.503  20.533  0.00  0.00    +0.000 HD
ENDBRANCH   2  14
BRANCH   3  16
ATOM     16  C   UNL     1       7.977   6.134  18.872  0.00  0.00    +0.000 C 
BRANCH  16  17
ATOM     17  O   UNL     1       8.308   5.498  20.108  0.00  0.00    +0.000 OA
ATOM     18  H   UNL     1       9.036   6.015  20.501  0.00  0.00    +0.000 HD
ENDBRANCH  16  17
ENDBRANCH   3  16
BRANCH   5  19
ATOM     19  C   UNL     1       4.312   6.805  16.766  0.00  0.00    +0.000 C 
BRANCH  19  20
ATOM     20  N   UNL     1       3.619   6.884  18.062  0.00  0.00    +0.000 N 
ATOM     21  C   UNL     1       2.660   7.854  18.290  0.00  0.00    +0.000 C 
ATOM     22  O   UNL     1       2.321   8.634  17.409  0.00  0.00    +0.000 OA
ATOM     23  N   UNL     1       2.166   7.804  19.582  0.00  0.00    +0.000 N 
ATOM     24  H   UNL     1       4.162   6.570  18.854  0.00  0.00    +0.000 HD
ATOM     25  H   UNL     1       2.531   7.050  20.161  0.00  0.00    +0.000 HD
BRANCH  23  26
ATOM     26  C   UNL     1       1.234   8.679  20.183  0.00  0.00    +0.000 A 
ATOM     27  C   UNL     1       0.580   9.699  19.496  0.00  0.00    +0.000 A 
ATOM     28  C   UNL     1      -0.272  10.584  20.168  0.00  0.00    +0.000 A 
ATOM     29  C   UNL     1      -0.507  10.461  21.538  0.00  0.00    +0.000 A 
ATOM     30  C   UNL     1       0.131   9.439  22.234  0.00  0.00    +0.000 A 
ATOM     31  C   UNL     1       0.975   8.539  21.557  0.00  0.00    +0.000 A 
BRANCH  29  32
ATOM     32  O   UNL     1      -1.312  11.428  22.052  0.00  0.00    +0.000 OA
BRANCH  32  33
ATOM     33  C   UNL     1      -0.870  12.774  22.124  0.00  0.00    +0.000 C 
ATOM     34  F   UNL     1      -1.404  13.583  21.188  0.00  0.00    +0.000 F 
ATOM     35  F   UNL     1      -1.149  13.275  23.347  0.00  0.00    +0.000 F 
ATOM     36  F   UNL     1       0.473  12.786  21.964  0.00  0.00    +0.000 F 
ENDBRANCH  32  33
ENDBRANCH  29  32
ENDBRANCH  23  26
ENDBRANCH  19  20
ENDBRANCH   5  19
TORSDOF 11
ENDMDL
MODEL 5
REMARK VINA RESULT:      -7.0      2.440      3.259
REMARK  Name = 
REMARK  12 active torsions:
REMARK  status: ('A' for Active; 'I' for Inactive)
REMARK    1  A    between atoms: C_1  and  O_2
REMARK    2  A    between atoms: O_2  and  C_3
REMARK    3  A    between atoms: C_3  and  C_4
REMARK    4  A    between atoms: N_8  and  C_9
REMARK    5  A    between atoms: C_10  and  O_11
REMARK    6  A    between atoms: C_12  and  C_13
REMARK    7  A    between atoms: C_13  and  O_14
REMARK    8  A    between atoms: C_16  and  C_17
REMARK    9  A    between atoms: C_17  and  N_18
REMARK   10  A    between atoms: N_21  and  C_22
REMARK   11  A    between atoms: C_25  and  O_26
REMARK   12  A    between atoms: O_26  and  C_27
REMARK                            x       y       z     vdW  Elec       q    Type
REMARK                         _______ _______ _______ _____ _____    ______ ____
ROOT
ATOM      1  C   UNL     1       4.818   4.134  18.650  0.00  0.00    +0.000 C 
ATOM      2  C   UNL     1       3.952   3.075  17.947  0.00  0.00    +0.000 C 
ATOM      3  C   UNL     1       3.042   2.594  19.070  0.00  0.00    +0.000 C 
ATOM      4  O   UNL     1       2.802   3.721  19.942  0.00  0.00    +0.000 OA
ATOM      5  C   UNL     1       3.825   4.732  19.700  0.00  0.00    +0.000 C 
ENDROOT
BRANCH   1  10
ATOM      6  C   UNL     1       6.551   4.514  16.873  0.00  0.00    +0.000 C 
ATOM      7  C   UNL     1       7.838   4.452  17.688  0.00  0.00    +0.000 C 
ATOM      8  C   UNL     1       7.791   5.716  18.519  0.00  0.00    +0.000 C 
ATOM      9  C   UNL     1       6.308   6.074  18.624  0.00  0.00    +0.000 C 
ATOM     10  N   UNL     1       5.542   5.106  17.798  0.00  0.00    +0.000 NA
BRANCH   6  11
ATOM     11  C   UNL     1       6.694   5.412  15.617  0.00  0.00    +0.000 C 
BRANCH  11  13
ATOM     12  C   UNL     1       6.104   3.840  13.965  0.00  0.00    +0.000 C 
ATOM     13  O   UNL     1       5.737   5.051  14.617  0.00  0.00    +0.000 OA
ENDBRANCH  11  13
ENDBRANCH   6  11
ENDBRANCH   1  10
BRANCH   2  14
ATOM     14  O   UNL     1       3.213   3.585  16.838  0.00  0.00    +0.000 OA
ATOM     15  H   UNL     1       2.604   4.270  17.153  0.00  0.00    +0.000 HD
ENDBRANCH   2  14
BRANCH   3  16
ATOM     16  C   UNL     1       1.703   2.036  18.587  0.00  0.00    +0.000 C 
BRANCH  16  17
ATOM     17  O   UNL     1       0.838   3.099  18.181  0.00  0.00    +0.000 OA
ATOM     18  H   UNL     1       1.079   3.319  17.262  0.00  0.00    +0.000 HD
ENDBRANCH  16  17
ENDBRANCH   3  16
BRANCH   5  19
ATOM     19  C   UNL     1       3.070   6.025  19.315  0.00  0.00    +0.000 C 
BRANCH  19  20
ATOM     20  N   UNL     1       2.430   6.654  20.481  0.00  0.00    +0.000 N 
ATOM     21  C   UNL     1       1.717   7.831  20.345  0.00  0.00    +0.000 C 
ATOM     22  O   UNL     1       1.552   8.352  19.248  0.00  0.00    +0.000 OA
ATOM     23  N   UNL     1       1.242   8.296  21.558  0.00  0.00    +0.000 N 
ATOM     24  H   UNL     1       2.899   6.493  21.362  0.00  0.00    +0.000 HD
ATOM     25  H   UNL     1       1.435   7.701  22.361  0.00  0.00    +0.000 HD
BRANCH  23  26
ATOM     26  C   UNL     1       0.540   9.497  21.807  0.00  0.00    +0.000 A 
ATOM     27  C   UNL     1       0.771  10.682  21.113  0.00  0.00    +0.000 A 
ATOM     28  C   UNL     1       0.097  11.859  21.462  0.00  0.00    +0.000 A 
ATOM     29  C   UNL     1      -0.836  11.878  22.499  0.00  0.00    +0.000 A 
ATOM     30  C   UNL     1      -1.084  10.697  23.193  0.00  0.00    +0.000 A 
ATOM     31  C   UNL     1      -0.420   9.510  22.832  0.00  0.00    +0.000 A 
BRANCH  29  32
ATOM     32  O   UNL     1      -1.361  13.106  22.751  0.00  0.00    +0.000 OA
BRANCH  32  33
ATOM     33  C   UNL     1      -2.469  13.585  22.007  0.00  0.00    +0.000 C 
ATOM     34  F   UNL     1      -2.138  14.192  20.850  0.00  0.00    +0.000 F 
ATOM     35  F   UNL     1      -3.309  12.561  21.739  0.00  0.00    +0.000 F 
ATOM     36  F   UNL     1      -3.135  14.482  22.769  0.00  0.00    +0.000 F 
ENDBRANCH  32  33
ENDBRANCH  29  32
ENDBRANCH  23  26
ENDBRANCH  19  20
ENDBRANCH   5  19
TORSDOF 11
ENDMDL
MODEL 6
REMARK VINA RESULT:      -7.0      5.495      7.969
REMARK  Name = 
REMARK  12 active torsions:
REMARK  status: ('A' for Active; 'I' for Inactive)
REMARK    1  A    between atoms: C_1  and  O_2
REMARK    2  A    between atoms: O_2  and  C_3
REMARK    3  A    between atoms: C_3  and  C_4
REMARK    4  A    between atoms: N_8  and  C_9
REMARK    5  A    between atoms: C_10  and  O_11
REMARK    6  A    between atoms: C_12  and  C_13
REMARK    7  A    between atoms: C_13  and  O_14
REMARK    8  A    between atoms: C_16  and  C_17
REMARK    9  A    between atoms: C_17  and  N_18
REMARK   10  A    between atoms: N_21  and  C_22
REMARK   11  A    between atoms: C_25  and  O_26
REMARK   12  A    between atoms: O_26  and  C_27
REMARK                            x       y       z     vdW  Elec       q    Type
REMARK                         _______ _______ _______ _____ _____    ______ ____
ROOT
ATOM      1  C   UNL     1       4.985   5.353  17.193  0.00  0.00    +0.000 C 
ATOM      2  C   UNL     1       5.134   4.445  15.961  0.00  0.00    +0.000 C 
ATOM      3  C   UNL     1       5.890   5.335  14.982  0.00  0.00    +0.000 C 
ATOM      4  O   UNL     1       6.765   6.183  15.761  0.00  0.00    +0.000 OA
ATOM      5  C   UNL     1       6.301   6.198  17.143  0.00  0.00    +0.000 C 
ENDROOT
BRANCH   1  10
ATOM      6  C   UNL     1       3.482   3.799  18.469  0.00  0.00    +0.000 C 
ATOM      7  C   UNL     1       2.289   4.703  18.759  0.00  0.00    +0.000 C 
ATOM      8  C   UNL     1       2.833   5.696  19.764  0.00  0.00    +0.000 C 
ATOM      9  C   UNL     1       4.343   5.723  19.525  0.00  0.00    +0.000 C 
ATOM     10  N   UNL     1       4.663   4.709  18.487  0.00  0.00    +0.000 NA
BRANCH   6  11
ATOM     11  C   UNL     1       3.658   2.697  19.545  0.00  0.00    +0.000 C 
BRANCH  11  13
ATOM     12  C   UNL     1       2.266   2.467  21.431  0.00  0.00    +0.000 C 
ATOM     13  O   UNL     1       2.389   2.247  20.031  0.00  0.00    +0.000 OA
ENDBRANCH  11  13
ENDBRANCH   6  11
ENDBRANCH   1  10
BRANCH   2  14
ATOM     14  O   UNL     1       5.830   3.228  16.228  0.00  0.00    +0.000 OA
ATOM     15  H   UNL     1       5.213   2.590  16.617  0.00  0.00    +0.000 HD
ENDBRANCH   2  14
BRANCH   3  16
ATOM     16  C   UNL     1       6.719   4.563  13.956  0.00  0.00    +0.000 C 
BRANCH  16  17
ATOM     17  O   UNL     1       7.967   5.221  13.726  0.00  0.00    +0.000 OA
ATOM     18  H   UNL     1       7.817   6.169  13.893  0.00  0.00    +0.000 HD
ENDBRANCH  16  17
ENDBRANCH   3  16
BRANCH   5  19
ATOM     19  C   UNL     1       7.492   5.717  18.003  0.00  0.00    +0.000 C 
BRANCH  19  20
ATOM     20  N   UNL     1       7.990   6.779  18.893  0.00  0.00    +0.000 N 
ATOM     21  C   UNL     1       8.316   8.025  18.389  0.00  0.00    +0.000 C 
ATOM     22  O   UNL     1       8.149   8.297  17.206  0.00  0.00    +0.000 OA
ATOM     23  N   UNL     1       8.820   8.866  19.365  0.00  0.00    +0.000 N 
ATOM     24  H   UNL     1       8.506   6.452  19.697  0.00  0.00    +0.000 HD
ATOM     25  H   UNL     1       8.838   8.481  20.308  0.00  0.00    +0.000 HD
BRANCH  23  26
ATOM     26  C   UNL     1       9.318  10.178  19.201  0.00  0.00    +0.000 A 
ATOM     27  C   UNL     1       9.460  10.798  17.962  0.00  0.00    +0.000 A 
ATOM     28  C   UNL     1      10.037  12.070  17.860  0.00  0.00    +0.000 A 
ATOM     29  C   UNL     1      10.467  12.762  18.992  0.00  0.00    +0.000 A 
ATOM     30  C   UNL     1      10.321  12.157  20.237  0.00  0.00    +0.000 A 
ATOM     31  C   UNL     1       9.727  10.886  20.343  0.00  0.00    +0.000 A 
BRANCH  29  32
ATOM     32  O   UNL     1      11.054  13.958  18.722  0.00  0.00    +0.000 OA
BRANCH  32  33
ATOM     33  C   UNL     1      10.267  15.122  18.533  0.00  0.00    +0.000 C 
ATOM     34  F   UNL     1       9.009  15.023  19.007  0.00  0.00    +0.000 F 
ATOM     35  F   UNL     1      10.873  16.177  19.121  0.00  0.00    +0.000 F 
ATOM     36  F   UNL     1      10.191  15.370  17.206  0.00  0.00    +0.000 F 
ENDBRANCH  32  33
ENDBRANCH  29  32
ENDBRANCH  23  26
ENDBRANCH  19  20
ENDBRANCH   5  19
TORSDOF 11
ENDMDL
MODEL 7
REMARK VINA RESULT:      -7.0      0.959      1.426
REMARK  Name = 
REMARK  12 active torsions:
REMARK  status: ('A' for Active; 'I' for Inactive)
REMARK    1  A    between atoms: C_1  and  O_2
REMARK    2  A    between atoms: O_2  and  C_3
REMARK    3  A    between atoms: C_3  and  C_4
REMARK    4  A    between atoms: N_8  and  C_9
REMARK    5  A    between atoms: C_10  and  O_11
REMARK    6  A    between atoms: C_12  and  C_13
REMARK    7  A    between atoms: C_13  and  O_14
REMARK    8  A    between atoms: C_16  and  C_17
REMARK    9  A    between atoms: C_17  and  N_18
REMARK   10  A    between atoms: N_21  and  C_22
REMARK   11  A    between atoms: C_25  and  O_26
REMARK   12  A    between atoms: O_26  and  C_27
REMARK                            x       y       z     vdW  Elec       q    Type
REMARK                         _______ _______ _______ _____ _____    ______ ____
ROOT
ATOM      1  C   UNL     1       4.163   3.279  17.456  0.00  0.00    +0.000 C 
ATOM      2  C   UNL     1       2.651   3.431  17.216  0.00  0.00    +0.000 C 
ATOM      3  C   UNL     1       2.066   2.307  18.063  0.00  0.00    +0.000 C 
ATOM      4  O   UNL     1       2.925   2.146  19.214  0.00  0.00    +0.000 OA
ATOM      5  C   UNL     1       4.214   2.768  18.934  0.00  0.00    +0.000 C 
ENDROOT
BRANCH   1  10
ATOM      6  C   UNL     1       4.671   5.163  15.876  0.00  0.00    +0.000 C 
ATOM      7  C   UNL     1       5.423   4.433  14.769  0.00  0.00    +0.000 C 
ATOM      8  C   UNL     1       6.736   4.055  15.423  0.00  0.00    +0.000 C 
ATOM      9  C   UNL     1       6.437   4.003  16.921  0.00  0.00    +0.000 C 
ATOM     10  N   UNL     1       5.030   4.433  17.126  0.00  0.00    +0.000 NA
BRANCH   6  11
ATOM     11  C   UNL     1       5.102   6.647  15.998  0.00  0.00    +0.000 C 
BRANCH  11  13
ATOM     12  C   UNL     1       6.741   7.517  17.449  0.00  0.00    +0.000 C 
ATOM     13  O   UNL     1       5.428   6.976  17.352  0.00  0.00    +0.000 OA
ENDBRANCH  11  13
ENDBRANCH   6  11
ENDBRANCH   1  10
BRANCH   2  14
ATOM     14  O   UNL     1       2.138   4.709  17.591  0.00  0.00    +0.000 OA
ATOM     15  H   UNL     1       2.829   5.201  18.058  0.00  0.00    +0.000 HD
ENDBRANCH   2  14
BRANCH   3  16
ATOM     16  C   UNL     1       0.635   2.566  18.534  0.00  0.00    +0.000 C 
BRANCH  16  17
ATOM     17  O   UNL     1       0.632   3.031  19.885  0.00  0.00    +0.000 OA
ATOM     18  H   UNL     1       0.143   3.874  19.889  0.00  0.00    +0.000 HD
ENDBRANCH  16  17
ENDBRANCH   3  16
BRANCH   5  19
ATOM     19  C   UNL     1       4.438   3.818  20.046  0.00  0.00    +0.000 C 
BRANCH  19  20
ATOM     20  N   UNL     1       4.251   5.190  19.549  0.00  0.00    +0.000 N 
ATOM     21  C   UNL     1       3.110   5.905  19.867  0.00  0.00    +0.000 C 
ATOM     22  O   UNL     1       2.255   5.442  20.612  0.00  0.00    +0.000 OA
ATOM     23  N   UNL     1       3.090   7.149  19.261  0.00  0.00    +0.000 N 
ATOM     24  H   UNL     1       4.689   5.384  18.659  0.00  0.00    +0.000 HD
ATOM     25  H   UNL     1       3.917   7.383  18.715  0.00  0.00    +0.000 HD
BRANCH  23  26
ATOM     26  C   UNL     1       2.057   8.112  19.303  0.00  0.00    +0.000 A 
ATOM     27  C   UNL     1       1.368   8.452  20.465  0.00  0.00    +0.000 A 
ATOM     28  C   UNL     1       0.299   9.355  20.426  0.00  0.00    +0.000 A 
ATOM     29  C   UNL     1      -0.095   9.957  19.230  0.00  0.00    +0.000 A 
ATOM     30  C   UNL     1       0.593   9.635  18.064  0.00  0.00    +0.000 A 
ATOM     31  C   UNL     1       1.677   8.739  18.105  0.00  0.00    +0.000 A 
BRANCH  29  32
ATOM     32  O   UNL     1      -1.182  10.766  19.347  0.00  0.00    +0.000 OA
BRANCH  32  33
ATOM     33  C   UNL     1      -1.068  12.045  19.950  0.00  0.00    +0.000 C 
ATOM     34  F   UNL     1      -1.241  12.045  21.286  0.00  0.00    +0.000 F 
ATOM     35  F   UNL     1       0.143  12.571  19.665  0.00  0.00    +0.000 F 
ATOM     36  F   UNL     1      -2.011  12.851  19.411  0.00  0.00    +0.000 F 
ENDBRANCH  32  33
ENDBRANCH  29  32
ENDBRANCH  23  26
ENDBRANCH  19  20
ENDBRANCH   5  19
TORSDOF 11
ENDMDL
MODEL 8
REMARK VINA RESULT:      -6.9      5.901      8.316
REMARK  Name = 
REMARK  12 active torsions:
REMARK  status: ('A' for Active; 'I' for Inactive)
REMARK    1  A    between atoms: C_1  and  O_2
REMARK    2  A    between atoms: O_2  and  C_3
REMARK    3  A    between atoms: C_3  and  C_4
REMARK    4  A    between atoms: N_8  and  C_9
REMARK    5  A    between atoms: C_10  and  O_11
REMARK    6  A    between atoms: C_12  and  C_13
REMARK    7  A    between atoms: C_13  and  O_14
REMARK    8  A    between atoms: C_16  and  C_17
REMARK    9  A    between atoms: C_17  and  N_18
REMARK   10  A    between atoms: N_21  and  C_22
REMARK   11  A    between atoms: C_25  and  O_26
REMARK   12  A    between atoms: O_26  and  C_27
REMARK                            x       y       z     vdW  Elec       q    Type
REMARK                         _______ _______ _______ _____ _____    ______ ____
ROOT
ATOM      1  C   UNL     1       4.499   5.223  16.773  0.00  0.00    +0.000 C 
ATOM      2  C   UNL     1       5.120   4.149  15.863  0.00  0.00    +0.000 C 
ATOM      3  C   UNL     1       5.530   4.952  14.635  0.00  0.00    +0.000 C 
ATOM      4  O   UNL     1       5.903   6.272  15.089  0.00  0.00    +0.000 OA
ATOM      5  C   UNL     1       5.350   6.488  16.421  0.00  0.00    +0.000 C 
ENDROOT
BRANCH   1  10
ATOM      6  C   UNL     1       3.471   3.742  18.521  0.00  0.00    +0.000 C 
ATOM      7  C   UNL     1       2.071   4.336  18.633  0.00  0.00    +0.000 C 
ATOM      8  C   UNL     1       2.307   5.678  19.292  0.00  0.00    +0.000 C 
ATOM      9  C   UNL     1       3.753   6.042  18.953  0.00  0.00    +0.000 C 
ATOM     10  N   UNL     1       4.353   4.904  18.212  0.00  0.00    +0.000 NA
BRANCH   6  11
ATOM     11  C   UNL     1       3.933   3.075  19.841  0.00  0.00    +0.000 C 
BRANCH  11  13
ATOM     12  C   UNL     1       2.488   2.742  21.672  0.00  0.00    +0.000 C 
ATOM     13  O   UNL     1       2.894   2.261  20.395  0.00  0.00    +0.000 OA
ENDBRANCH  11  13
ENDBRANCH   6  11
ENDBRANCH   1  10
BRANCH   2  14
ATOM     14  O   UNL     1       6.228   3.469  16.454  0.00  0.00    +0.000 OA
ATOM     15  H   UNL     1       7.043   3.755  16.016  0.00  0.00    +0.000 HD
ENDBRANCH   2  14
BRANCH   3  16
ATOM     16  C   UNL     1       6.692   4.340  13.854  0.00  0.00    +0.000 C 
BRANCH  16  17
ATOM     17  O   UNL     1       7.809   5.232  13.841  0.00  0.00    +0.000 OA
ATOM     18  H   UNL     1       8.409   4.937  14.550  0.00  0.00    +0.000 HD
ENDBRANCH  16  17
ENDBRANCH   3  16
BRANCH   5  19
ATOM     19  C   UNL     1       6.549   6.820  17.338  0.00  0.00    +0.000 C 
BRANCH  19  20
ATOM     20  N   UNL     1       7.040   8.190  17.123  0.00  0.00    +0.000 N 
ATOM     21  C   UNL     1       7.993   8.738  17.963  0.00  0.00    +0.000 C 
ATOM     22  O   UNL     1       8.494   8.084  18.870  0.00  0.00    +0.000 OA
ATOM     23  N   UNL     1       8.282  10.050  17.637  0.00  0.00    +0.000 N 
ATOM     24  H   UNL     1       6.371   8.821  16.704  0.00  0.00    +0.000 HD
ATOM     25  H   UNL     1       7.803  10.413  16.815  0.00  0.00    +0.000 HD
BRANCH  23  26
ATOM     26  C   UNL     1       9.148  10.938  18.315  0.00  0.00    +0.000 A 
ATOM     27  C   UNL     1       9.521  10.780  19.648  0.00  0.00    +0.000 A 
ATOM     28  C   UNL     1      10.317  11.739  20.287  0.00  0.00    +0.000 A 
ATOM     29  C   UNL     1      10.776  12.867  19.606  0.00  0.00    +0.000 A 
ATOM     30  C   UNL     1      10.419  13.030  18.271  0.00  0.00    +0.000 A 
ATOM     31  C   UNL     1       9.633  12.060  17.623  0.00  0.00    +0.000 A 
BRANCH  29  32
ATOM     32  O   UNL     1      11.490  13.730  20.378  0.00  0.00    +0.000 OA
BRANCH  32  33
ATOM     33  C   UNL     1      11.097  15.087  20.498  0.00  0.00    +0.000 C 
ATOM     34  F   UNL     1       9.770  15.292  20.373  0.00  0.00    +0.000 F 
ATOM     35  F   UNL     1      11.504  15.571  21.691  0.00  0.00    +0.000 F 
ATOM     36  F   UNL     1      11.717  15.794  19.527  0.00  0.00    +0.000 F 
ENDBRANCH  32  33
ENDBRANCH  29  32
ENDBRANCH  23  26
ENDBRANCH  19  20
ENDBRANCH   5  19
TORSDOF 11
ENDMDL
MODEL 9
REMARK VINA RESULT:      -6.8      2.082      4.575
REMARK  Name = 
REMARK  12 active torsions:
REMARK  status: ('A' for Active; 'I' for Inactive)
REMARK    1  A    between atoms: C_1  and  O_2
REMARK    2  A    between atoms: O_2  and  C_3
REMARK    3  A    between atoms: C_3  and  C_4
REMARK    4  A    between atoms: N_8  and  C_9
REMARK    5  A    between atoms: C_10  and  O_11
REMARK    6  A    between atoms: C_12  and  C_13
REMARK    7  A    between atoms: C_13  and  O_14
REMARK    8  A    between atoms: C_16  and  C_17
REMARK    9  A    between atoms: C_17  and  N_18
REMARK   10  A    between atoms: N_21  and  C_22
REMARK   11  A    between atoms: C_25  and  O_26
REMARK   12  A    between atoms: O_26  and  C_27
REMARK                            x       y       z     vdW  Elec       q    Type
REMARK                         _______ _______ _______ _____ _____    ______ ____
ROOT
ATOM      1  C   UNL     1       3.832   4.441  17.851  0.00  0.00    +0.000 C 
ATOM      2  C   UNL     1       5.313   4.072  18.047  0.00  0.00    +0.000 C 
ATOM      3  C   UNL     1       5.993   4.812  16.901  0.00  0.00    +0.000 C 
ATOM      4  O   UNL     1       5.247   6.027  16.670  0.00  0.00    +0.000 OA
ATOM      5  C   UNL     1       3.926   5.893  17.275  0.00  0.00    +0.000 C 
ENDROOT
BRANCH   1  10
ATOM      6  C   UNL     1       2.939   2.881  19.603  0.00  0.00    +0.000 C 
ATOM      7  C   UNL     1       1.915   2.083  18.802  0.00  0.00    +0.000 C 
ATOM      8  C   UNL     1       0.819   3.091  18.526  0.00  0.00    +0.000 C 
ATOM      9  C   UNL     1       1.503   4.457  18.597  0.00  0.00    +0.000 C 
ATOM     10  N   UNL     1       2.917   4.244  18.998  0.00  0.00    +0.000 NA
BRANCH   6  11
ATOM     11  C   UNL     1       2.567   2.972  21.105  0.00  0.00    +0.000 C 
BRANCH  11  13
ATOM     12  C   UNL     1       4.557   1.713  21.170  0.00  0.00    +0.000 C 
ATOM     13  O   UNL     1       3.396   2.111  21.892  0.00  0.00    +0.000 OA
ENDBRANCH  11  13
ENDBRANCH   6  11
ENDBRANCH   1  10
BRANCH   2  14
ATOM     14  O   UNL     1       5.835   4.457  19.319  0.00  0.00    +0.000 OA
ATOM     15  H   UNL     1       5.905   3.672  19.881  0.00  0.00    +0.000 HD
ENDBRANCH   2  14
BRANCH   3  16
ATOM     16  C   UNL     1       7.456   5.162  17.171  0.00  0.00    +0.000 C 
BRANCH  16  17
ATOM     17  O   UNL     1       8.164   4.015  17.647  0.00  0.00    +0.000 OA
ATOM     18  H   UNL     1       9.038   4.329  17.942  0.00  0.00    +0.000 HD
ENDBRANCH  16  17
ENDBRANCH   3  16
BRANCH   5  19
ATOM     19  C   UNL     1       3.785   7.067  18.270  0.00  0.00    +0.000 C 
BRANCH  19  20
ATOM     20  N   UNL     1       2.971   8.160  17.716  0.00  0.00    +0.000 N 
ATOM     21  C   UNL     1       1.857   8.622  18.393  0.00  0.00    +0.000 C 
ATOM     22  O   UNL     1       1.550   8.177  19.493  0.00  0.00    +0.000 OA
ATOM     23  N   UNL     1       1.190   9.608  17.688  0.00  0.00    +0.000 N 
ATOM     24  H   UNL     1       2.956   8.210  16.707  0.00  0.00    +0.000 HD
ATOM     25  H   UNL     1       1.624   9.887  16.810  0.00  0.00    +0.000 HD
BRANCH  23  26
ATOM     26  C   UNL     1      -0.017  10.253  18.039  0.00  0.00    +0.000 A 
ATOM     27  C   UNL     1      -0.084  11.347  18.898  0.00  0.00    +0.000 A 
ATOM     28  C   UNL     1      -1.320  11.891  19.270  0.00  0.00    +0.000 A 
ATOM     29  C   UNL     1      -2.516  11.370  18.779  0.00  0.00    +0.000 A 
ATOM     30  C   UNL     1      -2.463  10.284  17.910  0.00  0.00    +0.000 A 
ATOM     31  C   UNL     1      -1.221   9.747  17.522  0.00  0.00    +0.000 A 
BRANCH  29  32
ATOM     32  O   UNL     1      -3.630  11.971  19.276  0.00  0.00    +0.000 OA
BRANCH  32  33
ATOM     33  C   UNL     1      -4.822  12.029  18.510  0.00  0.00    +0.000 C 
ATOM     34  F   UNL     1      -4.622  12.152  17.183  0.00  0.00    +0.000 F 
ATOM     35  F   UNL     1      -5.561  10.922  18.740  0.00  0.00    +0.000 F 
ATOM     36  F   UNL     1      -5.537  13.101  18.922  0.00  0.00    +0.000 F 
ENDBRANCH  32  33
ENDBRANCH  29  32
ENDBRANCH  23  26
ENDBRANCH  19  20
ENDBRANCH   5  19
TORSDOF 11
ENDMDL
