MODEL 1
REMARK VINA RESULT:      -8.2      0.000      0.000
REMARK  Name = 
REMARK  3 active torsions:
REMARK  status: ('A' for Active; 'I' for Inactive)
REMARK    1  A    between atoms: C_2  and  O_3
REMARK    2  A    between atoms: C_2  and  C_4
REMARK    3  A    between atoms: C_11  and  C_12
REMARK                            x       y       z     vdW  Elec       q    Type
REMARK                         _______ _______ _______ _____ _____    ______ ____
ROOT
ATOM      1  C   UNL     1       7.028   6.004  17.684  0.00  0.00    +0.000 A 
ATOM      2  C   UNL     1       7.398   4.725  17.290  0.00  0.00    +0.000 A 
ATOM      3  N   UNL     1       6.269   3.949  17.208  0.00  0.00    +0.000 N 
ATOM      4  C   UNL     1       5.160   4.696  17.522  0.00  0.00    +0.000 A 
ATOM      5  C   UNL     1       3.815   4.332  17.534  0.00  0.00    +0.000 A 
ATOM      6  C   UNL     1       2.864   5.315  17.866  0.00  0.00    +0.000 A 
ATOM      7 CL   UNL     1       1.215   4.798  17.692  0.00  0.00    +0.000 Cl
ATOM      8  C   UNL     1       3.231   6.627  18.242  0.00  0.00    +0.000 A 
ATOM      9  C   UNL     1       4.618   6.930  18.230  0.00  0.00    +0.000 A 
ATOM     10  C   UNL     1       5.596   5.975  17.848  0.00  0.00    +0.000 A 
ATOM     11  H   UNL     1       6.248   2.976  16.937  0.00  0.00    +0.000 HD
ENDROOT
BRANCH   8  12
ATOM     12  C   UNL     1       2.260   7.684  18.611  0.00  0.00    +0.000 A 
ATOM     13  C   UNL     1       1.673   8.561  17.720  0.00  0.00    +0.000 A 
ATOM     14  N   UNL     1       0.830   9.569  18.049  0.00  0.00    +0.000 NA
ATOM     15  C   UNL     1       0.498   9.720  19.338  0.00  0.00    +0.000 A 
ATOM     16  N   UNL     1      -0.382  10.717  19.687  0.00  0.00    +0.000 N 
ATOM     17  C   UNL     1      -0.783  11.723  18.702  0.00  0.00    +0.000 C 
ATOM     18  C   UNL     1      -0.135  13.080  19.017  0.00  0.00    +0.000 C 
ATOM     19  O   UNL     1      -0.393  13.487  20.372  0.00  0.00    +0.000 OA
ATOM     20  C   UNL     1       0.140  12.516  21.290  0.00  0.00    +0.000 C 
ATOM     21  C   UNL     1      -0.501  11.133  21.085  0.00  0.00    +0.000 C 
ATOM     22  N   UNL     1       0.965   8.892  20.283  0.00  0.00    +0.000 NA
ATOM     23  C   UNL     1       1.813   7.903  19.902  0.00  0.00    +0.000 A 
ENDBRANCH   8  12
BRANCH   1  25
ATOM     24  O   UNL     1       8.026   8.061  17.066  0.00  0.00    +0.000 OA
ATOM     25  C   UNL     1       7.901   7.160  17.886  0.00  0.00    +0.000 C 
BRANCH  25  26
ATOM     26  O   UNL     1       8.590   7.182  19.055  0.00  0.00    +0.000 OA
ATOM     27  H   UNL     1       9.438   7.653  18.992  0.00  0.00    +0.000 HD
ENDBRANCH  25  26
ENDBRANCH   1  25
TORSDOF 3
ENDMDL
MODEL 2
REMARK VINA RESULT:      -7.8      3.116      4.055
REMARK  Name = 
REMARK  3 active torsions:
REMARK  status: ('A' for Active; 'I' for Inactive)
REMARK    1  A    between atoms: C_2  and  O_3
REMARK    2  A    between atoms: C_2  and  C_4
REMARK    3  A    between atoms: C_11  and  C_12
REMARK                            x       y       z     vdW  Elec       q    Type
REMARK                         _______ _______ _______ _____ _____    ______ ____
ROOT
ATOM      1  C   UNL     1       2.883   2.869  20.011  0.00  0.00    +0.000 A 
ATOM      2  C   UNL     1       3.693   1.963  19.339  0.00  0.00    +0.000 A 
ATOM      3  N   UNL     1       4.287   2.609  18.283  0.00  0.00    +0.000 N 
ATOM      4  C   UNL     1       3.897   3.925  18.256  0.00  0.00    +0.000 A 
ATOM      5  C   UNL     1       4.276   4.949  17.388  0.00  0.00    +0.000 A 
ATOM      6  C   UNL     1       3.746   6.234  17.607  0.00  0.00    +0.000 A 
ATOM      7 CL   UNL     1       4.408   7.463  16.573  0.00  0.00    +0.000 Cl
ATOM      8  C   UNL     1       2.806   6.502  18.628  0.00  0.00    +0.000 A 
ATOM      9  C   UNL     1       2.445   5.414  19.465  0.00  0.00    +0.000 A 
ATOM     10  C   UNL     1       3.004   4.119  19.303  0.00  0.00    +0.000 A 
ATOM     11  H   UNL     1       4.932   2.187  17.630  0.00  0.00    +0.000 HD
ENDROOT
BRANCH   8  12
ATOM     12  C   UNL     1       2.216   7.839  18.879  0.00  0.00    +0.000 A 
ATOM     13  C   UNL     1       1.784   8.289  20.111  0.00  0.00    +0.000 A 
ATOM     14  N   UNL     1       1.189   9.485  20.345  0.00  0.00    +0.000 NA
ATOM     15  C   UNL     1       1.032  10.326  19.314  0.00  0.00    +0.000 A 
ATOM     16  N   UNL     1       0.461  11.556  19.539  0.00  0.00    +0.000 N 
ATOM     17  C   UNL     1      -0.154  11.856  20.834  0.00  0.00    +0.000 C 
ATOM     18  C   UNL     1      -1.685  11.893  20.712  0.00  0.00    +0.000 C 
ATOM     19  O   UNL     1      -2.111  12.784  19.667  0.00  0.00    +0.000 OA
ATOM     20  C   UNL     1      -1.574  12.357  18.403  0.00  0.00    +0.000 C 
ATOM     21  C   UNL     1      -0.037  12.349  18.415  0.00  0.00    +0.000 C 
ATOM     22  N   UNL     1       1.465  10.014  18.085  0.00  0.00    +0.000 NA
ATOM     23  C   UNL     1       2.047   8.802  17.901  0.00  0.00    +0.000 A 
ENDBRANCH   8  12
BRANCH   1  25
ATOM     24  O   UNL     1       2.545   2.287  22.282  0.00  0.00    +0.000 OA
ATOM     25  C   UNL     1       2.072   2.623  21.204  0.00  0.00    +0.000 C 
BRANCH  25  26
ATOM     26  O   UNL     1       0.733   2.783  21.050  0.00  0.00    +0.000 OA
ATOM     27  H   UNL     1       0.497   3.582  20.550  0.00  0.00    +0.000 HD
ENDBRANCH  25  26
ENDBRANCH   1  25
TORSDOF 3
ENDMDL
MODEL 3
REMARK VINA RESULT:      -7.7      3.124      3.833
REMARK  Name = 
REMARK  3 active torsions:
REMARK  status: ('A' for Active; 'I' for Inactive)
REMARK    1  A    between atoms: C_2  and  O_3
REMARK    2  A    between atoms: C_2  and  C_4
REMARK    3  A    between atoms: C_11  and  C_12
REMARK                            x       y       z     vdW  Elec       q    Type
REMARK                         _______ _______ _______ _____ _____    ______ ____
ROOT
ATOM      1  C   UNL     1       2.917   2.943  20.080  0.00  0.00    +0.000 A 
ATOM      2  C   UNL     1       3.788   2.046  19.475  0.00  0.00    +0.000 A 
ATOM      3  N   UNL     1       4.424   2.686  18.440  0.00  0.00    +0.000 N 
ATOM      4  C   UNL     1       4.004   3.990  18.362  0.00  0.00    +0.000 A 
ATOM      5  C   UNL     1       4.405   5.006  17.496  0.00  0.00    +0.000 A 
ATOM      6  C   UNL     1       3.831   6.280  17.656  0.00  0.00    +0.000 A 
ATOM      7 CL   UNL     1       4.519   7.505  16.634  0.00  0.00    +0.000 Cl
ATOM      8  C   UNL     1       2.827   6.543  18.616  0.00  0.00    +0.000 A 
ATOM      9  C   UNL     1       2.447   5.464  19.454  0.00  0.00    +0.000 A 
ATOM     10  C   UNL     1       3.047   4.181  19.352  0.00  0.00    +0.000 A 
ATOM     11  H   UNL     1       5.117   2.268  17.834  0.00  0.00    +0.000 HD
ENDROOT
BRANCH   8  12
ATOM     12  C   UNL     1       2.190   7.869  18.804  0.00  0.00    +0.000 A 
ATOM     13  C   UNL     1       2.057   8.826  17.817  0.00  0.00    +0.000 A 
ATOM     14  N   UNL     1       1.530  10.062  17.989  0.00  0.00    +0.000 NA
ATOM     15  C   UNL     1       1.061  10.388  19.201  0.00  0.00    +0.000 A 
ATOM     16  N   UNL     1       0.493  11.626  19.386  0.00  0.00    +0.000 N 
ATOM     17  C   UNL     1       0.589  12.644  18.337  0.00  0.00    +0.000 C 
ATOM     18  C   UNL     1       1.570  13.753  18.746  0.00  0.00    +0.000 C 
ATOM     19  O   UNL     1       1.240  14.303  20.033  0.00  0.00    +0.000 OA
ATOM     20  C   UNL     1       1.289  13.274  21.037  0.00  0.00    +0.000 C 
ATOM     21  C   UNL     1       0.289  12.144  20.739  0.00  0.00    +0.000 C 
ATOM     22  N   UNL     1       1.089   9.516  20.219  0.00  0.00    +0.000 NA
ATOM     23  C   UNL     1       1.634   8.294  19.998  0.00  0.00    +0.000 A 
ENDBRANCH   8  12
BRANCH   1  25
ATOM     24  O   UNL     1       2.462   2.354  22.328  0.00  0.00    +0.000 OA
ATOM     25  C   UNL     1       2.046   2.700  21.230  0.00  0.00    +0.000 C 
BRANCH  25  26
ATOM     26  O   UNL     1       0.718   2.873  21.010  0.00  0.00    +0.000 OA
ATOM     27  H   UNL     1       0.428   3.794  21.120  0.00  0.00    +0.000 HD
ENDBRANCH  25  26
ENDBRANCH   1  25
TORSDOF 3
ENDMDL
MODEL 4
REMARK VINA RESULT:      -7.6      1.818      2.389
REMARK  Name = 
REMARK  3 active torsions:
REMARK  status: ('A' for Active; 'I' for Inactive)
REMARK    1  A    between atoms: C_2  and  O_3
REMARK    2  A    between atoms: C_2  and  C_4
REMARK    3  A    between atoms: C_11  and  C_12
REMARK                            x       y       z     vdW  Elec       q    Type
REMARK                         _______ _______ _______ _____ _____    ______ ____
ROOT
ATOM      1  C   UNL     1       5.251   4.841  16.378  0.00  0.00    +0.000 A 
ATOM      2  C   UNL     1       5.387   3.460  16.444  0.00  0.00    +0.000 A 
ATOM      3  N   UNL     1       4.540   2.984  17.413  0.00  0.00    +0.000 N 
ATOM      4  C   UNL     1       3.837   4.020  17.975  0.00  0.00    +0.000 A 
ATOM      5  C   UNL     1       2.851   3.997  18.962  0.00  0.00    +0.000 A 
ATOM      6  C   UNL     1       2.259   5.217  19.337  0.00  0.00    +0.000 A 
ATOM      7 CL   UNL     1       0.936   5.054  20.451  0.00  0.00    +0.000 Cl
ATOM      8  C   UNL     1       2.670   6.456  18.795  0.00  0.00    +0.000 A 
ATOM      9  C   UNL     1       3.691   6.416  17.811  0.00  0.00    +0.000 A 
ATOM     10  C   UNL     1       4.269   5.195  17.373  0.00  0.00    +0.000 A 
ATOM     11  H   UNL     1       4.431   2.012  17.667  0.00  0.00    +0.000 HD
ENDROOT
BRANCH   8  12
ATOM     12  C   UNL     1       2.080   7.762  19.176  0.00  0.00    +0.000 A 
ATOM     13  C   UNL     1       1.732   8.124  20.462  0.00  0.00    +0.000 A 
ATOM     14  N   UNL     1       1.139   9.290  20.817  0.00  0.00    +0.000 NA
ATOM     15  C   UNL     1       0.894  10.192  19.858  0.00  0.00    +0.000 A 
ATOM     16  N   UNL     1       0.323  11.394  20.203  0.00  0.00    +0.000 N 
ATOM     17  C   UNL     1      -0.201  11.598  21.556  0.00  0.00    +0.000 C 
ATOM     18  C   UNL     1      -1.737  11.612  21.547  0.00  0.00    +0.000 C 
ATOM     19  O   UNL     1      -2.252  12.561  20.597  0.00  0.00    +0.000 OA
ATOM     20  C   UNL     1      -1.803  12.226  19.272  0.00  0.00    +0.000 C 
ATOM     21  C   UNL     1      -0.268  12.248  19.172  0.00  0.00    +0.000 C 
ATOM     22  N   UNL     1       1.240   9.969  18.582  0.00  0.00    +0.000 NA
ATOM     23  C   UNL     1       1.825   8.783  18.278  0.00  0.00    +0.000 A 
ENDBRANCH   8  12
BRANCH   1  25
ATOM     24  O   UNL     1       5.395   6.693  14.910  0.00  0.00    +0.000 OA
ATOM     25  C   UNL     1       5.948   5.761  15.480  0.00  0.00    +0.000 C 
BRANCH  25  26
ATOM     26  O   UNL     1       7.271   5.520  15.299  0.00  0.00    +0.000 OA
ATOM     27  H   UNL     1       7.808   5.715  16.086  0.00  0.00    +0.000 HD
ENDBRANCH  25  26
ENDBRANCH   1  25
TORSDOF 3
ENDMDL
MODEL 5
REMARK VINA RESULT:      -7.6      3.205      4.197
REMARK  Name = 
REMARK  3 active torsions:
REMARK  status: ('A' for Active; 'I' for Inactive)
REMARK    1  A    between atoms: C_2  and  O_3
REMARK    2  A    between atoms: C_2  and  C_4
REMARK    3  A    between atoms: C_11  and  C_12
REMARK                            x       y       z     vdW  Elec       q    Type
REMARK                         _______ _______ _______ _____ _____    ______ ____
ROOT
ATOM      1  C   UNL     1       2.426   2.601  18.656  0.00  0.00    +0.000 A 
ATOM      2  C   UNL     1       3.392   1.765  18.111  0.00  0.00    +0.000 A 
ATOM      3  N   UNL     1       4.354   2.541  17.515  0.00  0.00    +0.000 N 
ATOM      4  C   UNL     1       4.051   3.871  17.671  0.00  0.00    +0.000 A 
ATOM      5  C   UNL     1       4.759   5.000  17.262  0.00  0.00    +0.000 A 
ATOM      6  C   UNL     1       4.234   6.265  17.585  0.00  0.00    +0.000 A 
ATOM      7 CL   UNL     1       5.274   7.594  17.172  0.00  0.00    +0.000 Cl
ATOM      8  C   UNL     1       2.996   6.425  18.248  0.00  0.00    +0.000 A 
ATOM      9  C   UNL     1       2.314   5.237  18.620  0.00  0.00    +0.000 A 
ATOM     10  C   UNL     1       2.844   3.948  18.357  0.00  0.00    +0.000 A 
ATOM     11  H   UNL     1       5.178   2.191  17.046  0.00  0.00    +0.000 HD
ENDROOT
BRANCH   8  12
ATOM     12  C   UNL     1       2.405   7.740  18.592  0.00  0.00    +0.000 A 
ATOM     13  C   UNL     1       1.892   8.074  19.830  0.00  0.00    +0.000 A 
ATOM     14  N   UNL     1       1.296   9.250  20.142  0.00  0.00    +0.000 NA
ATOM     15  C   UNL     1       1.222  10.193  19.194  0.00  0.00    +0.000 A 
ATOM     16  N   UNL     1       0.651  11.405  19.502  0.00  0.00    +0.000 N 
ATOM     17  C   UNL     1      -0.051  11.586  20.774  0.00  0.00    +0.000 C 
ATOM     18  C   UNL     1      -1.569  11.662  20.551  0.00  0.00    +0.000 C 
ATOM     19  O   UNL     1      -1.910  12.662  19.575  0.00  0.00    +0.000 OA
ATOM     20  C   UNL     1      -1.291  12.353  18.314  0.00  0.00    +0.000 C 
ATOM     21  C   UNL     1       0.242  12.316  18.431  0.00  0.00    +0.000 C 
ATOM     22  N   UNL     1       1.736   9.998  17.971  0.00  0.00    +0.000 NA
ATOM     23  C   UNL     1       2.316   8.800  17.707  0.00  0.00    +0.000 A 
ENDBRANCH   8  12
BRANCH   1  25
ATOM     24  O   UNL     1       1.044   2.482  20.577  0.00  0.00    +0.000 OA
ATOM     25  C   UNL     1       1.226   2.210  19.397  0.00  0.00    +0.000 C 
BRANCH  25  26
ATOM     26  O   UNL     1       0.303   1.504  18.695  0.00  0.00    +0.000 OA
ATOM     27  H   UNL     1       0.125   0.626  19.070  0.00  0.00    +0.000 HD
ENDBRANCH  25  26
ENDBRANCH   1  25
TORSDOF 3
ENDMDL
MODEL 6
REMARK VINA RESULT:      -7.5      3.285      4.024
REMARK  Name = 
REMARK  3 active torsions:
REMARK  status: ('A' for Active; 'I' for Inactive)
REMARK    1  A    between atoms: C_2  and  O_3
REMARK    2  A    between atoms: C_2  and  C_4
REMARK    3  A    between atoms: C_11  and  C_12
REMARK                            x       y       z     vdW  Elec       q    Type
REMARK                         _______ _______ _______ _____ _____    ______ ____
ROOT
ATOM      1  C   UNL     1       2.271   2.706  18.516  0.00  0.00    +0.000 A 
ATOM      2  C   UNL     1       3.274   1.834  18.114  0.00  0.00    +0.000 A 
ATOM      3  N   UNL     1       4.332   2.572  17.645  0.00  0.00    +0.000 N 
ATOM      4  C   UNL     1       4.054   3.912  17.746  0.00  0.00    +0.000 A 
ATOM      5  C   UNL     1       4.845   5.014  17.425  0.00  0.00    +0.000 A 
ATOM      6  C   UNL     1       4.323   6.299  17.662  0.00  0.00    +0.000 A 
ATOM      7 CL   UNL     1       5.451   7.590  17.380  0.00  0.00    +0.000 Cl
ATOM      8  C   UNL     1       3.013   6.505  18.151  0.00  0.00    +0.000 A 
ATOM      9  C   UNL     1       2.249   5.344  18.439  0.00  0.00    +0.000 A 
ATOM     10  C   UNL     1       2.769   4.036  18.262  0.00  0.00    +0.000 A 
ATOM     11  H   UNL     1       5.199   2.190  17.294  0.00  0.00    +0.000 HD
ENDROOT
BRANCH   8  12
ATOM     12  C   UNL     1       2.424   7.843  18.399  0.00  0.00    +0.000 A 
ATOM     13  C   UNL     1       2.406   8.877  17.485  0.00  0.00    +0.000 A 
ATOM     14  N   UNL     1       1.924  10.123  17.718  0.00  0.00    +0.000 NA
ATOM     15  C   UNL     1       1.384  10.378  18.916  0.00  0.00    +0.000 A 
ATOM     16  N   UNL     1       0.859  11.626  19.159  0.00  0.00    +0.000 N 
ATOM     17  C   UNL     1       1.078  12.714  18.203  0.00  0.00    +0.000 C 
ATOM     18  C   UNL     1       2.075  13.738  18.766  0.00  0.00    +0.000 C 
ATOM     19  O   UNL     1       1.677  14.205  20.067  0.00  0.00    +0.000 OA
ATOM     20  C   UNL     1       1.607  13.101  20.987  0.00  0.00    +0.000 C 
ATOM     21  C   UNL     1       0.581  12.049  20.532  0.00  0.00    +0.000 C 
ATOM     22  N   UNL     1       1.298   9.432  19.861  0.00  0.00    +0.000 NA
ATOM     23  C   UNL     1       1.802   8.203  19.582  0.00  0.00    +0.000 A 
ENDBRANCH   8  12
BRANCH   1  25
ATOM     24  O   UNL     1       0.052   1.881  18.442  0.00  0.00    +0.000 OA
ATOM     25  C   UNL     1       0.971   2.362  19.092  0.00  0.00    +0.000 C 
BRANCH  25  26
ATOM     26  O   UNL     1       0.827   2.618  20.417  0.00  0.00    +0.000 OA
ATOM     27  H   UNL     1      -0.008   3.065  20.633  0.00  0.00    +0.000 HD
ENDBRANCH  25  26
ENDBRANCH   1  25
TORSDOF 3
ENDMDL
MODEL 7
REMARK VINA RESULT:      -7.4      1.927      1.992
REMARK  Name = 
REMARK  3 active torsions:
REMARK  status: ('A' for Active; 'I' for Inactive)
REMARK    1  A    between atoms: C_2  and  O_3
REMARK    2  A    between atoms: C_2  and  C_4
REMARK    3  A    between atoms: C_11  and  C_12
REMARK                            x       y       z     vdW  Elec       q    Type
REMARK                         _______ _______ _______ _____ _____    ______ ____
ROOT
ATOM      1  C   UNL     1       5.243   5.037  16.353  0.00  0.00    +0.000 A 
ATOM      2  C   UNL     1       5.560   3.708  16.604  0.00  0.00    +0.000 A 
ATOM      3  N   UNL     1       4.868   3.298  17.716  0.00  0.00    +0.000 N 
ATOM      4  C   UNL     1       4.089   4.323  18.192  0.00  0.00    +0.000 A 
ATOM      5  C   UNL     1       3.204   4.344  19.270  0.00  0.00    +0.000 A 
ATOM      6  C   UNL     1       2.495   5.533  19.523  0.00  0.00    +0.000 A 
ATOM      7 CL   UNL     1       1.306   5.398  20.782  0.00  0.00    +0.000 Cl
ATOM      8  C   UNL     1       2.696   6.710  18.767  0.00  0.00    +0.000 A 
ATOM      9  C   UNL     1       3.625   6.630  17.696  0.00  0.00    +0.000 A 
ATOM     10  C   UNL     1       4.314   5.430  17.383  0.00  0.00    +0.000 A 
ATOM     11  H   UNL     1       4.908   2.372  18.119  0.00  0.00    +0.000 HD
ENDROOT
BRANCH   8  12
ATOM     12  C   UNL     1       1.978   7.984  19.013  0.00  0.00    +0.000 A 
ATOM     13  C   UNL     1       1.594   8.874  18.029  0.00  0.00    +0.000 A 
ATOM     14  N   UNL     1       0.991  10.068  18.244  0.00  0.00    +0.000 NA
ATOM     15  C   UNL     1       0.703  10.414  19.505  0.00  0.00    +0.000 A 
ATOM     16  N   UNL     1       0.061  11.607  19.739  0.00  0.00    +0.000 N 
ATOM     17  C   UNL     1      -0.114  12.574  18.653  0.00  0.00    +0.000 C 
ATOM     18  C   UNL     1       0.814  13.783  18.848  0.00  0.00    +0.000 C 
ATOM     19  O   UNL     1       0.655  14.368  20.151  0.00  0.00    +0.000 OA
ATOM     20  C   UNL     1       0.966  13.400  21.169  0.00  0.00    +0.000 C 
ATOM     21  C   UNL     1       0.040  12.176  21.088  0.00  0.00    +0.000 C 
ATOM     22  N   UNL     1       0.981   9.602  20.535  0.00  0.00    +0.000 NA
ATOM     23  C   UNL     1       1.593   8.421  20.268  0.00  0.00    +0.000 A 
ENDBRANCH   8  12
BRANCH   1  25
ATOM     24  O   UNL     1       5.204   6.930  14.930  0.00  0.00    +0.000 OA
ATOM     25  C   UNL     1       5.736   5.878  15.262  0.00  0.00    +0.000 C 
BRANCH  25  26
ATOM     26  O   UNL     1       6.836   5.418  14.613  0.00  0.00    +0.000 OA
ATOM     27  H   UNL     1       7.251   4.658  15.054  0.00  0.00    +0.000 HD
ENDBRANCH  25  26
ENDBRANCH   1  25
TORSDOF 3
ENDMDL
MODEL 8
REMARK VINA RESULT:      -7.4      1.237      1.342
REMARK  Name = 
REMARK  3 active torsions:
REMARK  status: ('A' for Active; 'I' for Inactive)
REMARK    1  A    between atoms: C_2  and  O_3
REMARK    2  A    between atoms: C_2  and  C_4
REMARK    3  A    between atoms: C_11  and  C_12
REMARK                            x       y       z     vdW  Elec       q    Type
REMARK                         _______ _______ _______ _____ _____    ______ ____
ROOT
ATOM      1  C   UNL     1       6.270   5.435  17.538  0.00  0.00    +0.000 A 
ATOM      2  C   UNL     1       6.644   4.124  17.802  0.00  0.00    +0.000 A 
ATOM      3  N   UNL     1       5.704   3.560  18.629  0.00  0.00    +0.000 N 
ATOM      4  C   UNL     1       4.711   4.467  18.901  0.00  0.00    +0.000 A 
ATOM      5  C   UNL     1       3.550   4.318  19.660  0.00  0.00    +0.000 A 
ATOM      6  C   UNL     1       2.671   5.412  19.750  0.00  0.00    +0.000 A 
ATOM      7 CL   UNL     1       1.185   5.065  20.581  0.00  0.00    +0.000 Cl
ATOM      8  C   UNL     1       2.954   6.662  19.155  0.00  0.00    +0.000 A 
ATOM      9  C   UNL     1       4.160   6.758  18.413  0.00  0.00    +0.000 A 
ATOM     10  C   UNL     1       5.040   5.655  18.258  0.00  0.00    +0.000 A 
ATOM     11  H   UNL     1       5.725   2.611  18.974  0.00  0.00    +0.000 HD
ENDROOT
BRANCH   8  12
ATOM     12  C   UNL     1       2.059   7.841  19.240  0.00  0.00    +0.000 A 
ATOM     13  C   UNL     1       1.667   8.613  18.164  0.00  0.00    +0.000 A 
ATOM     14  N   UNL     1       0.898   9.726  18.235  0.00  0.00    +0.000 NA
ATOM     15  C   UNL     1       0.442  10.105  19.436  0.00  0.00    +0.000 A 
ATOM     16  N   UNL     1      -0.367  11.213  19.522  0.00  0.00    +0.000 N 
ATOM     17  C   UNL     1      -0.552  12.083  18.358  0.00  0.00    +0.000 C 
ATOM     18  C   UNL     1       0.191  13.414  18.551  0.00  0.00    +0.000 C 
ATOM     19  O   UNL     1      -0.174  14.048  19.788  0.00  0.00    +0.000 OA
ATOM     20  C   UNL     1       0.152  13.192  20.898  0.00  0.00    +0.000 C 
ATOM     21  C   UNL     1      -0.598  11.852  20.818  0.00  0.00    +0.000 C 
ATOM     22  N   UNL     1       0.714   9.399  20.542  0.00  0.00    +0.000 NA
ATOM     23  C   UNL     1       1.495   8.296  20.419  0.00  0.00    +0.000 A 
ENDBRANCH   8  12
BRANCH   1  25
ATOM     24  O   UNL     1       7.460   6.124  15.610  0.00  0.00    +0.000 OA
ATOM     25  C   UNL     1       6.966   6.406  16.694  0.00  0.00    +0.000 C 
BRANCH  25  26
ATOM     26  O   UNL     1       7.046   7.668  17.189  0.00  0.00    +0.000 OA
ATOM     27  H   UNL     1       7.950   7.926  17.436  0.00  0.00    +0.000 HD
ENDBRANCH  25  26
ENDBRANCH   1  25
TORSDOF 3
ENDMDL
MODEL 9
REMARK VINA RESULT:      -7.2      3.585      8.122
REMARK  Name = 
REMARK  3 active torsions:
REMARK  status: ('A' for Active; 'I' for Inactive)
REMARK    1  A    between atoms: C_2  and  O_3
REMARK    2  A    between atoms: C_2  and  C_4
REMARK    3  A    between atoms: C_11  and  C_12
REMARK                            x       y       z     vdW  Elec       q    Type
REMARK                         _______ _______ _______ _____ _____    ______ ____
ROOT
ATOM      1  C   UNL     1       1.152  14.646  20.131  0.00  0.00    +0.000 A 
ATOM      2  C   UNL     1       0.217  15.565  19.671  0.00  0.00    +0.000 A 
ATOM      3  N   UNL     1      -0.711  14.898  18.909  0.00  0.00    +0.000 N 
ATOM      4  C   UNL     1      -0.417  13.558  18.872  0.00  0.00    +0.000 A 
ATOM      5  C   UNL     1      -1.100  12.512  18.255  0.00  0.00    +0.000 A 
ATOM      6  C   UNL     1      -0.593  11.208  18.404  0.00  0.00    +0.000 A 
ATOM      7 CL   UNL     1      -1.608   9.968  17.734  0.00  0.00    +0.000 Cl
ATOM      8  C   UNL     1       0.606  10.937  19.101  0.00  0.00    +0.000 A 
ATOM      9  C   UNL     1       1.267  12.047  19.690  0.00  0.00    +0.000 A 
ATOM     10  C   UNL     1       0.751  13.366  19.602  0.00  0.00    +0.000 A 
ATOM     11  H   UNL     1      -1.508  15.324  18.456  0.00  0.00    +0.000 HD
ENDROOT
BRANCH   8  12
ATOM     12  C   UNL     1       1.179   9.579  19.268  0.00  0.00    +0.000 A 
ATOM     13  C   UNL     1       1.854   8.884  18.285  0.00  0.00    +0.000 A 
ATOM     14  N   UNL     1       2.331   7.621  18.403  0.00  0.00    +0.000 NA
ATOM     15  C   UNL     1       2.174   6.993  19.576  0.00  0.00    +0.000 A 
ATOM     16  N   UNL     1       2.680   5.723  19.725  0.00  0.00    +0.000 N 
ATOM     17  C   UNL     1       3.192   4.994  18.563  0.00  0.00    +0.000 C 
ATOM     18  C   UNL     1       2.232   3.862  18.166  0.00  0.00    +0.000 C 
ATOM     19  O   UNL     1       1.936   3.004  19.282  0.00  0.00    +0.000 OA
ATOM     20  C   UNL     1       1.319   3.762  20.338  0.00  0.00    +0.000 C 
ATOM     21  C   UNL     1       2.240   4.885  20.841  0.00  0.00    +0.000 C 
ATOM     22  N   UNL     1       1.581   7.593  20.617  0.00  0.00    +0.000 NA
ATOM     23  C   UNL     1       1.115   8.855  20.445  0.00  0.00    +0.000 A 
ENDBRANCH   8  12
BRANCH   1  25
ATOM     24  O   UNL     1       2.389  14.520  22.146  0.00  0.00    +0.000 OA
ATOM     25  C   UNL     1       2.308  14.908  20.987  0.00  0.00    +0.000 C 
BRANCH  25  26
ATOM     26  O   UNL     1       3.310  15.628  20.422  0.00  0.00    +0.000 OA
ATOM     27  H   UNL     1       3.656  16.326  21.002  0.00  0.00    +0.000 HD
ENDBRANCH  25  26
ENDBRANCH   1  25
TORSDOF 3
ENDMDL
