MODEL 1
REMARK VINA RESULT:      -8.0      0.000      0.000
REMARK  Name = 
REMARK  6 active torsions:
REMARK  status: ('A' for Active; 'I' for Inactive)
REMARK    1  A    between atoms: C_1  and  O_2
REMARK    2  A    between atoms: O_2  and  C_3
REMARK    3  A    between atoms: C_12  and  C_13
REMARK    4  A    between atoms: N_14  and  C_15
REMARK    5  A    between atoms: C_15  and  C_16
REMARK    6  A    between atoms: C_22  and  N_23
REMARK                            x       y       z     vdW  Elec       q    Type
REMARK                         _______ _______ _______ _____ _____    ______ ____
ROOT
ATOM      1  C   UNL     1       0.357  10.468  19.417  0.00  0.00    +0.000 A 
ATOM      2  C   UNL     1       1.053   9.890  18.360  0.00  0.00    +0.000 A 
ATOM      3  C   UNL     1       1.789   8.695  18.540  0.00  0.00    +0.000 A 
ATOM      4  C   UNL     1       1.810   8.026  19.776  0.00  0.00    +0.000 A 
ATOM      5  C   UNL     1       1.165   8.674  20.825  0.00  0.00    +0.000 A 
ATOM      6  C   UNL     1       0.460   9.850  20.650  0.00  0.00    +0.000 A 
ATOM      7  O   UNL     1      -0.103  10.292  21.812  0.00  0.00    +0.000 OA
ATOM      8  C   UNL     1       0.352   9.298  22.739  0.00  0.00    +0.000 C 
ATOM      9  O   UNL     1       1.145   8.264  22.126  0.00  0.00    +0.000 OA
ATOM     10  C   UNL     1       2.548   6.698  19.965  0.00  0.00    +0.000 C 
ATOM     11  C   UNL     1       1.572   5.633  20.498  0.00  0.00    +0.000 C 
ATOM     12  N   UNL     1       3.186   6.157  18.721  0.00  0.00    +0.000 NA
ATOM     13  C   UNL     1       3.698   7.243  17.867  0.00  0.00    +0.000 C 
ATOM     14  C   UNL     1       2.560   8.136  17.380  0.00  0.00    +0.000 C 
ENDROOT
BRANCH   1  16
ATOM     15  C   UNL     1      -1.420  11.625  18.386  0.00  0.00    +0.000 C 
ATOM     16  O   UNL     1      -0.370  11.622  19.342  0.00  0.00    +0.000 OA
ENDBRANCH   1  16
BRANCH  12  17
ATOM     17  C   UNL     1       4.261   5.183  19.048  0.00  0.00    +0.000 C 
BRANCH  17  18
ATOM     18  C   UNL     1       5.254   5.002  17.931  0.00  0.00    +0.000 A 
ATOM     19  C   UNL     1       4.832   4.655  16.662  0.00  0.00    +0.000 A 
ATOM     20  N   UNL     1       5.638   4.621  15.585  0.00  0.00    +0.000 NA
ATOM     21  C   UNL     1       6.910   4.958  15.798  0.00  0.00    +0.000 A 
ATOM     22  N   UNL     1       7.740   5.028  14.700  0.00  0.00    +0.000 N 
ATOM     23  N   UNL     1       7.442   5.224  16.994  0.00  0.00    +0.000 NA
ATOM     24  C   UNL     1       6.610   5.241  18.045  0.00  0.00    +0.000 A 
ATOM     25  H   UNL     1       7.392   4.420  13.972  0.00  0.00    +0.000 HD
ATOM     26  H   UNL     1       8.701   4.916  14.987  0.00  0.00    +0.000 HD
BRANCH  24  27
ATOM     27  N   UNL     1       7.222   5.487  19.274  0.00  0.00    +0.000 N 
ATOM     28  H   UNL     1       8.066   4.918  19.305  0.00  0.00    +0.000 HD
ATOM     29  H   UNL     1       7.428   6.466  19.427  0.00  0.00    +0.000 HD
ENDBRANCH  24  27
ENDBRANCH  17  18
ENDBRANCH  12  17
TORSDOF 4
ENDMDL
MODEL 2
REMARK VINA RESULT:      -7.9      1.375      2.888
REMARK  Name = 
REMARK  6 active torsions:
REMARK  status: ('A' for Active; 'I' for Inactive)
REMARK    1  A    between atoms: C_1  and  O_2
REMARK    2  A    between atoms: O_2  and  C_3
REMARK    3  A    between atoms: C_12  and  C_13
REMARK    4  A    between atoms: N_14  and  C_15
REMARK    5  A    between atoms: C_15  and  C_16
REMARK    6  A    between atoms: C_22  and  N_23
REMARK                            x       y       z     vdW  Elec       q    Type
REMARK                         _______ _______ _______ _____ _____    ______ ____
ROOT
ATOM      1  C   UNL     1       1.082   8.846  20.883  0.00  0.00    +0.000 A 
ATOM      2  C   UNL     1       1.391   7.527  21.199  0.00  0.00    +0.000 A 
ATOM      3  C   UNL     1       1.992   6.670  20.246  0.00  0.00    +0.000 A 
ATOM      4  C   UNL     1       2.337   7.130  18.964  0.00  0.00    +0.000 A 
ATOM      5  C   UNL     1       1.945   8.431  18.661  0.00  0.00    +0.000 A 
ATOM      6  C   UNL     1       1.344   9.259  19.589  0.00  0.00    +0.000 A 
ATOM      7  O   UNL     1       1.064  10.493  19.076  0.00  0.00    +0.000 OA
ATOM      8  C   UNL     1       1.513  10.340  17.723  0.00  0.00    +0.000 C 
ATOM      9  O   UNL     1       2.082   9.046  17.451  0.00  0.00    +0.000 OA
ATOM     10  C   UNL     1       3.047   6.233  17.946  0.00  0.00    +0.000 C 
ATOM     11  C   UNL     1       4.355   6.904  17.485  0.00  0.00    +0.000 C 
ATOM     12  N   UNL     1       3.386   4.863  18.452  0.00  0.00    +0.000 NA
ATOM     13  C   UNL     1       2.352   4.364  19.376  0.00  0.00    +0.000 C 
ATOM     14  C   UNL     1       2.264   5.243  20.621  0.00  0.00    +0.000 C 
ENDROOT
BRANCH   1  16
ATOM     15  C   UNL     1       0.045   9.208  22.970  0.00  0.00    +0.000 C 
ATOM     16  O   UNL     1       0.494   9.740  21.731  0.00  0.00    +0.000 OA
ENDBRANCH   1  16
BRANCH  12  17
ATOM     17  C   UNL     1       3.602   3.913  17.329  0.00  0.00    +0.000 C 
BRANCH  17  18
ATOM     18  C   UNL     1       4.861   4.192  16.553  0.00  0.00    +0.000 A 
ATOM     19  C   UNL     1       4.817   4.393  15.187  0.00  0.00    +0.000 A 
ATOM     20  N   UNL     1       5.870   4.792  14.451  0.00  0.00    +0.000 NA
ATOM     21  C   UNL     1       7.003   5.003  15.122  0.00  0.00    +0.000 A 
ATOM     22  N   UNL     1       8.075   5.505  14.415  0.00  0.00    +0.000 N 
ATOM     23  N   UNL     1       7.181   4.756  16.422  0.00  0.00    +0.000 NA
ATOM     24  C   UNL     1       6.110   4.353  17.121  0.00  0.00    +0.000 A 
ATOM     25  H   UNL     1       7.990   5.248  13.442  0.00  0.00    +0.000 HD
ATOM     26  H   UNL     1       8.936   5.278  14.889  0.00  0.00    +0.000 HD
BRANCH  24  27
ATOM     27  N   UNL     1       6.358   4.074  18.465  0.00  0.00    +0.000 N 
ATOM     28  H   UNL     1       7.076   4.725  18.776  0.00  0.00    +0.000 HD
ATOM     29  H   UNL     1       5.530   4.131  19.043  0.00  0.00    +0.000 HD
ENDBRANCH  24  27
ENDBRANCH  17  18
ENDBRANCH  12  17
TORSDOF 4
ENDMDL
MODEL 3
REMARK VINA RESULT:      -7.8      1.016      1.509
REMARK  Name = 
REMARK  6 active torsions:
REMARK  status: ('A' for Active; 'I' for Inactive)
REMARK    1  A    between atoms: C_1  and  O_2
REMARK    2  A    between atoms: O_2  and  C_3
REMARK    3  A    between atoms: C_12  and  C_13
REMARK    4  A    between atoms: N_14  and  C_15
REMARK    5  A    between atoms: C_15  and  C_16
REMARK    6  A    between atoms: C_22  and  N_23
REMARK                            x       y       z     vdW  Elec       q    Type
REMARK                         _______ _______ _______ _____ _____    ______ ____
ROOT
ATOM      1  C   UNL     1      -0.446  10.779  19.741  0.00  0.00    +0.000 A 
ATOM      2  C   UNL     1       0.219  10.287  18.623  0.00  0.00    +0.000 A 
ATOM      3  C   UNL     1       1.111   9.193  18.730  0.00  0.00    +0.000 A 
ATOM      4  C   UNL     1       1.324   8.538  19.954  0.00  0.00    +0.000 A 
ATOM      5  C   UNL     1       0.699   9.105  21.061  0.00  0.00    +0.000 A 
ATOM      6  C   UNL     1      -0.158  10.184  20.957  0.00  0.00    +0.000 A 
ATOM      7  O   UNL     1      -0.667  10.558  22.167  0.00  0.00    +0.000 OA
ATOM      8  C   UNL     1      -0.011   9.632  23.043  0.00  0.00    +0.000 C 
ATOM      9  O   UNL     1       0.846   8.702  22.356  0.00  0.00    +0.000 OA
ATOM     10  C   UNL     1       2.235   7.313  20.069  0.00  0.00    +0.000 C 
ATOM     11  C   UNL     1       1.450   6.137  20.680  0.00  0.00    +0.000 C 
ATOM     12  N   UNL     1       2.823   6.849  18.770  0.00  0.00    +0.000 NA
ATOM     13  C   UNL     1       3.118   7.986  17.881  0.00  0.00    +0.000 C 
ATOM     14  C   UNL     1       1.839   8.729  17.502  0.00  0.00    +0.000 C 
ENDROOT
BRANCH   1  16
ATOM     15  C   UNL     1      -2.469  11.677  18.926  0.00  0.00    +0.000 C 
ATOM     16  O   UNL     1      -1.314  11.834  19.739  0.00  0.00    +0.000 OA
ENDBRANCH   1  16
BRANCH  12  17
ATOM     17  C   UNL     1       4.035   6.017  18.994  0.00  0.00    +0.000 C 
BRANCH  17  18
ATOM     18  C   UNL     1       4.850   5.813  17.746  0.00  0.00    +0.000 A 
ATOM     19  C   UNL     1       5.948   6.609  17.482  0.00  0.00    +0.000 A 
ATOM     20  N   UNL     1       6.808   6.393  16.470  0.00  0.00    +0.000 NA
ATOM     21  C   UNL     1       6.554   5.331  15.706  0.00  0.00    +0.000 A 
ATOM     22  N   UNL     1       7.468   5.025  14.721  0.00  0.00    +0.000 N 
ATOM     23  N   UNL     1       5.478   4.548  15.816  0.00  0.00    +0.000 NA
ATOM     24  C   UNL     1       4.639   4.798  16.831  0.00  0.00    +0.000 A 
ATOM     25  H   UNL     1       7.961   5.862  14.444  0.00  0.00    +0.000 HD
ATOM     26  H   UNL     1       7.024   4.480  13.997  0.00  0.00    +0.000 HD
BRANCH  24  27
ATOM     27  N   UNL     1       3.513   3.976  16.879  0.00  0.00    +0.000 N 
ATOM     28  H   UNL     1       3.419   3.546  15.962  0.00  0.00    +0.000 HD
ATOM     29  H   UNL     1       3.560   3.280  17.612  0.00  0.00    +0.000 HD
ENDBRANCH  24  27
ENDBRANCH  17  18
ENDBRANCH  12  17
TORSDOF 4
ENDMDL
MODEL 4
REMARK VINA RESULT:      -7.6      4.135      7.642
REMARK  Name = 
REMARK  6 active torsions:
REMARK  status: ('A' for Active; 'I' for Inactive)
REMARK    1  A    between atoms: C_1  and  O_2
REMARK    2  A    between atoms: O_2  and  C_3
REMARK    3  A    between atoms: C_12  and  C_13
REMARK    4  A    between atoms: N_14  and  C_15
REMARK    5  A    between atoms: C_15  and  C_16
REMARK    6  A    between atoms: C_22  and  N_23
REMARK                            x       y       z     vdW  Elec       q    Type
REMARK                         _______ _______ _______ _____ _____    ______ ____
ROOT
ATOM      1  C   UNL     1       3.975   5.404  18.476  0.00  0.00    +0.000 A 
ATOM      2  C   UNL     1       3.794   6.632  17.847  0.00  0.00    +0.000 A 
ATOM      3  C   UNL     1       2.841   7.562  18.327  0.00  0.00    +0.000 A 
ATOM      4  C   UNL     1       2.077   7.301  19.477  0.00  0.00    +0.000 A 
ATOM      5  C   UNL     1       2.233   6.034  20.032  0.00  0.00    +0.000 A 
ATOM      6  C   UNL     1       3.153   5.121  19.552  0.00  0.00    +0.000 A 
ATOM      7  O   UNL     1       3.143   3.956  20.261  0.00  0.00    +0.000 OA
ATOM      8  C   UNL     1       2.098   4.215  21.209  0.00  0.00    +0.000 C 
ATOM      9  O   UNL     1       1.523   5.529  21.082  0.00  0.00    +0.000 OA
ATOM     10  C   UNL     1       1.091   8.326  20.043  0.00  0.00    +0.000 C 
ATOM     11  C   UNL     1       1.437   8.620  21.515  0.00  0.00    +0.000 C 
ATOM     12  N   UNL     1       1.058   9.632  19.308  0.00  0.00    +0.000 NA
ATOM     13  C   UNL     1       1.268   9.437  17.863  0.00  0.00    +0.000 C 
ATOM     14  C   UNL     1       2.652   8.853  17.586  0.00  0.00    +0.000 C 
ENDROOT
BRANCH   1  16
ATOM     15  C   UNL     1       4.849   4.131  16.694  0.00  0.00    +0.000 C 
ATOM     16  O   UNL     1       4.860   4.441  18.080  0.00  0.00    +0.000 OA
ENDBRANCH   1  16
BRANCH  12  17
ATOM     17  C   UNL     1      -0.209  10.365  19.569  0.00  0.00    +0.000 C 
BRANCH  17  18
ATOM     18  C   UNL     1      -0.039  11.860  19.558  0.00  0.00    +0.000 A 
ATOM     19  C   UNL     1       0.756  12.487  20.499  0.00  0.00    +0.000 A 
ATOM     20  N   UNL     1       1.074  13.793  20.465  0.00  0.00    +0.000 NA
ATOM     21  C   UNL     1       0.579  14.487  19.440  0.00  0.00    +0.000 A 
ATOM     22  N   UNL     1       0.964  15.805  19.321  0.00  0.00    +0.000 N 
ATOM     23  N   UNL     1      -0.267  14.005  18.526  0.00  0.00    +0.000 NA
ATOM     24  C   UNL     1      -0.567  12.700  18.597  0.00  0.00    +0.000 A 
ATOM     25  H   UNL     1       1.214  16.169  20.229  0.00  0.00    +0.000 HD
ATOM     26  H   UNL     1       0.281  16.315  18.781  0.00  0.00    +0.000 HD
BRANCH  24  27
ATOM     27  N   UNL     1      -1.483  12.256  17.643  0.00  0.00    +0.000 N 
ATOM     28  H   UNL     1      -2.003  13.072  17.327  0.00  0.00    +0.000 HD
ATOM     29  H   UNL     1      -1.048  11.771  16.869  0.00  0.00    +0.000 HD
ENDBRANCH  24  27
ENDBRANCH  17  18
ENDBRANCH  12  17
TORSDOF 4
ENDMDL
MODEL 5
REMARK VINA RESULT:      -7.5      1.886      3.436
REMARK  Name = 
REMARK  6 active torsions:
REMARK  status: ('A' for Active; 'I' for Inactive)
REMARK    1  A    between atoms: C_1  and  O_2
REMARK    2  A    between atoms: O_2  and  C_3
REMARK    3  A    between atoms: C_12  and  C_13
REMARK    4  A    between atoms: N_14  and  C_15
REMARK    5  A    between atoms: C_15  and  C_16
REMARK    6  A    between atoms: C_22  and  N_23
REMARK                            x       y       z     vdW  Elec       q    Type
REMARK                         _______ _______ _______ _____ _____    ______ ____
ROOT
ATOM      1  C   UNL     1      -0.576  11.430  21.649  0.00  0.00    +0.000 A 
ATOM      2  C   UNL     1       0.207  10.360  22.071  0.00  0.00    +0.000 A 
ATOM      3  C   UNL     1       0.785   9.468  21.137  0.00  0.00    +0.000 A 
ATOM      4  C   UNL     1       0.627   9.653  19.753  0.00  0.00    +0.000 A 
ATOM      5  C   UNL     1      -0.223  10.687  19.373  0.00  0.00    +0.000 A 
ATOM      6  C   UNL     1      -0.799  11.547  20.288  0.00  0.00    +0.000 A 
ATOM      7  O   UNL     1      -1.579  12.493  19.689  0.00  0.00    +0.000 OA
ATOM      8  C   UNL     1      -1.465  12.115  18.310  0.00  0.00    +0.000 C 
ATOM      9  O   UNL     1      -0.601  10.983  18.097  0.00  0.00    +0.000 OA
ATOM     10  C   UNL     1       1.302   8.733  18.732  0.00  0.00    +0.000 C 
ATOM     11  C   UNL     1       2.165   9.571  17.769  0.00  0.00    +0.000 C 
ATOM     12  N   UNL     1       2.178   7.673  19.330  0.00  0.00    +0.000 NA
ATOM     13  C   UNL     1       1.628   7.185  20.607  0.00  0.00    +0.000 C 
ATOM     14  C   UNL     1       1.584   8.304  21.645  0.00  0.00    +0.000 C 
ENDROOT
BRANCH   1  16
ATOM     15  C   UNL     1      -2.339  11.865  23.154  0.00  0.00    +0.000 C 
ATOM     16  O   UNL     1      -1.183  12.334  22.474  0.00  0.00    +0.000 OA
ENDBRANCH   1  16
BRANCH  12  17
ATOM     17  C   UNL     1       2.392   6.551  18.377  0.00  0.00    +0.000 C 
BRANCH  17  18
ATOM     18  C   UNL     1       3.803   6.027  18.390  0.00  0.00    +0.000 A 
ATOM     19  C   UNL     1       4.792   6.647  17.651  0.00  0.00    +0.000 A 
ATOM     20  N   UNL     1       6.097   6.330  17.727  0.00  0.00    +0.000 NA
ATOM     21  C   UNL     1       6.412   5.361  18.586  0.00  0.00    +0.000 A 
ATOM     22  N   UNL     1       7.750   5.077  18.760  0.00  0.00    +0.000 N 
ATOM     23  N   UNL     1       5.532   4.637  19.283  0.00  0.00    +0.000 NA
ATOM     24  C   UNL     1       4.240   4.977  19.176  0.00  0.00    +0.000 A 
ATOM     25  H   UNL     1       8.263   5.335  17.929  0.00  0.00    +0.000 HD
ATOM     26  H   UNL     1       7.860   4.136  19.108  0.00  0.00    +0.000 HD
BRANCH  24  27
ATOM     27  N   UNL     1       3.358   4.169  19.894  0.00  0.00    +0.000 N 
ATOM     28  H   UNL     1       3.297   4.556  20.833  0.00  0.00    +0.000 HD
ATOM     29  H   UNL     1       2.447   4.093  19.463  0.00  0.00    +0.000 HD
ENDBRANCH  24  27
ENDBRANCH  17  18
ENDBRANCH  12  17
TORSDOF 4
ENDMDL
MODEL 6
REMARK VINA RESULT:      -7.5      2.206      3.877
REMARK  Name = 
REMARK  6 active torsions:
REMARK  status: ('A' for Active; 'I' for Inactive)
REMARK    1  A    between atoms: C_1  and  O_2
REMARK    2  A    between atoms: O_2  and  C_3
REMARK    3  A    between atoms: C_12  and  C_13
REMARK    4  A    between atoms: N_14  and  C_15
REMARK    5  A    between atoms: C_15  and  C_16
REMARK    6  A    between atoms: C_22  and  N_23
REMARK                            x       y       z     vdW  Elec       q    Type
REMARK                         _______ _______ _______ _____ _____    ______ ____
ROOT
ATOM      1  C   UNL     1       0.035  10.844  21.887  0.00  0.00    +0.000 A 
ATOM      2  C   UNL     1       0.706   9.660  22.172  0.00  0.00    +0.000 A 
ATOM      3  C   UNL     1       1.181   8.823  21.134  0.00  0.00    +0.000 A 
ATOM      4  C   UNL     1       1.032   9.177  19.783  0.00  0.00    +0.000 A 
ATOM      5  C   UNL     1       0.291  10.329  19.536  0.00  0.00    +0.000 A 
ATOM      6  C   UNL     1      -0.185  11.135  20.552  0.00  0.00    +0.000 A 
ATOM      7  O   UNL     1      -0.867  12.218  20.075  0.00  0.00    +0.000 OA
ATOM      8  C   UNL     1      -0.804  11.986  18.662  0.00  0.00    +0.000 C 
ATOM      9  O   UNL     1      -0.065  10.802  18.308  0.00  0.00    +0.000 OA
ATOM     10  C   UNL     1       1.599   8.312  18.653  0.00  0.00    +0.000 C 
ATOM     11  C   UNL     1       2.537   9.160  17.772  0.00  0.00    +0.000 C 
ATOM     12  N   UNL     1       2.365   7.108  19.113  0.00  0.00    +0.000 NA
ATOM     13  C   UNL     1       1.777   6.539  20.339  0.00  0.00    +0.000 C 
ATOM     14  C   UNL     1       1.858   7.533  21.495  0.00  0.00    +0.000 C 
ENDROOT
BRANCH   1  16
ATOM     15  C   UNL     1      -1.810  11.467  23.216  0.00  0.00    +0.000 C 
ATOM     16  O   UNL     1      -0.468  11.708  22.818  0.00  0.00    +0.000 OA
ENDBRANCH   1  16
BRANCH  12  17
ATOM     17  C   UNL     1       2.453   6.084  18.039  0.00  0.00    +0.000 C 
BRANCH  17  18
ATOM     18  C   UNL     1       3.178   4.837  18.469  0.00  0.00    +0.000 A 
ATOM     19  C   UNL     1       4.526   4.874  18.773  0.00  0.00    +0.000 A 
ATOM     20  N   UNL     1       5.205   3.842  19.304  0.00  0.00    +0.000 NA
ATOM     21  C   UNL     1       4.496   2.740  19.545  0.00  0.00    +0.000 A 
ATOM     22  N   UNL     1       5.139   1.697  20.178  0.00  0.00    +0.000 N 
ATOM     23  N   UNL     1       3.215   2.564  19.211  0.00  0.00    +0.000 NA
ATOM     24  C   UNL     1       2.573   3.613  18.677  0.00  0.00    +0.000 A 
ATOM     25  H   UNL     1       6.130   1.747  19.991  0.00  0.00    +0.000 HD
ATOM     26  H   UNL     1       4.665   0.829  19.978  0.00  0.00    +0.000 HD
BRANCH  24  27
ATOM     27  N   UNL     1       1.249   3.366  18.313  0.00  0.00    +0.000 N 
ATOM     28  H   UNL     1       0.746   3.124  19.164  0.00  0.00    +0.000 HD
ATOM     29  H   UNL     1       0.816   4.145  17.834  0.00  0.00    +0.000 HD
ENDBRANCH  24  27
ENDBRANCH  17  18
ENDBRANCH  12  17
TORSDOF 4
ENDMDL
MODEL 7
REMARK VINA RESULT:      -7.5      4.329      7.919
REMARK  Name = 
REMARK  6 active torsions:
REMARK  status: ('A' for Active; 'I' for Inactive)
REMARK    1  A    between atoms: C_1  and  O_2
REMARK    2  A    between atoms: O_2  and  C_3
REMARK    3  A    between atoms: C_12  and  C_13
REMARK    4  A    between atoms: N_14  and  C_15
REMARK    5  A    between atoms: C_15  and  C_16
REMARK    6  A    between atoms: C_22  and  N_23
REMARK                            x       y       z     vdW  Elec       q    Type
REMARK                         _______ _______ _______ _____ _____    ______ ____
ROOT
ATOM      1  C   UNL     1       3.993   5.949  18.027  0.00  0.00    +0.000 A 
ATOM      2  C   UNL     1       3.624   7.219  17.594  0.00  0.00    +0.000 A 
ATOM      3  C   UNL     1       2.647   7.970  18.290  0.00  0.00    +0.000 A 
ATOM      4  C   UNL     1       2.049   7.484  19.465  0.00  0.00    +0.000 A 
ATOM      5  C   UNL     1       2.389   6.183  19.823  0.00  0.00    +0.000 A 
ATOM      6  C   UNL     1       3.331   5.445  19.132  0.00  0.00    +0.000 A 
ATOM      7  O   UNL     1       3.515   4.206  19.673  0.00  0.00    +0.000 OA
ATOM      8  C   UNL     1       2.565   4.227  20.748  0.00  0.00    +0.000 C 
ATOM      9  O   UNL     1       1.856   5.475  20.860  0.00  0.00    +0.000 OA
ATOM     10  C   UNL     1       1.041   8.315  20.263  0.00  0.00    +0.000 C 
ATOM     11  C   UNL     1       1.524   8.459  21.719  0.00  0.00    +0.000 C 
ATOM     12  N   UNL     1       0.799   9.692  19.720  0.00  0.00    +0.000 NA
ATOM     13  C   UNL     1       0.858   9.703  18.248  0.00  0.00    +0.000 C 
ATOM     14  C   UNL     1       2.251   9.316  17.756  0.00  0.00    +0.000 C 
ENDROOT
BRANCH   1  16
ATOM     15  C   UNL     1       5.186   5.451  16.055  0.00  0.00    +0.000 C 
ATOM     16  O   UNL     1       4.914   5.147  17.416  0.00  0.00    +0.000 OA
ENDBRANCH   1  16
BRANCH  12  17
ATOM     17  C   UNL     1      -0.495  10.242  20.207  0.00  0.00    +0.000 C 
BRANCH  17  18
ATOM     18  C   UNL     1      -0.332  11.485  21.038  0.00  0.00    +0.000 A 
ATOM     19  C   UNL     1       0.122  12.660  20.469  0.00  0.00    +0.000 A 
ATOM     20  N   UNL     1       0.151  13.843  21.109  0.00  0.00    +0.000 NA
ATOM     21  C   UNL     1      -0.301  13.839  22.363  0.00  0.00    +0.000 A 
ATOM     22  N   UNL     1      -0.375  15.051  23.015  0.00  0.00    +0.000 N 
ATOM     23  N   UNL     1      -0.679  12.750  23.038  0.00  0.00    +0.000 NA
ATOM     24  C   UNL     1      -0.688  11.588  22.370  0.00  0.00    +0.000 A 
ATOM     25  H   UNL     1       0.300  15.690  22.621  0.00  0.00    +0.000 HD
ATOM     26  H   UNL     1      -0.360  14.907  24.013  0.00  0.00    +0.000 HD
BRANCH  24  27
ATOM     27  N   UNL     1      -1.055  10.477  23.129  0.00  0.00    +0.000 N 
ATOM     28  H   UNL     1      -1.760  10.790  23.793  0.00  0.00    +0.000 HD
ATOM     29  H   UNL     1      -1.389   9.704  22.569  0.00  0.00    +0.000 HD
ENDBRANCH  24  27
ENDBRANCH  17  18
ENDBRANCH  12  17
TORSDOF 4
ENDMDL
MODEL 8
REMARK VINA RESULT:      -7.4      4.194      8.200
REMARK  Name = 
REMARK  6 active torsions:
REMARK  status: ('A' for Active; 'I' for Inactive)
REMARK    1  A    between atoms: C_1  and  O_2
REMARK    2  A    between atoms: O_2  and  C_3
REMARK    3  A    between atoms: C_12  and  C_13
REMARK    4  A    between atoms: N_14  and  C_15
REMARK    5  A    between atoms: C_15  and  C_16
REMARK    6  A    between atoms: C_22  and  N_23
REMARK                            x       y       z     vdW  Elec       q    Type
REMARK                         _______ _______ _______ _____ _____    ______ ____
ROOT
ATOM      1  C   UNL     1       3.265   4.350  19.669  0.00  0.00    +0.000 A 
ATOM      2  C   UNL     1       2.316   4.986  20.463  0.00  0.00    +0.000 A 
ATOM      3  C   UNL     1       1.971   6.341  20.243  0.00  0.00    +0.000 A 
ATOM      4  C   UNL     1       2.539   7.079  19.191  0.00  0.00    +0.000 A 
ATOM      5  C   UNL     1       3.537   6.433  18.467  0.00  0.00    +0.000 A 
ATOM      6  C   UNL     1       3.883   5.114  18.695  0.00  0.00    +0.000 A 
ATOM      7  O   UNL     1       4.871   4.687  17.857  0.00  0.00    +0.000 OA
ATOM      8  C   UNL     1       5.137   5.881  17.108  0.00  0.00    +0.000 C 
ATOM      9  O   UNL     1       4.292   6.988  17.477  0.00  0.00    +0.000 OA
ATOM     10  C   UNL     1       2.126   8.525  18.902  0.00  0.00    +0.000 C 
ATOM     11  C   UNL     1       1.646   8.646  17.443  0.00  0.00    +0.000 C 
ATOM     12  N   UNL     1       1.038   9.052  19.790  0.00  0.00    +0.000 NA
ATOM     13  C   UNL     1       1.154   8.510  21.155  0.00  0.00    +0.000 C 
ATOM     14  C   UNL     1       0.975   6.993  21.156  0.00  0.00    +0.000 C 
ENDROOT
BRANCH   1  16
ATOM     15  C   UNL     1       2.848   2.081  19.181  0.00  0.00    +0.000 C 
ATOM     16  O   UNL     1       3.669   3.053  19.813  0.00  0.00    +0.000 OA
ENDBRANCH   1  16
BRANCH  12  17
ATOM     17  C   UNL     1       1.029  10.539  19.804  0.00  0.00    +0.000 C 
BRANCH  17  18
ATOM     18  C   UNL     1      -0.357  11.120  19.875  0.00  0.00    +0.000 A 
ATOM     19  C   UNL     1      -0.797  11.758  21.019  0.00  0.00    +0.000 A 
ATOM     20  N   UNL     1      -1.960  12.428  21.106  0.00  0.00    +0.000 NA
ATOM     21  C   UNL     1      -2.697  12.463  19.997  0.00  0.00    +0.000 A 
ATOM     22  N   UNL     1      -3.847  13.223  20.022  0.00  0.00    +0.000 N 
ATOM     23  N   UNL     1      -2.412  11.812  18.866  0.00  0.00    +0.000 NA
ATOM     24  C   UNL     1      -1.248  11.148  18.819  0.00  0.00    +0.000 A 
ATOM     25  H   UNL     1      -4.184  13.296  20.972  0.00  0.00    +0.000 HD
ATOM     26  H   UNL     1      -4.491  12.895  19.318  0.00  0.00    +0.000 HD
BRANCH  24  27
ATOM     27  N   UNL     1      -1.015  10.455  17.631  0.00  0.00    +0.000 N 
ATOM     28  H   UNL     1      -0.927  11.151  16.893  0.00  0.00    +0.000 HD
ATOM     29  H   UNL     1      -0.203   9.853  17.673  0.00  0.00    +0.000 HD
ENDBRANCH  24  27
ENDBRANCH  17  18
ENDBRANCH  12  17
TORSDOF 4
ENDMDL
MODEL 9
REMARK VINA RESULT:      -7.4      1.783      3.418
REMARK  Name = 
REMARK  6 active torsions:
REMARK  status: ('A' for Active; 'I' for Inactive)
REMARK    1  A    between atoms: C_1  and  O_2
REMARK    2  A    between atoms: O_2  and  C_3
REMARK    3  A    between atoms: C_12  and  C_13
REMARK    4  A    between atoms: N_14  and  C_15
REMARK    5  A    between atoms: C_15  and  C_16
REMARK    6  A    between atoms: C_22  and  N_23
REMARK                            x       y       z     vdW  Elec       q    Type
REMARK                         _______ _______ _______ _____ _____    ______ ____
ROOT
ATOM      1  C   UNL     1      -0.584  11.419  21.658  0.00  0.00    +0.000 A 
ATOM      2  C   UNL     1       0.214  10.364  22.088  0.00  0.00    +0.000 A 
ATOM      3  C   UNL     1       0.802   9.471  21.161  0.00  0.00    +0.000 A 
ATOM      4  C   UNL     1       0.640   9.642  19.775  0.00  0.00    +0.000 A 
ATOM      5  C   UNL     1      -0.225  10.662  19.388  0.00  0.00    +0.000 A 
ATOM      6  C   UNL     1      -0.811  11.522  20.297  0.00  0.00    +0.000 A 
ATOM      7  O   UNL     1      -1.604  12.452  19.690  0.00  0.00    +0.000 OA
ATOM      8  C   UNL     1      -1.487  12.064  18.315  0.00  0.00    +0.000 C 
ATOM      9  O   UNL     1      -0.609  10.941  18.110  0.00  0.00    +0.000 OA
ATOM     10  C   UNL     1       1.325   8.722  18.761  0.00  0.00    +0.000 C 
ATOM     11  C   UNL     1       2.175   9.563  17.789  0.00  0.00    +0.000 C 
ATOM     12  N   UNL     1       2.216   7.679  19.367  0.00  0.00    +0.000 NA
ATOM     13  C   UNL     1       1.675   7.195  20.649  0.00  0.00    +0.000 C 
ATOM     14  C   UNL     1       1.618   8.322  21.677  0.00  0.00    +0.000 C 
ENDROOT
BRANCH   1  16
ATOM     15  C   UNL     1      -2.362  11.851  23.146  0.00  0.00    +0.000 C 
ATOM     16  O   UNL     1      -1.201  12.322  22.476  0.00  0.00    +0.000 OA
ENDBRANCH   1  16
BRANCH  12  17
ATOM     17  C   UNL     1       2.443   6.552  18.424  0.00  0.00    +0.000 C 
BRANCH  17  18
ATOM     18  C   UNL     1       3.874   6.088  18.392  0.00  0.00    +0.000 A 
ATOM     19  C   UNL     1       4.380   5.289  19.400  0.00  0.00    +0.000 A 
ATOM     20  N   UNL     1       5.596   4.716  19.367  0.00  0.00    +0.000 NA
ATOM     21  C   UNL     1       6.321   4.951  18.274  0.00  0.00    +0.000 A 
ATOM     22  N   UNL     1       7.532   4.302  18.164  0.00  0.00    +0.000 N 
ATOM     23  N   UNL     1       5.970   5.775  17.283  0.00  0.00    +0.000 NA
ATOM     24  C   UNL     1       4.753   6.334  17.354  0.00  0.00    +0.000 A 
ATOM     25  H   UNL     1       7.884   4.083  19.085  0.00  0.00    +0.000 HD
ATOM     26  H   UNL     1       8.139   4.808  17.536  0.00  0.00    +0.000 HD
BRANCH  24  27
ATOM     27  N   UNL     1       4.449   7.213  16.315  0.00  0.00    +0.000 N 
ATOM     28  H   UNL     1       5.248   7.214  15.683  0.00  0.00    +0.000 HD
ATOM     29  H   UNL     1       3.593   6.977  15.831  0.00  0.00    +0.000 HD
ENDBRANCH  24  27
ENDBRANCH  17  18
ENDBRANCH  12  17
TORSDOF 4
ENDMDL
