MODEL 1
REMARK VINA RESULT:      -8.4      0.000      0.000
REMARK  Name = 
REMARK  8 active torsions:
REMARK  status: ('A' for Active; 'I' for Inactive)
REMARK    1  A    between atoms: C_1  and  O_2
REMARK    2  A    between atoms: O_2  and  C_3
REMARK    3  A    between atoms: C_8  and  C_9
REMARK    4  A    between atoms: C_9  and  N_10
REMARK    5  A    between atoms: N_10  and  C_14
REMARK    6  A    between atoms: C_11  and  C_12
REMARK    7  A    between atoms: C_20  and  O_21
REMARK    8  A    between atoms: O_21  and  C_22
REMARK                            x       y       z     vdW  Elec       q    Type
REMARK                         _______ _______ _______ _____ _____    ______ ____
ROOT
ATOM      1  C   UNL     1       4.440   3.825  17.753  0.00  0.00    +0.000 A 
ATOM      2  C   UNL     1       4.984   3.891  19.039  0.00  0.00    +0.000 A 
ATOM      3  N   UNL     1       6.089   4.594  19.365  0.00  0.00    +0.000 NA
ATOM      4  C   UNL     1       6.706   5.235  18.355  0.00  0.00    +0.000 A 
ATOM      5  F   UNL     1       7.754   6.011  18.669  0.00  0.00    +0.000 F 
ATOM      6  C   UNL     1       6.305   5.172  17.034  0.00  0.00    +0.000 A 
ATOM      7  C   UNL     1       5.129   4.480  16.730  0.00  0.00    +0.000 A 
ENDROOT
BRANCH   1   8
ATOM      8  N   UNL     1       3.147   3.236  17.554  0.00  0.00    +0.000 N 
ATOM      9  C   UNL     1       2.907   2.017  18.211  0.00  0.00    +0.000 C 
ATOM     10  C   UNL     1       4.072   1.054  18.337  0.00  0.00    +0.000 C 
ATOM     11  O   UNL     1       1.830   1.721  18.726  0.00  0.00    +0.000 OA
BRANCH   8  12
ATOM     12  C   UNL     1       2.068   4.253  17.599  0.00  0.00    +0.000 C 
BRANCH  12  18
ATOM     13  C   UNL     1       1.768   5.346  19.902  0.00  0.00    +0.000 A 
ATOM     14  C   UNL     1       1.626   6.531  20.648  0.00  0.00    +0.000 A 
ATOM     15  C   UNL     1       1.951   7.771  20.101  0.00  0.00    +0.000 A 
ATOM     16  C   UNL     1       2.431   7.843  18.802  0.00  0.00    +0.000 A 
ATOM     17  C   UNL     1       2.537   6.682  18.037  0.00  0.00    +0.000 A 
ATOM     18  C   UNL     1       2.183   5.423  18.558  0.00  0.00    +0.000 A 
BRANCH  13  20
ATOM     19  C   UNL     1       2.182   3.720  21.561  0.00  0.00    +0.000 C 
ATOM     20  O   UNL     1       1.441   4.113  20.405  0.00  0.00    +0.000 OA
ENDBRANCH  13  20
ENDBRANCH  12  18
ENDBRANCH   8  12
ENDBRANCH   1   8
BRANCH   7  21
ATOM     21  O   UNL     1       4.640   4.390  15.444  0.00  0.00    +0.000 OA
BRANCH  21  22
ATOM     22  C   UNL     1       5.544   4.331  14.407  0.00  0.00    +0.000 A 
ATOM     23  C   UNL     1       5.207   3.525  13.317  0.00  0.00    +0.000 A 
ATOM     24  C   UNL     1       6.077   3.421  12.231  0.00  0.00    +0.000 A 
ATOM     25  C   UNL     1       7.284   4.123  12.233  0.00  0.00    +0.000 A 
ATOM     26  C   UNL     1       7.609   4.948  13.309  0.00  0.00    +0.000 A 
ATOM     27  C   UNL     1       6.730   5.068  14.381  0.00  0.00    +0.000 A 
ENDBRANCH  21  22
ENDBRANCH   7  21
TORSDOF 6
ENDMDL
MODEL 2
REMARK VINA RESULT:      -8.3      2.427      6.901
REMARK  Name = 
REMARK  8 active torsions:
REMARK  status: ('A' for Active; 'I' for Inactive)
REMARK    1  A    between atoms: C_1  and  O_2
REMARK    2  A    between atoms: O_2  and  C_3
REMARK    3  A    between atoms: C_8  and  C_9
REMARK    4  A    between atoms: C_9  and  N_10
REMARK    5  A    between atoms: N_10  and  C_14
REMARK    6  A    between atoms: C_11  and  C_12
REMARK    7  A    between atoms: C_20  and  O_21
REMARK    8  A    between atoms: O_21  and  C_22
REMARK                            x       y       z     vdW  Elec       q    Type
REMARK                         _______ _______ _______ _____ _____    ______ ____
ROOT
ATOM      1  C   UNL     1       4.253   3.982  17.349  0.00  0.00    +0.000 A 
ATOM      2  C   UNL     1       4.003   2.627  17.581  0.00  0.00    +0.000 A 
ATOM      3  N   UNL     1       2.803   2.121  17.938  0.00  0.00    +0.000 NA
ATOM      4  C   UNL     1       1.809   3.012  18.109  0.00  0.00    +0.000 A 
ATOM      5  F   UNL     1       0.589   2.528  18.377  0.00  0.00    +0.000 F 
ATOM      6  C   UNL     1       1.963   4.380  17.987  0.00  0.00    +0.000 A 
ATOM      7  C   UNL     1       3.201   4.875  17.566  0.00  0.00    +0.000 A 
ENDROOT
BRANCH   1   8
ATOM      8  N   UNL     1       5.498   4.389  16.762  0.00  0.00    +0.000 N 
ATOM      9  C   UNL     1       6.552   4.654  17.653  0.00  0.00    +0.000 C 
ATOM     10  C   UNL     1       6.195   5.293  18.982  0.00  0.00    +0.000 C 
ATOM     11  O   UNL     1       7.723   4.351  17.432  0.00  0.00    +0.000 OA
BRANCH   8  12
ATOM     12  C   UNL     1       5.819   3.594  15.551  0.00  0.00    +0.000 C 
BRANCH  12  18
ATOM     13  C   UNL     1       6.134   3.870  13.018  0.00  0.00    +0.000 A 
ATOM     14  C   UNL     1       6.929   4.354  11.963  0.00  0.00    +0.000 A 
ATOM     15  C   UNL     1       7.939   5.287  12.191  0.00  0.00    +0.000 A 
ATOM     16  C   UNL     1       8.162   5.756  13.477  0.00  0.00    +0.000 A 
ATOM     17  C   UNL     1       7.410   5.254  14.538  0.00  0.00    +0.000 A 
ATOM     18  C   UNL     1       6.407   4.286  14.336  0.00  0.00    +0.000 A 
BRANCH  13  20
ATOM     19  C   UNL     1       4.417   3.073  11.608  0.00  0.00    +0.000 C 
ATOM     20  O   UNL     1       5.144   2.939  12.831  0.00  0.00    +0.000 OA
ENDBRANCH  13  20
ENDBRANCH  12  18
ENDBRANCH   8  12
ENDBRANCH   1   8
BRANCH   7  21
ATOM     21  O   UNL     1       3.435   6.222  17.391  0.00  0.00    +0.000 OA
BRANCH  21  22
ATOM     22  C   UNL     1       2.760   7.110  18.198  0.00  0.00    +0.000 A 
ATOM     23  C   UNL     1       2.287   8.279  17.599  0.00  0.00    +0.000 A 
ATOM     24  C   UNL     1       1.593   9.221  18.359  0.00  0.00    +0.000 A 
ATOM     25  C   UNL     1       1.371   8.996  19.720  0.00  0.00    +0.000 A 
ATOM     26  C   UNL     1       1.821   7.817  20.313  0.00  0.00    +0.000 A 
ATOM     27  C   UNL     1       2.493   6.868  19.548  0.00  0.00    +0.000 A 
ENDBRANCH  21  22
ENDBRANCH   7  21
TORSDOF 6
ENDMDL
MODEL 3
REMARK VINA RESULT:      -8.2      1.832      4.798
REMARK  Name = 
REMARK  8 active torsions:
REMARK  status: ('A' for Active; 'I' for Inactive)
REMARK    1  A    between atoms: C_1  and  O_2
REMARK    2  A    between atoms: O_2  and  C_3
REMARK    3  A    between atoms: C_8  and  C_9
REMARK    4  A    between atoms: C_9  and  N_10
REMARK    5  A    between atoms: N_10  and  C_14
REMARK    6  A    between atoms: C_11  and  C_12
REMARK    7  A    between atoms: C_20  and  O_21
REMARK    8  A    between atoms: O_21  and  C_22
REMARK                            x       y       z     vdW  Elec       q    Type
REMARK                         _______ _______ _______ _____ _____    ______ ____
ROOT
ATOM      1  C   UNL     1       6.201   4.949  16.809  0.00  0.00    +0.000 A 
ATOM      2  C   UNL     1       7.349   4.309  17.282  0.00  0.00    +0.000 A 
ATOM      3  N   UNL     1       8.145   4.791  18.260  0.00  0.00    +0.000 NA
ATOM      4  C   UNL     1       7.801   5.988  18.770  0.00  0.00    +0.000 A 
ATOM      5  F   UNL     1       8.524   6.447  19.802  0.00  0.00    +0.000 F 
ATOM      6  C   UNL     1       6.736   6.747  18.323  0.00  0.00    +0.000 A 
ATOM      7  C   UNL     1       5.898   6.203  17.345  0.00  0.00    +0.000 A 
ENDROOT
BRANCH   1   8
ATOM      8  N   UNL     1       5.306   4.254  15.928  0.00  0.00    +0.000 N 
ATOM      9  C   UNL     1       5.753   4.061  14.609  0.00  0.00    +0.000 C 
ATOM     10  C   UNL     1       6.585   5.167  13.988  0.00  0.00    +0.000 C 
ATOM     11  O   UNL     1       5.550   3.033  13.965  0.00  0.00    +0.000 OA
BRANCH   8  12
ATOM     12  C   UNL     1       4.661   3.099  16.600  0.00  0.00    +0.000 C 
BRANCH  12  18
ATOM     13  C   UNL     1       3.693   2.997  18.975  0.00  0.00    +0.000 A 
ATOM     14  C   UNL     1       2.550   2.976  19.795  0.00  0.00    +0.000 A 
ATOM     15  C   UNL     1       1.302   3.354  19.302  0.00  0.00    +0.000 A 
ATOM     16  C   UNL     1       1.182   3.769  17.984  0.00  0.00    +0.000 A 
ATOM     17  C   UNL     1       2.298   3.755  17.149  0.00  0.00    +0.000 A 
ATOM     18  C   UNL     1       3.562   3.344  17.616  0.00  0.00    +0.000 A 
BRANCH  13  20
ATOM     19  C   UNL     1       4.918   1.732  20.548  0.00  0.00    +0.000 C 
ATOM     20  O   UNL     1       4.931   2.615  19.424  0.00  0.00    +0.000 OA
ENDBRANCH  13  20
ENDBRANCH  12  18
ENDBRANCH   8  12
ENDBRANCH   1   8
BRANCH   7  21
ATOM     21  O   UNL     1       4.797   6.877  16.862  0.00  0.00    +0.000 OA
BRANCH  21  22
ATOM     22  C   UNL     1       3.795   7.207  17.748  0.00  0.00    +0.000 A 
ATOM     23  C   UNL     1       2.989   8.297  17.416  0.00  0.00    +0.000 A 
ATOM     24  C   UNL     1       1.954   8.685  18.268  0.00  0.00    +0.000 A 
ATOM     25  C   UNL     1       1.726   7.983  19.454  0.00  0.00    +0.000 A 
ATOM     26  C   UNL     1       2.515   6.878  19.774  0.00  0.00    +0.000 A 
ATOM     27  C   UNL     1       3.531   6.479  18.911  0.00  0.00    +0.000 A 
ENDBRANCH  21  22
ENDBRANCH   7  21
TORSDOF 6
ENDMDL
MODEL 4
REMARK VINA RESULT:      -7.9      1.510      2.096
REMARK  Name = 
REMARK  8 active torsions:
REMARK  status: ('A' for Active; 'I' for Inactive)
REMARK    1  A    between atoms: C_1  and  O_2
REMARK    2  A    between atoms: O_2  and  C_3
REMARK    3  A    between atoms: C_8  and  C_9
REMARK    4  A    between atoms: C_9  and  N_10
REMARK    5  A    between atoms: N_10  and  C_14
REMARK    6  A    between atoms: C_11  and  C_12
REMARK    7  A    between atoms: C_20  and  O_21
REMARK    8  A    between atoms: O_21  and  C_22
REMARK                            x       y       z     vdW  Elec       q    Type
REMARK                         _______ _______ _______ _____ _____    ______ ____
ROOT
ATOM      1  C   UNL     1       4.695   5.199  18.433  0.00  0.00    +0.000 A 
ATOM      2  C   UNL     1       5.295   4.984  19.676  0.00  0.00    +0.000 A 
ATOM      3  N   UNL     1       6.603   5.191  19.940  0.00  0.00    +0.000 NA
ATOM      4  C   UNL     1       7.361   5.599  18.905  0.00  0.00    +0.000 A 
ATOM      5  F   UNL     1       8.643   5.896  19.161  0.00  0.00    +0.000 F 
ATOM      6  C   UNL     1       6.891   5.764  17.616  0.00  0.00    +0.000 A 
ATOM      7  C   UNL     1       5.524   5.593  17.380  0.00  0.00    +0.000 A 
ENDROOT
BRANCH   1   8
ATOM      8  N   UNL     1       3.266   5.162  18.313  0.00  0.00    +0.000 N 
ATOM      9  C   UNL     1       2.693   3.908  18.040  0.00  0.00    +0.000 C 
ATOM     10  C   UNL     1       3.468   2.973  17.131  0.00  0.00    +0.000 C 
ATOM     11  O   UNL     1       1.638   3.518  18.536  0.00  0.00    +0.000 OA
BRANCH   8  12
ATOM     12  C   UNL     1       2.607   5.996  19.349  0.00  0.00    +0.000 C 
BRANCH  12  18
ATOM     13  C   UNL     1       1.561   8.268  19.926  0.00  0.00    +0.000 A 
ATOM     14  C   UNL     1       1.101   9.517  19.471  0.00  0.00    +0.000 A 
ATOM     15  C   UNL     1       1.450   9.997  18.209  0.00  0.00    +0.000 A 
ATOM     16  C   UNL     1       2.271   9.239  17.389  0.00  0.00    +0.000 A 
ATOM     17  C   UNL     1       2.700   7.981  17.811  0.00  0.00    +0.000 A 
ATOM     18  C   UNL     1       2.333   7.461  19.067  0.00  0.00    +0.000 A 
BRANCH  13  20
ATOM     19  C   UNL     1       0.068   8.350  21.752  0.00  0.00    +0.000 C 
ATOM     20  O   UNL     1       1.223   7.759  21.154  0.00  0.00    +0.000 OA
ENDBRANCH  13  20
ENDBRANCH  12  18
ENDBRANCH   8  12
ENDBRANCH   1   8
BRANCH   7  21
ATOM     21  O   UNL     1       4.965   5.766  16.132  0.00  0.00    +0.000 OA
BRANCH  21  22
ATOM     22  C   UNL     1       5.611   5.215  15.047  0.00  0.00    +0.000 A 
ATOM     23  C   UNL     1       4.914   4.250  14.317  0.00  0.00    +0.000 A 
ATOM     24  C   UNL     1       5.510   3.653  13.205  0.00  0.00    +0.000 A 
ATOM     25  C   UNL     1       6.802   4.019  12.823  0.00  0.00    +0.000 A 
ATOM     26  C   UNL     1       7.489   5.000  13.537  0.00  0.00    +0.000 A 
ATOM     27  C   UNL     1       6.885   5.611  14.631  0.00  0.00    +0.000 A 
ENDBRANCH  21  22
ENDBRANCH   7  21
TORSDOF 6
ENDMDL
MODEL 5
REMARK VINA RESULT:      -7.7      2.474      4.960
REMARK  Name = 
REMARK  8 active torsions:
REMARK  status: ('A' for Active; 'I' for Inactive)
REMARK    1  A    between atoms: C_1  and  O_2
REMARK    2  A    between atoms: O_2  and  C_3
REMARK    3  A    between atoms: C_8  and  C_9
REMARK    4  A    between atoms: C_9  and  N_10
REMARK    5  A    between atoms: N_10  and  C_14
REMARK    6  A    between atoms: C_11  and  C_12
REMARK    7  A    between atoms: C_20  and  O_21
REMARK    8  A    between atoms: O_21  and  C_22
REMARK                            x       y       z     vdW  Elec       q    Type
REMARK                         _______ _______ _______ _____ _____    ______ ____
ROOT
ATOM      1  C   UNL     1       5.963   4.849  16.503  0.00  0.00    +0.000 A 
ATOM      2  C   UNL     1       6.407   5.616  15.422  0.00  0.00    +0.000 A 
ATOM      3  N   UNL     1       6.242   5.276  14.126  0.00  0.00    +0.000 NA
ATOM      4  C   UNL     1       5.637   4.097  13.892  0.00  0.00    +0.000 A 
ATOM      5  F   UNL     1       5.383   3.779  12.615  0.00  0.00    +0.000 F 
ATOM      6  C   UNL     1       5.232   3.222  14.882  0.00  0.00    +0.000 A 
ATOM      7  C   UNL     1       5.367   3.619  16.216  0.00  0.00    +0.000 A 
ENDROOT
BRANCH   1   8
ATOM      8  N   UNL     1       5.990   5.399  17.828  0.00  0.00    +0.000 N 
ATOM      9  C   UNL     1       7.252   5.507  18.435  0.00  0.00    +0.000 C 
ATOM     10  C   UNL     1       8.261   4.413  18.142  0.00  0.00    +0.000 C 
ATOM     11  O   UNL     1       7.591   6.457  19.138  0.00  0.00    +0.000 OA
BRANCH   8  12
ATOM     12  C   UNL     1       5.075   6.560  17.958  0.00  0.00    +0.000 C 
BRANCH  12  18
ATOM     13  C   UNL     1       2.710   7.312  18.614  0.00  0.00    +0.000 A 
ATOM     14  C   UNL     1       1.676   7.294  19.569  0.00  0.00    +0.000 A 
ATOM     15  C   UNL     1       1.666   6.358  20.602  0.00  0.00    +0.000 A 
ATOM     16  C   UNL     1       2.684   5.421  20.689  0.00  0.00    +0.000 A 
ATOM     17  C   UNL     1       3.736   5.454  19.774  0.00  0.00    +0.000 A 
ATOM     18  C   UNL     1       3.785   6.412  18.743  0.00  0.00    +0.000 A 
BRANCH  13  20
ATOM     19  C   UNL     1       2.038   9.439  17.842  0.00  0.00    +0.000 C 
ATOM     20  O   UNL     1       2.759   8.230  17.596  0.00  0.00    +0.000 OA
ENDBRANCH  13  20
ENDBRANCH  12  18
ENDBRANCH   8  12
ENDBRANCH   1   8
BRANCH   7  21
ATOM     21  O   UNL     1       4.964   2.822  17.265  0.00  0.00    +0.000 OA
BRANCH  21  22
ATOM     22  C   UNL     1       3.642   2.869  17.648  0.00  0.00    +0.000 A 
ATOM     23  C   UNL     1       3.245   2.001  18.668  0.00  0.00    +0.000 A 
ATOM     24  C   UNL     1       1.920   1.999  19.105  0.00  0.00    +0.000 A 
ATOM     25  C   UNL     1       0.990   2.862  18.522  0.00  0.00    +0.000 A 
ATOM     26  C   UNL     1       1.391   3.746  17.521  0.00  0.00    +0.000 A 
ATOM     27  C   UNL     1       2.718   3.764  17.102  0.00  0.00    +0.000 A 
ENDBRANCH  21  22
ENDBRANCH   7  21
TORSDOF 6
ENDMDL
MODEL 6
REMARK VINA RESULT:      -7.7      9.972     12.975
REMARK  Name = 
REMARK  8 active torsions:
REMARK  status: ('A' for Active; 'I' for Inactive)
REMARK    1  A    between atoms: C_1  and  O_2
REMARK    2  A    between atoms: O_2  and  C_3
REMARK    3  A    between atoms: C_8  and  C_9
REMARK    4  A    between atoms: C_9  and  N_10
REMARK    5  A    between atoms: N_10  and  C_14
REMARK    6  A    between atoms: C_11  and  C_12
REMARK    7  A    between atoms: C_20  and  O_21
REMARK    8  A    between atoms: O_21  and  C_22
REMARK                            x       y       z     vdW  Elec       q    Type
REMARK                         _______ _______ _______ _____ _____    ______ ____
ROOT
ATOM      1  C   UNL     1      -6.469  12.696  19.499  0.00  0.00    +0.000 A 
ATOM      2  C   UNL     1      -7.431  12.231  20.400  0.00  0.00    +0.000 A 
ATOM      3  N   UNL     1      -7.798  10.938  20.526  0.00  0.00    +0.000 NA
ATOM      4  C   UNL     1      -7.203  10.067  19.689  0.00  0.00    +0.000 A 
ATOM      5  F   UNL     1      -7.485   8.766  19.854  0.00  0.00    +0.000 F 
ATOM      6  C   UNL     1      -6.301  10.426  18.706  0.00  0.00    +0.000 A 
ATOM      7  C   UNL     1      -5.899  11.763  18.629  0.00  0.00    +0.000 A 
ENDROOT
BRANCH   1   8
ATOM      8  N   UNL     1      -5.994  14.047  19.595  0.00  0.00    +0.000 N 
ATOM      9  C   UNL     1      -6.718  15.017  18.881  0.00  0.00    +0.000 C 
ATOM     10  C   UNL     1      -7.302  14.603  17.544  0.00  0.00    +0.000 C 
ATOM     11  O   UNL     1      -6.942  16.149  19.306  0.00  0.00    +0.000 OA
BRANCH   8  12
ATOM     12  C   UNL     1      -5.590  14.389  20.982  0.00  0.00    +0.000 C 
BRANCH  12  18
ATOM     13  C   UNL     1      -4.793  13.156  23.087  0.00  0.00    +0.000 A 
ATOM     14  C   UNL     1      -3.726  12.561  23.787  0.00  0.00    +0.000 A 
ATOM     15  C   UNL     1      -2.537  12.228  23.141  0.00  0.00    +0.000 A 
ATOM     16  C   UNL     1      -2.401  12.476  21.783  0.00  0.00    +0.000 A 
ATOM     17  C   UNL     1      -3.433  13.103  21.087  0.00  0.00    +0.000 A 
ATOM     18  C   UNL     1      -4.630  13.480  21.726  0.00  0.00    +0.000 A 
BRANCH  13  20
ATOM     19  C   UNL     1      -6.834  12.421  24.017  0.00  0.00    +0.000 C 
ATOM     20  O   UNL     1      -5.968  13.512  23.696  0.00  0.00    +0.000 OA
ENDBRANCH  13  20
ENDBRANCH  12  18
ENDBRANCH   8  12
ENDBRANCH   1   8
BRANCH   7  21
ATOM     21  O   UNL     1      -4.983  12.204  17.700  0.00  0.00    +0.000 OA
BRANCH  21  22
ATOM     22  C   UNL     1      -3.926  11.379  17.385  0.00  0.00    +0.000 A 
ATOM     23  C   UNL     1      -3.886  10.866  16.088  0.00  0.00    +0.000 A 
ATOM     24  C   UNL     1      -2.841  10.025  15.702  0.00  0.00    +0.000 A 
ATOM     25  C   UNL     1      -1.835   9.696  16.615  0.00  0.00    +0.000 A 
ATOM     26  C   UNL     1      -1.861  10.230  17.903  0.00  0.00    +0.000 A 
ATOM     27  C   UNL     1      -2.892  11.086  18.278  0.00  0.00    +0.000 A 
ENDBRANCH  21  22
ENDBRANCH   7  21
TORSDOF 6
ENDMDL
MODEL 7
REMARK VINA RESULT:      -7.6      8.174     10.704
REMARK  Name = 
REMARK  8 active torsions:
REMARK  status: ('A' for Active; 'I' for Inactive)
REMARK    1  A    between atoms: C_1  and  O_2
REMARK    2  A    between atoms: O_2  and  C_3
REMARK    3  A    between atoms: C_8  and  C_9
REMARK    4  A    between atoms: C_9  and  N_10
REMARK    5  A    between atoms: N_10  and  C_14
REMARK    6  A    between atoms: C_11  and  C_12
REMARK    7  A    between atoms: C_20  and  O_21
REMARK    8  A    between atoms: O_21  and  C_22
REMARK                            x       y       z     vdW  Elec       q    Type
REMARK                         _______ _______ _______ _____ _____    ______ ____
ROOT
ATOM      1  C   UNL     1      -0.399  12.005  20.803  0.00  0.00    +0.000 A 
ATOM      2  C   UNL     1       0.834  12.645  20.951  0.00  0.00    +0.000 A 
ATOM      3  N   UNL     1       1.254  13.680  20.193  0.00  0.00    +0.000 NA
ATOM      4  C   UNL     1       0.419  14.076  19.214  0.00  0.00    +0.000 A 
ATOM      5  F   UNL     1       0.774  15.157  18.505  0.00  0.00    +0.000 F 
ATOM      6  C   UNL     1      -0.786  13.465  18.925  0.00  0.00    +0.000 A 
ATOM      7  C   UNL     1      -1.221  12.428  19.756  0.00  0.00    +0.000 A 
ENDROOT
BRANCH   1   8
ATOM      8  N   UNL     1      -0.841  11.066  21.795  0.00  0.00    +0.000 N 
ATOM      9  C   UNL     1      -0.149   9.844  21.852  0.00  0.00    +0.000 C 
ATOM     10  C   UNL     1       0.334   9.257  20.539  0.00  0.00    +0.000 C 
ATOM     11  O   UNL     1       0.125   9.264  22.901  0.00  0.00    +0.000 OA
BRANCH   8  12
ATOM     12  C   UNL     1      -1.142  11.734  23.086  0.00  0.00    +0.000 C 
BRANCH  12  18
ATOM     13  C   UNL     1      -1.863  14.165  23.482  0.00  0.00    +0.000 A 
ATOM     14  C   UNL     1      -2.901  15.064  23.791  0.00  0.00    +0.000 A 
ATOM     15  C   UNL     1      -4.238  14.683  23.694  0.00  0.00    +0.000 A 
ATOM     16  C   UNL     1      -4.557  13.399  23.276  0.00  0.00    +0.000 A 
ATOM     17  C   UNL     1      -3.539  12.485  23.007  0.00  0.00    +0.000 A 
ATOM     18  C   UNL     1      -2.181  12.838  23.132  0.00  0.00    +0.000 A 
BRANCH  13  20
ATOM     19  C   UNL     1      -0.173  15.712  22.914  0.00  0.00    +0.000 C 
ATOM     20  O   UNL     1      -0.538  14.503  23.584  0.00  0.00    +0.000 OA
ENDBRANCH  13  20
ENDBRANCH  12  18
ENDBRANCH   8  12
ENDBRANCH   1   8
BRANCH   7  21
ATOM     21  O   UNL     1      -2.422  11.782  19.559  0.00  0.00    +0.000 OA
BRANCH  21  22
ATOM     22  C   UNL     1      -2.690  11.273  18.308  0.00  0.00    +0.000 A 
ATOM     23  C   UNL     1      -1.814  10.303  17.816  0.00  0.00    +0.000 A 
ATOM     24  C   UNL     1      -2.028   9.744  16.556  0.00  0.00    +0.000 A 
ATOM     25  C   UNL     1      -3.118  10.156  15.785  0.00  0.00    +0.000 A 
ATOM     26  C   UNL     1      -4.007  11.106  16.286  0.00  0.00    +0.000 A 
ATOM     27  C   UNL     1      -3.805  11.644  17.553  0.00  0.00    +0.000 A 
ENDBRANCH  21  22
ENDBRANCH   7  21
TORSDOF 6
ENDMDL
MODEL 8
REMARK VINA RESULT:      -7.6      7.795     10.688
REMARK  Name = 
REMARK  8 active torsions:
REMARK  status: ('A' for Active; 'I' for Inactive)
REMARK    1  A    between atoms: C_1  and  O_2
REMARK    2  A    between atoms: O_2  and  C_3
REMARK    3  A    between atoms: C_8  and  C_9
REMARK    4  A    between atoms: C_9  and  N_10
REMARK    5  A    between atoms: N_10  and  C_14
REMARK    6  A    between atoms: C_11  and  C_12
REMARK    7  A    between atoms: C_20  and  O_21
REMARK    8  A    between atoms: O_21  and  C_22
REMARK                            x       y       z     vdW  Elec       q    Type
REMARK                         _______ _______ _______ _____ _____    ______ ____
ROOT
ATOM      1  C   UNL     1      -1.460  13.005  20.535  0.00  0.00    +0.000 A 
ATOM      2  C   UNL     1      -1.077  14.302  20.888  0.00  0.00    +0.000 A 
ATOM      3  N   UNL     1      -0.085  14.995  20.290  0.00  0.00    +0.000 NA
ATOM      4  C   UNL     1       0.585  14.353  19.315  0.00  0.00    +0.000 A 
ATOM      5  F   UNL     1       1.515  15.049  18.647  0.00  0.00    +0.000 F 
ATOM      6  C   UNL     1       0.346  13.044  18.940  0.00  0.00    +0.000 A 
ATOM      7  C   UNL     1      -0.719  12.365  19.539  0.00  0.00    +0.000 A 
ENDROOT
BRANCH   1   8
ATOM      8  N   UNL     1      -2.664  12.443  21.079  0.00  0.00    +0.000 N 
ATOM      9  C   UNL     1      -2.619  12.057  22.429  0.00  0.00    +0.000 C 
ATOM     10  C   UNL     1      -1.315  11.480  22.945  0.00  0.00    +0.000 C 
ATOM     11  O   UNL     1      -3.554  12.212  23.213  0.00  0.00    +0.000 OA
BRANCH   8  12
ATOM     12  C   UNL     1      -3.868  13.181  20.625  0.00  0.00    +0.000 C 
BRANCH  12  18
ATOM     13  C   UNL     1      -6.217  12.158  20.481  0.00  0.00    +0.000 A 
ATOM     14  C   UNL     1      -7.074  11.223  19.870  0.00  0.00    +0.000 A 
ATOM     15  C   UNL     1      -6.736  10.620  18.660  0.00  0.00    +0.000 A 
ATOM     16  C   UNL     1      -5.542  10.951  18.038  0.00  0.00    +0.000 A 
ATOM     17  C   UNL     1      -4.664  11.843  18.653  0.00  0.00    +0.000 A 
ATOM     18  C   UNL     1      -4.969  12.438  19.892  0.00  0.00    +0.000 A 
BRANCH  13  20
ATOM     19  C   UNL     1      -7.541  12.114  22.435  0.00  0.00    +0.000 C 
ATOM     20  O   UNL     1      -6.511  12.756  21.680  0.00  0.00    +0.000 OA
ENDBRANCH  13  20
ENDBRANCH  12  18
ENDBRANCH   8  12
ENDBRANCH   1   8
BRANCH   7  21
ATOM     21  O   UNL     1      -1.047  11.069  19.205  0.00  0.00    +0.000 OA
BRANCH  21  22
ATOM     22  C   UNL     1      -0.054  10.116  19.247  0.00  0.00    +0.000 A 
ATOM     23  C   UNL     1       0.560   9.785  18.037  0.00  0.00    +0.000 A 
ATOM     24  C   UNL     1       1.575   8.828  18.009  0.00  0.00    +0.000 A 
ATOM     25  C   UNL     1       1.977   8.200  19.190  0.00  0.00    +0.000 A 
ATOM     26  C   UNL     1       1.382   8.548  20.402  0.00  0.00    +0.000 A 
ATOM     27  C   UNL     1       0.386   9.519  20.432  0.00  0.00    +0.000 A 
ENDBRANCH  21  22
ENDBRANCH   7  21
TORSDOF 6
ENDMDL
MODEL 9
REMARK VINA RESULT:      -7.6      2.035      5.140
REMARK  Name = 
REMARK  8 active torsions:
REMARK  status: ('A' for Active; 'I' for Inactive)
REMARK    1  A    between atoms: C_1  and  O_2
REMARK    2  A    between atoms: O_2  and  C_3
REMARK    3  A    between atoms: C_8  and  C_9
REMARK    4  A    between atoms: C_9  and  N_10
REMARK    5  A    between atoms: N_10  and  C_14
REMARK    6  A    between atoms: C_11  and  C_12
REMARK    7  A    between atoms: C_20  and  O_21
REMARK    8  A    between atoms: O_21  and  C_22
REMARK                            x       y       z     vdW  Elec       q    Type
REMARK                         _______ _______ _______ _____ _____    ______ ____
ROOT
ATOM      1  C   UNL     1       5.813   5.808  16.698  0.00  0.00    +0.000 A 
ATOM      2  C   UNL     1       7.205   5.893  16.789  0.00  0.00    +0.000 A 
ATOM      3  N   UNL     1       7.876   6.975  17.241  0.00  0.00    +0.000 NA
ATOM      4  C   UNL     1       7.127   8.038  17.585  0.00  0.00    +0.000 A 
ATOM      5  F   UNL     1       7.763   9.091  18.118  0.00  0.00    +0.000 F 
ATOM      6  C   UNL     1       5.752   8.094  17.458  0.00  0.00    +0.000 A 
ATOM      7  C   UNL     1       5.076   6.945  17.037  0.00  0.00    +0.000 A 
ENDROOT
BRANCH   1   8
ATOM      8  N   UNL     1       5.192   4.545  16.417  0.00  0.00    +0.000 N 
ATOM      9  C   UNL     1       5.561   3.920  15.214  0.00  0.00    +0.000 C 
ATOM     10  C   UNL     1       5.832   4.816  14.020  0.00  0.00    +0.000 C 
ATOM     11  O   UNL     1       5.724   2.707  15.098  0.00  0.00    +0.000 OA
BRANCH   8  12
ATOM     12  C   UNL     1       5.116   3.690  17.628  0.00  0.00    +0.000 C 
BRANCH  12  18
ATOM     13  C   UNL     1       3.669   2.909  19.599  0.00  0.00    +0.000 A 
ATOM     14  C   UNL     1       2.405   2.493  20.057  0.00  0.00    +0.000 A 
ATOM     15  C   UNL     1       1.256   2.710  19.299  0.00  0.00    +0.000 A 
ATOM     16  C   UNL     1       1.353   3.355  18.076  0.00  0.00    +0.000 A 
ATOM     17  C   UNL     1       2.603   3.736  17.590  0.00  0.00    +0.000 A 
ATOM     18  C   UNL     1       3.781   3.497  18.324  0.00  0.00    +0.000 A 
BRANCH  13  20
ATOM     19  C   UNL     1       4.969   1.373  20.833  0.00  0.00    +0.000 C 
ATOM     20  O   UNL     1       4.820   2.696  20.312  0.00  0.00    +0.000 OA
ENDBRANCH  13  20
ENDBRANCH  12  18
ENDBRANCH   8  12
ENDBRANCH   1   8
BRANCH   7  21
ATOM     21  O   UNL     1       3.705   6.902  16.910  0.00  0.00    +0.000 OA
BRANCH  21  22
ATOM     22  C   UNL     1       2.942   7.495  17.891  0.00  0.00    +0.000 A 
ATOM     23  C   UNL     1       2.848   6.827  19.114  0.00  0.00    +0.000 A 
ATOM     24  C   UNL     1       2.092   7.374  20.151  0.00  0.00    +0.000 A 
ATOM     25  C   UNL     1       1.428   8.589  19.967  0.00  0.00    +0.000 A 
ATOM     26  C   UNL     1       1.542   9.269  18.755  0.00  0.00    +0.000 A 
ATOM     27  C   UNL     1       2.315   8.734  17.730  0.00  0.00    +0.000 A 
ENDBRANCH  21  22
ENDBRANCH   7  21
TORSDOF 6
ENDMDL
