MODEL 1
REMARK VINA RESULT:      -8.3      0.000      0.000
REMARK  Name = 
REMARK  5 active torsions:
REMARK  status: ('A' for Active; 'I' for Inactive)
REMARK    1  A    between atoms: S_2  and  C_4
REMARK    2  A    between atoms: S_2  and  N_15
REMARK    3  A    between atoms: C_4  and  C_5
REMARK    4  A    between atoms: C_10  and  C_11
REMARK    5  A    between atoms: C_24  and  C_25
REMARK                            x       y       z     vdW  Elec       q    Type
REMARK                         _______ _______ _______ _____ _____    ______ ____
ROOT
ATOM      1  N   UNL     1       4.170   6.500  17.838  0.00  0.00    +0.000 NA
ATOM      2  C   UNL     1       5.295   7.259  17.147  0.00  0.00    +0.000 C 
ATOM      3  C   UNL     1       6.650   6.540  17.371  0.00  0.00    +0.000 C 
ATOM      4  C   UNL     1       6.586   5.244  16.561  0.00  0.00    +0.000 A 
ATOM      5  C   UNL     1       7.603   5.027  15.624  0.00  0.00    +0.000 A 
ATOM      6  C   UNL     1       7.227   4.626  14.358  0.00  0.00    +0.000 A 
ATOM      7  C   UNL     1       5.867   4.431  14.087  0.00  0.00    +0.000 A 
ATOM      8  C   UNL     1       4.898   4.430  15.129  0.00  0.00    +0.000 A 
ATOM      9  C   UNL     1       5.275   4.701  16.452  0.00  0.00    +0.000 A 
ATOM     10  C   UNL     1       4.421   5.005  17.716  0.00  0.00    +0.000 C 
ENDROOT
BRANCH  10  11
ATOM     11  C   UNL     1       3.399   3.969  18.177  0.00  0.00    +0.000 A 
ATOM     12  C   UNL     1       2.553   3.170  17.396  0.00  0.00    +0.000 A 
ATOM     13  N   UNL     1       1.348   3.657  17.988  0.00  0.00    +0.000 N 
ATOM     14  C   UNL     1       1.543   3.385  19.343  0.00  0.00    +0.000 A 
ATOM     15  C   UNL     1       0.613   3.117  20.355  0.00  0.00    +0.000 A 
ATOM     16  C   UNL     1       1.117   2.686  21.568  0.00  0.00    +0.000 A 
ATOM     17  C   UNL     1       2.488   2.637  21.779  0.00  0.00    +0.000 A 
ATOM     18  C   UNL     1       3.413   3.095  20.792  0.00  0.00    +0.000 A 
ATOM     19  C   UNL     1       2.942   3.484  19.504  0.00  0.00    +0.000 A 
ATOM     20  H   UNL     1       1.016   4.581  17.742  0.00  0.00    +0.000 HD
ENDBRANCH  10  11
BRANCH   1  22
ATOM     21  O   UNL     1       1.637   6.289  17.388  0.00  0.00    +0.000 OA
ATOM     22  S   UNL     1       2.657   7.262  17.677  0.00  0.00    +0.000 S 
ATOM     23  O   UNL     1       2.823   8.376  16.757  0.00  0.00    +0.000 OA
BRANCH  22  24
ATOM     24  C   UNL     1       2.415   7.894  19.367  0.00  0.00    +0.000 C 
BRANCH  24  25
ATOM     25  C   UNL     1       1.365   8.999  19.492  0.00  0.00    +0.000 A 
ATOM     26  C   UNL     1       0.876   9.563  18.293  0.00  0.00    +0.000 A 
ATOM     27  C   UNL     1      -0.160  10.500  18.279  0.00  0.00    +0.000 A 
ATOM     28  C   UNL     1      -0.745  10.915  19.468  0.00  0.00    +0.000 A 
ATOM     29  C   UNL     1      -0.313  10.354  20.664  0.00  0.00    +0.000 A 
ATOM     30  C   UNL     1       0.719   9.379  20.716  0.00  0.00    +0.000 A 
BRANCH  30  31
ATOM     31  C   UNL     1       0.992   8.802  22.084  0.00  0.00    +0.000 C 
ATOM     32  F   UNL     1       0.002   8.988  22.995  0.00  0.00    +0.000 F 
ATOM     33  F   UNL     1       1.228   7.463  22.044  0.00  0.00    +0.000 F 
ATOM     34  F   UNL     1       2.108   9.351  22.653  0.00  0.00    +0.000 F 
ENDBRANCH  30  31
ENDBRANCH  24  25
ENDBRANCH  22  24
ENDBRANCH   1  22
TORSDOF 5
ENDMDL
MODEL 2
REMARK VINA RESULT:      -8.3      7.594     10.422
REMARK  Name = 
REMARK  5 active torsions:
REMARK  status: ('A' for Active; 'I' for Inactive)
REMARK    1  A    between atoms: S_2  and  C_4
REMARK    2  A    between atoms: S_2  and  N_15
REMARK    3  A    between atoms: C_4  and  C_5
REMARK    4  A    between atoms: C_10  and  C_11
REMARK    5  A    between atoms: C_24  and  C_25
REMARK                            x       y       z     vdW  Elec       q    Type
REMARK                         _______ _______ _______ _____ _____    ______ ____
ROOT
ATOM      1  N   UNL     1      -0.809  14.029  20.303  0.00  0.00    +0.000 NA
ATOM      2  C   UNL     1      -0.953  15.047  21.426  0.00  0.00    +0.000 C 
ATOM      3  C   UNL     1      -2.418  15.547  21.520  0.00  0.00    +0.000 C 
ATOM      4  C   UNL     1      -3.240  14.368  22.041  0.00  0.00    +0.000 A 
ATOM      5  C   UNL     1      -3.999  14.581  23.198  0.00  0.00    +0.000 A 
ATOM      6  C   UNL     1      -3.914  13.634  24.198  0.00  0.00    +0.000 A 
ATOM      7  C   UNL     1      -3.107  12.508  23.995  0.00  0.00    +0.000 A 
ATOM      8  C   UNL     1      -2.550  12.216  22.718  0.00  0.00    +0.000 A 
ATOM      9  C   UNL     1      -2.735  13.097  21.643  0.00  0.00    +0.000 A 
ATOM     10  C   UNL     1      -2.057  13.161  20.246  0.00  0.00    +0.000 C 
ENDROOT
BRANCH  10  11
ATOM     11  C   UNL     1      -2.162  11.950  19.323  0.00  0.00    +0.000 A 
ATOM     12  C   UNL     1      -1.379  10.787  19.317  0.00  0.00    +0.000 A 
ATOM     13  N   UNL     1      -0.936  10.949  17.968  0.00  0.00    +0.000 N 
ATOM     14  C   UNL     1      -2.136  11.010  17.258  0.00  0.00    +0.000 A 
ATOM     15  C   UNL     1      -2.427  10.641  15.940  0.00  0.00    +0.000 A 
ATOM     16  C   UNL     1      -3.759  10.631  15.573  0.00  0.00    +0.000 A 
ATOM     17  C   UNL     1      -4.731  11.076  16.458  0.00  0.00    +0.000 A 
ATOM     18  C   UNL     1      -4.390  11.625  17.731  0.00  0.00    +0.000 A 
ATOM     19  C   UNL     1      -3.036  11.593  18.177  0.00  0.00    +0.000 A 
ATOM     20  H   UNL     1      -0.236  11.650  17.761  0.00  0.00    +0.000 HD
ENDBRANCH  10  11
BRANCH   1  22
ATOM     21  O   UNL     1       0.987  12.987  18.770  0.00  0.00    +0.000 OA
ATOM     22  S   UNL     1       0.788  13.475  20.109  0.00  0.00    +0.000 S 
ATOM     23  O   UNL     1       1.078  12.577  21.216  0.00  0.00    +0.000 OA
BRANCH  22  24
ATOM     24  C   UNL     1       1.713  15.027  20.321  0.00  0.00    +0.000 C 
BRANCH  24  25
ATOM     25  C   UNL     1       1.862  15.862  19.047  0.00  0.00    +0.000 A 
ATOM     26  C   UNL     1       0.911  16.884  18.831  0.00  0.00    +0.000 A 
ATOM     27  C   UNL     1       1.009  17.778  17.762  0.00  0.00    +0.000 A 
ATOM     28  C   UNL     1       2.062  17.681  16.862  0.00  0.00    +0.000 A 
ATOM     29  C   UNL     1       3.036  16.710  17.065  0.00  0.00    +0.000 A 
ATOM     30  C   UNL     1       2.985  15.801  18.156  0.00  0.00    +0.000 A 
BRANCH  30  31
ATOM     31  C   UNL     1       4.175  14.881  18.282  0.00  0.00    +0.000 C 
ATOM     32  F   UNL     1       5.149  15.068  17.355  0.00  0.00    +0.000 F 
ATOM     33  F   UNL     1       4.780  14.982  19.497  0.00  0.00    +0.000 F 
ATOM     34  F   UNL     1       3.817  13.566  18.163  0.00  0.00    +0.000 F 
ENDBRANCH  30  31
ENDBRANCH  24  25
ENDBRANCH  22  24
ENDBRANCH   1  22
TORSDOF 5
ENDMDL
MODEL 3
REMARK VINA RESULT:      -8.3      5.425      8.354
REMARK  Name = 
REMARK  5 active torsions:
REMARK  status: ('A' for Active; 'I' for Inactive)
REMARK    1  A    between atoms: S_2  and  C_4
REMARK    2  A    between atoms: S_2  and  N_15
REMARK    3  A    between atoms: C_4  and  C_5
REMARK    4  A    between atoms: C_10  and  C_11
REMARK    5  A    between atoms: C_24  and  C_25
REMARK                            x       y       z     vdW  Elec       q    Type
REMARK                         _______ _______ _______ _____ _____    ______ ____
ROOT
ATOM      1  N   UNL     1      -0.679  11.584  19.950  0.00  0.00    +0.000 NA
ATOM      2  C   UNL     1       0.552  11.257  20.784  0.00  0.00    +0.000 C 
ATOM      3  C   UNL     1       0.483   9.796  21.300  0.00  0.00    +0.000 C 
ATOM      4  C   UNL     1       0.670   8.900  20.075  0.00  0.00    +0.000 A 
ATOM      5  C   UNL     1       1.706   7.960  20.124  0.00  0.00    +0.000 A 
ATOM      6  C   UNL     1       2.545   7.879  19.031  0.00  0.00    +0.000 A 
ATOM      7  C   UNL     1       2.301   8.710  17.930  0.00  0.00    +0.000 A 
ATOM      8  C   UNL     1       1.102   9.470  17.828  0.00  0.00    +0.000 A 
ATOM      9  C   UNL     1       0.165   9.464  18.870  0.00  0.00    +0.000 A 
ATOM     10  C   UNL     1      -1.076  10.364  19.134  0.00  0.00    +0.000 C 
ENDROOT
BRANCH  10  11
ATOM     11  C   UNL     1      -2.182  10.414  18.084  0.00  0.00    +0.000 A 
ATOM     12  C   UNL     1      -2.081  10.228  16.699  0.00  0.00    +0.000 A 
ATOM     13  N   UNL     1      -2.612  11.512  16.366  0.00  0.00    +0.000 N 
ATOM     14  C   UNL     1      -3.855  11.502  17.003  0.00  0.00    +0.000 A 
ATOM     15  C   UNL     1      -5.045  12.162  16.675  0.00  0.00    +0.000 A 
ATOM     16  C   UNL     1      -6.175  11.800  17.383  0.00  0.00    +0.000 A 
ATOM     17  C   UNL     1      -6.083  10.903  18.437  0.00  0.00    +0.000 A 
ATOM     18  C   UNL     1      -4.825  10.386  18.873  0.00  0.00    +0.000 A 
ATOM     19  C   UNL     1      -3.643  10.679  18.131  0.00  0.00    +0.000 A 
ATOM     20  H   UNL     1      -2.033  12.333  16.491  0.00  0.00    +0.000 HD
ENDBRANCH  10  11
BRANCH   1  22
ATOM     21  O   UNL     1      -1.884  13.864  19.844  0.00  0.00    +0.000 OA
ATOM     22  S   UNL     1      -0.695  13.192  19.393  0.00  0.00    +0.000 S 
ATOM     23  O   UNL     1      -0.423  13.164  17.964  0.00  0.00    +0.000 OA
BRANCH  22  24
ATOM     24  C   UNL     1       0.744  13.871  20.276  0.00  0.00    +0.000 C 
BRANCH  24  25
ATOM     25  C   UNL     1       1.782  14.551  19.382  0.00  0.00    +0.000 A 
ATOM     26  C   UNL     1       2.909  13.786  19.005  0.00  0.00    +0.000 A 
ATOM     27  C   UNL     1       3.865  14.263  18.106  0.00  0.00    +0.000 A 
ATOM     28  C   UNL     1       3.734  15.529  17.550  0.00  0.00    +0.000 A 
ATOM     29  C   UNL     1       2.619  16.294  17.869  0.00  0.00    +0.000 A 
ATOM     30  C   UNL     1       1.612  15.832  18.759  0.00  0.00    +0.000 A 
BRANCH  30  31
ATOM     31  C   UNL     1       0.421  16.748  18.914  0.00  0.00    +0.000 C 
ATOM     32  F   UNL     1      -0.681  16.384  18.211  0.00  0.00    +0.000 F 
ATOM     33  F   UNL     1       0.026  16.867  20.211  0.00  0.00    +0.000 F 
ATOM     34  F   UNL     1       0.703  18.021  18.502  0.00  0.00    +0.000 F 
ENDBRANCH  30  31
ENDBRANCH  24  25
ENDBRANCH  22  24
ENDBRANCH   1  22
TORSDOF 5
ENDMDL
MODEL 4
REMARK VINA RESULT:      -8.2      3.693      9.072
REMARK  Name = 
REMARK  5 active torsions:
REMARK  status: ('A' for Active; 'I' for Inactive)
REMARK    1  A    between atoms: S_2  and  C_4
REMARK    2  A    between atoms: S_2  and  N_15
REMARK    3  A    between atoms: C_4  and  C_5
REMARK    4  A    between atoms: C_10  and  C_11
REMARK    5  A    between atoms: C_24  and  C_25
REMARK                            x       y       z     vdW  Elec       q    Type
REMARK                         _______ _______ _______ _____ _____    ______ ____
ROOT
ATOM      1  N   UNL     1       0.825  10.629  20.454  0.00  0.00    +0.000 NA
ATOM      2  C   UNL     1      -0.168   9.920  21.365  0.00  0.00    +0.000 C 
ATOM      3  C   UNL     1      -0.422  10.757  22.645  0.00  0.00    +0.000 C 
ATOM      4  C   UNL     1      -1.209  11.991  22.201  0.00  0.00    +0.000 A 
ATOM      5  C   UNL     1      -2.432  12.231  22.837  0.00  0.00    +0.000 A 
ATOM      6  C   UNL     1      -3.519  12.521  22.038  0.00  0.00    +0.000 A 
ATOM      7  C   UNL     1      -3.339  12.590  20.651  0.00  0.00    +0.000 A 
ATOM      8  C   UNL     1      -2.039  12.578  20.072  0.00  0.00    +0.000 A 
ATOM      9  C   UNL     1      -0.903  12.420  20.878  0.00  0.00    +0.000 A 
ATOM     10  C   UNL     1       0.580  12.129  20.509  0.00  0.00    +0.000 C 
ENDROOT
BRANCH  10  11
ATOM     11  C   UNL     1       1.314  13.106  19.596  0.00  0.00    +0.000 A 
ATOM     12  C   UNL     1       0.985  13.497  18.291  0.00  0.00    +0.000 A 
ATOM     13  N   UNL     1       2.219  13.060  17.720  0.00  0.00    +0.000 N 
ATOM     14  C   UNL     1       3.166  13.766  18.463  0.00  0.00    +0.000 A 
ATOM     15  C   UNL     1       4.447  14.208  18.111  0.00  0.00    +0.000 A 
ATOM     16  C   UNL     1       5.078  15.062  18.996  0.00  0.00    +0.000 A 
ATOM     17  C   UNL     1       4.493  15.362  20.217  0.00  0.00    +0.000 A 
ATOM     18  C   UNL     1       3.271  14.749  20.633  0.00  0.00    +0.000 A 
ATOM     19  C   UNL     1       2.552  13.915  19.726  0.00  0.00    +0.000 A 
ATOM     20  H   UNL     1       2.377  12.068  17.587  0.00  0.00    +0.000 HD
ENDBRANCH  10  11
BRANCH   1  22
ATOM     21  O   UNL     1       2.376  10.263  18.424  0.00  0.00    +0.000 OA
ATOM     22  S   UNL     1       1.191   9.740  19.050  0.00  0.00    +0.000 S 
ATOM     23  O   UNL     1      -0.024   9.656  18.255  0.00  0.00    +0.000 OA
BRANCH  22  24
ATOM     24  C   UNL     1       1.567   8.111  19.769  0.00  0.00    +0.000 C 
BRANCH  24  25
ATOM     25  C   UNL     1       2.401   7.193  18.873  0.00  0.00    +0.000 A 
ATOM     26  C   UNL     1       3.140   7.804  17.835  0.00  0.00    +0.000 A 
ATOM     27  C   UNL     1       4.020   7.082  17.025  0.00  0.00    +0.000 A 
ATOM     28  C   UNL     1       4.192   5.718  17.218  0.00  0.00    +0.000 A 
ATOM     29  C   UNL     1       3.508   5.092  18.253  0.00  0.00    +0.000 A 
ATOM     30  C   UNL     1       2.625   5.797  19.115  0.00  0.00    +0.000 A 
BRANCH  30  31
ATOM     31  C   UNL     1       2.046   4.984  20.248  0.00  0.00    +0.000 C 
ATOM     32  F   UNL     1       2.295   5.469  21.491  0.00  0.00    +0.000 F 
ATOM     33  F   UNL     1       0.696   4.851  20.151  0.00  0.00    +0.000 F 
ATOM     34  F   UNL     1       2.536   3.707  20.259  0.00  0.00    +0.000 F 
ENDBRANCH  30  31
ENDBRANCH  24  25
ENDBRANCH  22  24
ENDBRANCH   1  22
TORSDOF 5
ENDMDL
MODEL 5
REMARK VINA RESULT:      -8.2      6.994      9.581
REMARK  Name = 
REMARK  5 active torsions:
REMARK  status: ('A' for Active; 'I' for Inactive)
REMARK    1  A    between atoms: S_2  and  C_4
REMARK    2  A    between atoms: S_2  and  N_15
REMARK    3  A    between atoms: C_4  and  C_5
REMARK    4  A    between atoms: C_10  and  C_11
REMARK    5  A    between atoms: C_24  and  C_25
REMARK                            x       y       z     vdW  Elec       q    Type
REMARK                         _______ _______ _______ _____ _____    ______ ____
ROOT
ATOM      1  N   UNL     1       0.305  13.287  21.735  0.00  0.00    +0.000 NA
ATOM      2  C   UNL     1       0.970  14.635  21.980  0.00  0.00    +0.000 C 
ATOM      3  C   UNL     1       2.220  14.794  21.078  0.00  0.00    +0.000 C 
ATOM      4  C   UNL     1       1.701  14.941  19.647  0.00  0.00    +0.000 A 
ATOM      5  C   UNL     1       2.104  16.077  18.935  0.00  0.00    +0.000 A 
ATOM      6  C   UNL     1       1.128  16.788  18.266  0.00  0.00    +0.000 A 
ATOM      7  C   UNL     1      -0.193  16.326  18.308  0.00  0.00    +0.000 A 
ATOM      8  C   UNL     1      -0.512  15.044  18.838  0.00  0.00    +0.000 A 
ATOM      9  C   UNL     1       0.487  14.239  19.404  0.00  0.00    +0.000 A 
ATOM     10  C   UNL     1       0.393  12.942  20.256  0.00  0.00    +0.000 C 
ENDROOT
BRANCH  10  11
ATOM     11  C   UNL     1      -0.310  11.724  19.664  0.00  0.00    +0.000 A 
ATOM     12  C   UNL     1       0.130  10.394  19.628  0.00  0.00    +0.000 A 
ATOM     13  N   UNL     1       0.084  10.292  18.203  0.00  0.00    +0.000 N 
ATOM     14  C   UNL     1      -1.244  10.616  17.918  0.00  0.00    +0.000 A 
ATOM     15  C   UNL     1      -2.065  10.215  16.858  0.00  0.00    +0.000 A 
ATOM     16  C   UNL     1      -3.405  10.542  16.947  0.00  0.00    +0.000 A 
ATOM     17  C   UNL     1      -3.865  11.327  17.995  0.00  0.00    +0.000 A 
ATOM     18  C   UNL     1      -2.973  11.881  18.963  0.00  0.00    +0.000 A 
ATOM     19  C   UNL     1      -1.595  11.515  18.949  0.00  0.00    +0.000 A 
ATOM     20  H   UNL     1       0.802  10.745  17.653  0.00  0.00    +0.000 HD
ENDBRANCH  10  11
BRANCH   1  22
ATOM     21  O   UNL     1      -0.897  13.730  23.976  0.00  0.00    +0.000 OA
ATOM     22  S   UNL     1      -1.049  13.023  22.731  0.00  0.00    +0.000 S 
ATOM     23  O   UNL     1      -1.283  11.588  22.782  0.00  0.00    +0.000 OA
BRANCH  22  24
ATOM     24  C   UNL     1      -2.354  13.823  21.747  0.00  0.00    +0.000 C 
BRANCH  24  25
ATOM     25  C   UNL     1      -3.221  14.817  22.522  0.00  0.00    +0.000 A 
ATOM     26  C   UNL     1      -2.967  16.191  22.317  0.00  0.00    +0.000 A 
ATOM     27  C   UNL     1      -3.763  17.189  22.884  0.00  0.00    +0.000 A 
ATOM     28  C   UNL     1      -4.845  16.850  23.686  0.00  0.00    +0.000 A 
ATOM     29  C   UNL     1      -5.147  15.507  23.880  0.00  0.00    +0.000 A 
ATOM     30  C   UNL     1      -4.376  14.465  23.297  0.00  0.00    +0.000 A 
BRANCH  30  31
ATOM     31  C   UNL     1      -4.904  13.069  23.528  0.00  0.00    +0.000 C 
ATOM     32  F   UNL     1      -4.056  12.233  24.179  0.00  0.00    +0.000 F 
ATOM     33  F   UNL     1      -6.065  13.066  24.237  0.00  0.00    +0.000 F 
ATOM     34  F   UNL     1      -5.196  12.436  22.351  0.00  0.00    +0.000 F 
ENDBRANCH  30  31
ENDBRANCH  24  25
ENDBRANCH  22  24
ENDBRANCH   1  22
TORSDOF 5
ENDMDL
MODEL 6
REMARK VINA RESULT:      -8.2      4.759     10.101
REMARK  Name = 
REMARK  5 active torsions:
REMARK  status: ('A' for Active; 'I' for Inactive)
REMARK    1  A    between atoms: S_2  and  C_4
REMARK    2  A    between atoms: S_2  and  N_15
REMARK    3  A    between atoms: C_4  and  C_5
REMARK    4  A    between atoms: C_10  and  C_11
REMARK    5  A    between atoms: C_24  and  C_25
REMARK                            x       y       z     vdW  Elec       q    Type
REMARK                         _______ _______ _______ _____ _____    ______ ____
ROOT
ATOM      1  N   UNL     1      -1.100  12.638  21.809  0.00  0.00    +0.000 NA
ATOM      2  C   UNL     1      -2.260  12.100  22.636  0.00  0.00    +0.000 C 
ATOM      3  C   UNL     1      -3.348  13.190  22.815  0.00  0.00    +0.000 C 
ATOM      4  C   UNL     1      -3.989  13.385  21.440  0.00  0.00    +0.000 A 
ATOM      5  C   UNL     1      -5.378  13.230  21.356  0.00  0.00    +0.000 A 
ATOM      6  C   UNL     1      -5.870  12.445  20.333  0.00  0.00    +0.000 A 
ATOM      7  C   UNL     1      -4.969  11.875  19.425  0.00  0.00    +0.000 A 
ATOM      8  C   UNL     1      -3.597  12.255  19.407  0.00  0.00    +0.000 A 
ATOM      9  C   UNL     1      -3.097  13.160  20.355  0.00  0.00    +0.000 A 
ATOM     10  C   UNL     1      -1.637  13.554  20.720  0.00  0.00    +0.000 C 
ENDROOT
BRANCH  10  11
ATOM     11  C   UNL     1      -0.739  14.135  19.632  0.00  0.00    +0.000 A 
ATOM     12  C   UNL     1      -0.381  13.568  18.401  0.00  0.00    +0.000 A 
ATOM     13  N   UNL     1       1.024  13.602  18.659  0.00  0.00    +0.000 N 
ATOM     14  C   UNL     1       1.253  14.954  18.920  0.00  0.00    +0.000 A 
ATOM     15  C   UNL     1       2.401  15.731  18.726  0.00  0.00    +0.000 A 
ATOM     16  C   UNL     1       2.267  17.097  18.894  0.00  0.00    +0.000 A 
ATOM     17  C   UNL     1       1.068  17.632  19.342  0.00  0.00    +0.000 A 
ATOM     18  C   UNL     1      -0.031  16.799  19.714  0.00  0.00    +0.000 A 
ATOM     19  C   UNL     1       0.039  15.392  19.493  0.00  0.00    +0.000 A 
ATOM     20  H   UNL     1       1.424  12.930  19.301  0.00  0.00    +0.000 HD
ENDBRANCH  10  11
BRANCH   1  22
ATOM     21  O   UNL     1       0.296  10.708  22.804  0.00  0.00    +0.000 OA
ATOM     22  S   UNL     1       0.158  11.507  21.616  0.00  0.00    +0.000 S 
ATOM     23  O   UNL     1       1.326  12.229  21.135  0.00  0.00    +0.000 OA
BRANCH  22  24
ATOM     24  C   UNL     1      -0.518  10.475  20.278  0.00  0.00    +0.000 C 
BRANCH  24  25
ATOM     25  C   UNL     1       0.526   9.677  19.495  0.00  0.00    +0.000 A 
ATOM     26  C   UNL     1       1.043  10.270  18.321  0.00  0.00    +0.000 A 
ATOM     27  C   UNL     1       2.077   9.687  17.586  0.00  0.00    +0.000 A 
ATOM     28  C   UNL     1       2.633   8.482  17.994  0.00  0.00    +0.000 A 
ATOM     29  C   UNL     1       2.175   7.889  19.164  0.00  0.00    +0.000 A 
ATOM     30  C   UNL     1       1.143   8.466  19.953  0.00  0.00    +0.000 A 
BRANCH  30  31
ATOM     31  C   UNL     1       0.840   7.743  21.243  0.00  0.00    +0.000 C 
ATOM     32  F   UNL     1      -0.466   7.753  21.616  0.00  0.00    +0.000 F 
ATOM     33  F   UNL     1       1.216   6.436  21.205  0.00  0.00    +0.000 F 
ATOM     34  F   UNL     1       1.517   8.285  22.301  0.00  0.00    +0.000 F 
ENDBRANCH  30  31
ENDBRANCH  24  25
ENDBRANCH  22  24
ENDBRANCH   1  22
TORSDOF 5
ENDMDL
MODEL 7
REMARK VINA RESULT:      -8.2      7.689     10.470
REMARK  Name = 
REMARK  5 active torsions:
REMARK  status: ('A' for Active; 'I' for Inactive)
REMARK    1  A    between atoms: S_2  and  C_4
REMARK    2  A    between atoms: S_2  and  N_15
REMARK    3  A    between atoms: C_4  and  C_5
REMARK    4  A    between atoms: C_10  and  C_11
REMARK    5  A    between atoms: C_24  and  C_25
REMARK                            x       y       z     vdW  Elec       q    Type
REMARK                         _______ _______ _______ _____ _____    ______ ____
ROOT
ATOM      1  N   UNL     1      -0.756  13.889  20.515  0.00  0.00    +0.000 NA
ATOM      2  C   UNL     1      -0.920  14.905  21.638  0.00  0.00    +0.000 C 
ATOM      3  C   UNL     1      -2.351  15.503  21.621  0.00  0.00    +0.000 C 
ATOM      4  C   UNL     1      -3.290  14.379  22.059  0.00  0.00    +0.000 A 
ATOM      5  C   UNL     1      -4.123  14.634  23.154  0.00  0.00    +0.000 A 
ATOM      6  C   UNL     1      -4.184  13.675  24.145  0.00  0.00    +0.000 A 
ATOM      7  C   UNL     1      -3.442  12.498  23.991  0.00  0.00    +0.000 A 
ATOM      8  C   UNL     1      -2.805  12.180  22.759  0.00  0.00    +0.000 A 
ATOM      9  C   UNL     1      -2.843  13.081  21.685  0.00  0.00    +0.000 A 
ATOM     10  C   UNL     1      -2.051  13.109  20.347  0.00  0.00    +0.000 C 
ENDROOT
BRANCH  10  11
ATOM     11  C   UNL     1      -2.164  11.916  19.402  0.00  0.00    +0.000 A 
ATOM     12  C   UNL     1      -1.391  10.747  19.376  0.00  0.00    +0.000 A 
ATOM     13  N   UNL     1      -0.942  10.930  18.032  0.00  0.00    +0.000 N 
ATOM     14  C   UNL     1      -2.140  11.014  17.320  0.00  0.00    +0.000 A 
ATOM     15  C   UNL     1      -2.430  10.672  15.994  0.00  0.00    +0.000 A 
ATOM     16  C   UNL     1      -3.762  10.679  15.624  0.00  0.00    +0.000 A 
ATOM     17  C   UNL     1      -4.733  11.117  16.514  0.00  0.00    +0.000 A 
ATOM     18  C   UNL     1      -4.390  11.640  17.798  0.00  0.00    +0.000 A 
ATOM     19  C   UNL     1      -3.038  11.588  18.247  0.00  0.00    +0.000 A 
ATOM     20  H   UNL     1      -0.236  11.629  17.839  0.00  0.00    +0.000 HD
ENDBRANCH  10  11
BRANCH   1  22
ATOM     21  O   UNL     1       1.100  12.780  19.105  0.00  0.00    +0.000 OA
ATOM     22  S   UNL     1       0.810  13.227  20.441  0.00  0.00    +0.000 S 
ATOM     23  O   UNL     1       0.932  12.267  21.527  0.00  0.00    +0.000 OA
BRANCH  22  24
ATOM     24  C   UNL     1       1.816  14.698  20.809  0.00  0.00    +0.000 C 
BRANCH  24  25
ATOM     25  C   UNL     1       2.645  15.217  19.632  0.00  0.00    +0.000 A 
ATOM     26  C   UNL     1       3.923  14.646  19.443  0.00  0.00    +0.000 A 
ATOM     27  C   UNL     1       4.723  14.961  18.342  0.00  0.00    +0.000 A 
ATOM     28  C   UNL     1       4.278  15.865  17.388  0.00  0.00    +0.000 A 
ATOM     29  C   UNL     1       3.010  16.419  17.523  0.00  0.00    +0.000 A 
ATOM     30  C   UNL     1       2.156  16.102  18.615  0.00  0.00    +0.000 A 
BRANCH  30  31
ATOM     31  C   UNL     1       0.777  16.714  18.551  0.00  0.00    +0.000 C 
ATOM     32  F   UNL     1       0.367  17.329  19.689  0.00  0.00    +0.000 F 
ATOM     33  F   UNL     1       0.666  17.635  17.556  0.00  0.00    +0.000 F 
ATOM     34  F   UNL     1      -0.182  15.776  18.286  0.00  0.00    +0.000 F 
ENDBRANCH  30  31
ENDBRANCH  24  25
ENDBRANCH  22  24
ENDBRANCH   1  22
TORSDOF 5
ENDMDL
MODEL 8
REMARK VINA RESULT:      -8.1      4.877      7.924
REMARK  Name = 
REMARK  5 active torsions:
REMARK  status: ('A' for Active; 'I' for Inactive)
REMARK    1  A    between atoms: S_2  and  C_4
REMARK    2  A    between atoms: S_2  and  N_15
REMARK    3  A    between atoms: C_4  and  C_5
REMARK    4  A    between atoms: C_10  and  C_11
REMARK    5  A    between atoms: C_24  and  C_25
REMARK                            x       y       z     vdW  Elec       q    Type
REMARK                         _______ _______ _______ _____ _____    ______ ____
ROOT
ATOM      1  N   UNL     1      -0.043  13.074  21.600  0.00  0.00    +0.000 NA
ATOM      2  C   UNL     1       0.441  14.518  21.583  0.00  0.00    +0.000 C 
ATOM      3  C   UNL     1       1.977  14.575  21.786  0.00  0.00    +0.000 C 
ATOM      4  C   UNL     1       2.600  14.006  20.511  0.00  0.00    +0.000 A 
ATOM      5  C   UNL     1       3.523  14.814  19.836  0.00  0.00    +0.000 A 
ATOM      6  C   UNL     1       3.371  14.950  18.471  0.00  0.00    +0.000 A 
ATOM      7  C   UNL     1       2.333  14.258  17.835  0.00  0.00    +0.000 A 
ATOM      8  C   UNL     1       1.576  13.266  18.520  0.00  0.00    +0.000 A 
ATOM      9  C   UNL     1       1.803  13.011  19.879  0.00  0.00    +0.000 A 
ATOM     10  C   UNL     1       0.986  12.188  20.915  0.00  0.00    +0.000 C 
ENDROOT
BRANCH  10  11
ATOM     11  C   UNL     1       0.728  10.709  20.638  0.00  0.00    +0.000 A 
ATOM     12  C   UNL     1      -0.090   9.818  21.346  0.00  0.00    +0.000 A 
ATOM     13  N   UNL     1       0.964   8.901  21.646  0.00  0.00    +0.000 N 
ATOM     14  C   UNL     1       1.454   8.575  20.381  0.00  0.00    +0.000 A 
ATOM     15  C   UNL     1       2.075   7.406  19.925  0.00  0.00    +0.000 A 
ATOM     16  C   UNL     1       2.273   7.295  18.561  0.00  0.00    +0.000 A 
ATOM     17  C   UNL     1       1.962   8.354  17.721  0.00  0.00    +0.000 A 
ATOM     18  C   UNL     1       1.505   9.607  18.232  0.00  0.00    +0.000 A 
ATOM     19  C   UNL     1       1.222   9.744  19.623  0.00  0.00    +0.000 A 
ATOM     20  H   UNL     1       1.641   9.145  22.359  0.00  0.00    +0.000 HD
ENDBRANCH  10  11
BRANCH   1  22
ATOM     21  O   UNL     1      -2.354  14.223  21.604  0.00  0.00    +0.000 OA
ATOM     22  S   UNL     1      -1.731  12.937  21.433  0.00  0.00    +0.000 S 
ATOM     23  O   UNL     1      -2.170  11.844  22.287  0.00  0.00    +0.000 OA
BRANCH  22  24
ATOM     24  C   UNL     1      -1.859  12.440  19.687  0.00  0.00    +0.000 C 
BRANCH  24  25
ATOM     25  C   UNL     1      -3.262  12.025  19.241  0.00  0.00    +0.000 A 
ATOM     26  C   UNL     1      -4.351  12.723  19.808  0.00  0.00    +0.000 A 
ATOM     27  C   UNL     1      -5.669  12.505  19.398  0.00  0.00    +0.000 A 
ATOM     28  C   UNL     1      -5.949  11.576  18.405  0.00  0.00    +0.000 A 
ATOM     29  C   UNL     1      -4.898  10.897  17.799  0.00  0.00    +0.000 A 
ATOM     30  C   UNL     1      -3.543  11.111  18.171  0.00  0.00    +0.000 A 
BRANCH  30  31
ATOM     31  C   UNL     1      -2.524  10.367  17.342  0.00  0.00    +0.000 C 
ATOM     32  F   UNL     1      -3.042   9.515  16.422  0.00  0.00    +0.000 F 
ATOM     33  F   UNL     1      -1.697  11.208  16.663  0.00  0.00    +0.000 F 
ATOM     34  F   UNL     1      -1.702   9.598  18.118  0.00  0.00    +0.000 F 
ENDBRANCH  30  31
ENDBRANCH  24  25
ENDBRANCH  22  24
ENDBRANCH   1  22
TORSDOF 5
ENDMDL
MODEL 9
REMARK VINA RESULT:      -8.0      6.725      9.128
REMARK  Name = 
REMARK  5 active torsions:
REMARK  status: ('A' for Active; 'I' for Inactive)
REMARK    1  A    between atoms: S_2  and  C_4
REMARK    2  A    between atoms: S_2  and  N_15
REMARK    3  A    between atoms: C_4  and  C_5
REMARK    4  A    between atoms: C_10  and  C_11
REMARK    5  A    between atoms: C_24  and  C_25
REMARK                            x       y       z     vdW  Elec       q    Type
REMARK                         _______ _______ _______ _____ _____    ______ ____
ROOT
ATOM      1  N   UNL     1       0.359  12.440  21.350  0.00  0.00    +0.000 NA
ATOM      2  C   UNL     1       1.101  13.708  21.749  0.00  0.00    +0.000 C 
ATOM      3  C   UNL     1       2.263  13.989  20.761  0.00  0.00    +0.000 C 
ATOM      4  C   UNL     1       1.613  14.394  19.438  0.00  0.00    +0.000 A 
ATOM      5  C   UNL     1       1.992  15.625  18.891  0.00  0.00    +0.000 A 
ATOM      6  C   UNL     1       0.987  16.466  18.457  0.00  0.00    +0.000 A 
ATOM      7  C   UNL     1      -0.343  16.037  18.558  0.00  0.00    +0.000 A 
ATOM      8  C   UNL     1      -0.663  14.691  18.893  0.00  0.00    +0.000 A 
ATOM      9  C   UNL     1       0.351  13.775  19.207  0.00  0.00    +0.000 A 
ATOM     10  C   UNL     1       0.286  12.353  19.833  0.00  0.00    +0.000 C 
ENDROOT
BRANCH  10  11
ATOM     11  C   UNL     1      -0.523  11.274  19.119  0.00  0.00    +0.000 A 
ATOM     12  C   UNL     1      -0.211   9.918  18.949  0.00  0.00    +0.000 A 
ATOM     13  N   UNL     1      -0.250   9.965  17.521  0.00  0.00    +0.000 N 
ATOM     14  C   UNL     1      -1.537  10.442  17.268  0.00  0.00    +0.000 A 
ATOM     15  C   UNL     1      -2.381  10.231  16.172  0.00  0.00    +0.000 A 
ATOM     16  C   UNL     1      -3.685  10.674  16.291  0.00  0.00    +0.000 A 
ATOM     17  C   UNL     1      -4.080  11.390  17.412  0.00  0.00    +0.000 A 
ATOM     18  C   UNL     1      -3.150  11.756  18.433  0.00  0.00    +0.000 A 
ATOM     19  C   UNL     1      -1.813  11.263  18.384  0.00  0.00    +0.000 A 
ATOM     20  H   UNL     1       0.514  10.400  17.021  0.00  0.00    +0.000 HD
ENDBRANCH  10  11
BRANCH   1  22
ATOM     21  O   UNL     1      -0.458  11.048  23.364  0.00  0.00    +0.000 OA
ATOM     22  S   UNL     1      -0.900  12.042  22.422  0.00  0.00    +0.000 S 
ATOM     23  O   UNL     1      -2.081  11.752  21.624  0.00  0.00    +0.000 OA
BRANCH  22  24
ATOM     24  C   UNL     1      -1.120  13.627  23.289  0.00  0.00    +0.000 C 
BRANCH  24  25
ATOM     25  C   UNL     1      -2.374  14.406  22.889  0.00  0.00    +0.000 A 
ATOM     26  C   UNL     1      -2.249  15.327  21.825  0.00  0.00    +0.000 A 
ATOM     27  C   UNL     1      -3.347  16.014  21.302  0.00  0.00    +0.000 A 
ATOM     28  C   UNL     1      -4.615  15.810  21.827  0.00  0.00    +0.000 A 
ATOM     29  C   UNL     1      -4.782  14.884  22.850  0.00  0.00    +0.000 A 
ATOM     30  C   UNL     1      -3.693  14.147  23.390  0.00  0.00    +0.000 A 
BRANCH  30  31
ATOM     31  C   UNL     1      -4.068  13.112  24.423  0.00  0.00    +0.000 C 
ATOM     32  F   UNL     1      -3.581  13.340  25.669  0.00  0.00    +0.000 F 
ATOM     33  F   UNL     1      -5.415  12.978  24.556  0.00  0.00    +0.000 F 
ATOM     34  F   UNL     1      -3.611  11.868  24.084  0.00  0.00    +0.000 F 
ENDBRANCH  30  31
ENDBRANCH  24  25
ENDBRANCH  22  24
ENDBRANCH   1  22
TORSDOF 5
ENDMDL
