MODEL 1
REMARK VINA RESULT:      -7.2      0.000      0.000
REMARK  Name = 
REMARK  9 active torsions:
REMARK  status: ('A' for Active; 'I' for Inactive)
REMARK    1  A    between atoms: C_1  and  N_2
REMARK    2  A    between atoms: C_10  and  O_11
REMARK    3  A    between atoms: O_11  and  C_12
REMARK    4  A    between atoms: C_12  and  C_13
REMARK    5  A    between atoms: C_12  and  C_14
REMARK    6  A    between atoms: C_14  and  C_15
REMARK    7  A    between atoms: C_15  and  C_16
REMARK    8  A    between atoms: C_15  and  C_17
REMARK    9  A    between atoms: C_15  and  C_18
REMARK                            x       y       z     vdW  Elec       q    Type
REMARK                         _______ _______ _______ _____ _____    ______ ____
ROOT
ATOM      1  C   UNL     1       2.473   8.580  17.985  0.00  0.00    +0.000 C 
ATOM      2  N   UNL     1       2.044   8.015  19.250  0.00  0.00    +0.000 N 
ATOM      3  C   UNL     1       2.188   6.620  19.369  0.00  0.00    +0.000 A 
ATOM      4  C   UNL     1       1.764   6.056  20.565  0.00  0.00    +0.000 A 
ATOM      5  C   UNL     1       1.881   4.689  20.747  0.00  0.00    +0.000 A 
ATOM      6  C   UNL     1       2.446   3.904  19.744  0.00  0.00    +0.000 A 
ATOM      7  C   UNL     1       2.593   2.526  19.959  0.00  0.00    +0.000 A 
ATOM      8  C   UNL     1       3.203   1.734  19.001  0.00  0.00    +0.000 A 
ATOM      9  C   UNL     1       3.665   2.310  17.825  0.00  0.00    +0.000 A 
ATOM     10  C   UNL     1       3.501   3.685  17.583  0.00  0.00    +0.000 A 
ATOM     11  C   UNL     1       2.871   4.521  18.543  0.00  0.00    +0.000 A 
ATOM     12  N   UNL     1       2.699   5.867  18.374  0.00  0.00    +0.000 NA
ATOM     13  H   UNL     1       2.510   8.458  20.036  0.00  0.00    +0.000 HD
ENDROOT
BRANCH  10  14
ATOM     14  O   UNL     1       3.902   4.268  16.392  0.00  0.00    +0.000 OA
BRANCH  14  15
ATOM     15  C   UNL     1       5.314   4.391  16.152  0.00  0.00    +0.000 C 
ATOM     16  C   UNL     1       5.582   4.416  14.638  0.00  0.00    +0.000 C 
BRANCH  15  17
ATOM     17  C   UNL     1       5.846   5.723  16.749  0.00  0.00    +0.000 C 
BRANCH  17  18
ATOM     18  C   UNL     1       6.885   5.657  17.905  0.00  0.00    +0.000 C 
ATOM     19  C   UNL     1       6.193   5.453  19.261  0.00  0.00    +0.000 C 
ATOM     20  C   UNL     1       7.835   4.466  17.651  0.00  0.00    +0.000 C 
ATOM     21  C   UNL     1       7.747   6.920  17.970  0.00  0.00    +0.000 C 
ENDBRANCH  17  18
ENDBRANCH  15  17
ENDBRANCH  14  15
ENDBRANCH  10  14
TORSDOF 4
ENDMDL
MODEL 2
REMARK VINA RESULT:      -6.6      0.699      1.225
REMARK  Name = 
REMARK  9 active torsions:
REMARK  status: ('A' for Active; 'I' for Inactive)
REMARK    1  A    between atoms: C_1  and  N_2
REMARK    2  A    between atoms: C_10  and  O_11
REMARK    3  A    between atoms: O_11  and  C_12
REMARK    4  A    between atoms: C_12  and  C_13
REMARK    5  A    between atoms: C_12  and  C_14
REMARK    6  A    between atoms: C_14  and  C_15
REMARK    7  A    between atoms: C_15  and  C_16
REMARK    8  A    between atoms: C_15  and  C_17
REMARK    9  A    between atoms: C_15  and  C_18
REMARK                            x       y       z     vdW  Elec       q    Type
REMARK                         _______ _______ _______ _____ _____    ______ ____
ROOT
ATOM      1  C   UNL     1       2.157   8.238  19.456  0.00  0.00    +0.000 C 
ATOM      2  N   UNL     1       1.767   7.279  20.472  0.00  0.00    +0.000 N 
ATOM      3  C   UNL     1       2.026   5.931  20.162  0.00  0.00    +0.000 A 
ATOM      4  C   UNL     1       1.641   4.995  21.112  0.00  0.00    +0.000 A 
ATOM      5  C   UNL     1       1.871   3.651  20.870  0.00  0.00    +0.000 A 
ATOM      6  C   UNL     1       2.507   3.260  19.694  0.00  0.00    +0.000 A 
ATOM      7  C   UNL     1       2.767   1.899  19.480  0.00  0.00    +0.000 A 
ATOM      8  C   UNL     1       3.448   1.491  18.346  0.00  0.00    +0.000 A 
ATOM      9  C   UNL     1       3.870   2.435  17.420  0.00  0.00    +0.000 A 
ATOM     10  C   UNL     1       3.593   3.801  17.607  0.00  0.00    +0.000 A 
ATOM     11  C   UNL     1       2.888   4.249  18.755  0.00  0.00    +0.000 A 
ATOM     12  N   UNL     1       2.606   5.563  19.002  0.00  0.00    +0.000 NA
ATOM     13  H   UNL     1       2.189   7.492  21.372  0.00  0.00    +0.000 HD
ENDROOT
BRANCH  10  14
ATOM     14  O   UNL     1       3.954   4.752  16.666  0.00  0.00    +0.000 OA
BRANCH  14  15
ATOM     15  C   UNL     1       5.332   4.798  16.258  0.00  0.00    +0.000 C 
ATOM     16  C   UNL     1       5.414   4.975  14.733  0.00  0.00    +0.000 C 
BRANCH  15  17
ATOM     17  C   UNL     1       6.045   6.012  16.915  0.00  0.00    +0.000 C 
BRANCH  17  18
ATOM     18  C   UNL     1       7.051   5.746  18.071  0.00  0.00    +0.000 C 
ATOM     19  C   UNL     1       7.940   6.973  18.325  0.00  0.00    +0.000 C 
ATOM     20  C   UNL     1       6.257   5.436  19.358  0.00  0.00    +0.000 C 
ATOM     21  C   UNL     1       7.943   4.536  17.784  0.00  0.00    +0.000 C 
ENDBRANCH  17  18
ENDBRANCH  15  17
ENDBRANCH  14  15
ENDBRANCH  10  14
TORSDOF 4
ENDMDL
MODEL 3
REMARK VINA RESULT:      -6.1      1.001      1.705
REMARK  Name = 
REMARK  9 active torsions:
REMARK  status: ('A' for Active; 'I' for Inactive)
REMARK    1  A    between atoms: C_1  and  N_2
REMARK    2  A    between atoms: C_10  and  O_11
REMARK    3  A    between atoms: O_11  and  C_12
REMARK    4  A    between atoms: C_12  and  C_13
REMARK    5  A    between atoms: C_12  and  C_14
REMARK    6  A    between atoms: C_14  and  C_15
REMARK    7  A    between atoms: C_15  and  C_16
REMARK    8  A    between atoms: C_15  and  C_17
REMARK    9  A    between atoms: C_15  and  C_18
REMARK                            x       y       z     vdW  Elec       q    Type
REMARK                         _______ _______ _______ _____ _____    ______ ____
ROOT
ATOM      1  C   UNL     1       2.073   9.729  17.686  0.00  0.00    +0.000 C 
ATOM      2  N   UNL     1       1.614   9.470  19.038  0.00  0.00    +0.000 N 
ATOM      3  C   UNL     1       1.748   8.141  19.477  0.00  0.00    +0.000 A 
ATOM      4  C   UNL     1       1.295   7.867  20.761  0.00  0.00    +0.000 A 
ATOM      5  C   UNL     1       1.401   6.578  21.255  0.00  0.00    +0.000 A 
ATOM      6  C   UNL     1       1.983   5.583  20.473  0.00  0.00    +0.000 A 
ATOM      7  C   UNL     1       2.118   4.292  21.002  0.00  0.00    +0.000 A 
ATOM      8  C   UNL     1       2.744   3.301  20.266  0.00  0.00    +0.000 A 
ATOM      9  C   UNL     1       3.234   3.590  18.999  0.00  0.00    +0.000 A 
ATOM     10  C   UNL     1       3.083   4.873  18.444  0.00  0.00    +0.000 A 
ATOM     11  C   UNL     1       2.437   5.908  19.172  0.00  0.00    +0.000 A 
ATOM     12  N   UNL     1       2.276   7.178  18.695  0.00  0.00    +0.000 NA
ATOM     13  H   UNL     1       2.066  10.082  19.711  0.00  0.00    +0.000 HD
ENDROOT
BRANCH  10  14
ATOM     14  O   UNL     1       3.513   5.166  17.160  0.00  0.00    +0.000 OA
BRANCH  14  15
ATOM     15  C   UNL     1       4.874   4.849  16.824  0.00  0.00    +0.000 C 
ATOM     16  C   UNL     1       4.988   4.596  15.311  0.00  0.00    +0.000 C 
BRANCH  15  17
ATOM     17  C   UNL     1       5.805   6.040  17.176  0.00  0.00    +0.000 C 
BRANCH  17  18
ATOM     18  C   UNL     1       7.028   5.780  18.101  0.00  0.00    +0.000 C 
ATOM     19  C   UNL     1       7.922   7.025  18.202  0.00  0.00    +0.000 C 
ATOM     20  C   UNL     1       6.516   5.424  19.513  0.00  0.00    +0.000 C 
ATOM     21  C   UNL     1       7.872   4.600  17.612  0.00  0.00    +0.000 C 
ENDBRANCH  17  18
ENDBRANCH  15  17
ENDBRANCH  14  15
ENDBRANCH  10  14
TORSDOF 4
ENDMDL
MODEL 4
REMARK VINA RESULT:      -6.0      1.451      3.531
REMARK  Name = 
REMARK  9 active torsions:
REMARK  status: ('A' for Active; 'I' for Inactive)
REMARK    1  A    between atoms: C_1  and  N_2
REMARK    2  A    between atoms: C_10  and  O_11
REMARK    3  A    between atoms: O_11  and  C_12
REMARK    4  A    between atoms: C_12  and  C_13
REMARK    5  A    between atoms: C_12  and  C_14
REMARK    6  A    between atoms: C_14  and  C_15
REMARK    7  A    between atoms: C_15  and  C_16
REMARK    8  A    between atoms: C_15  and  C_17
REMARK    9  A    between atoms: C_15  and  C_18
REMARK                            x       y       z     vdW  Elec       q    Type
REMARK                         _______ _______ _______ _____ _____    ______ ____
ROOT
ATOM      1  C   UNL     1       3.469   1.544  17.592  0.00  0.00    +0.000 C 
ATOM      2  N   UNL     1       2.771   1.669  18.857  0.00  0.00    +0.000 N 
ATOM      3  C   UNL     1       2.525   2.986  19.283  0.00  0.00    +0.000 A 
ATOM      4  C   UNL     1       1.876   3.129  20.503  0.00  0.00    +0.000 A 
ATOM      5  C   UNL     1       1.600   4.400  20.978  0.00  0.00    +0.000 A 
ATOM      6  C   UNL     1       1.948   5.513  20.217  0.00  0.00    +0.000 A 
ATOM      7  C   UNL     1       1.627   6.792  20.693  0.00  0.00    +0.000 A 
ATOM      8  C   UNL     1       1.912   7.910  19.929  0.00  0.00    +0.000 A 
ATOM      9  C   UNL     1       2.521   7.760  18.690  0.00  0.00    +0.000 A 
ATOM     10  C   UNL     1       2.873   6.487  18.211  0.00  0.00    +0.000 A 
ATOM     11  C   UNL     1       2.602   5.322  18.976  0.00  0.00    +0.000 A 
ATOM     12  N   UNL     1       2.903   4.057  18.556  0.00  0.00    +0.000 NA
ATOM     13  H   UNL     1       1.894   1.158  18.855  0.00  0.00    +0.000 HD
ENDROOT
BRANCH  10  14
ATOM     14  O   UNL     1       3.533   6.321  17.004  0.00  0.00    +0.000 OA
BRANCH  14  15
ATOM     15  C   UNL     1       4.712   5.497  16.995  0.00  0.00    +0.000 C 
ATOM     16  C   UNL     1       4.862   4.822  15.622  0.00  0.00    +0.000 C 
BRANCH  15  17
ATOM     17  C   UNL     1       5.976   6.367  17.236  0.00  0.00    +0.000 C 
BRANCH  17  18
ATOM     18  C   UNL     1       7.062   5.844  18.219  0.00  0.00    +0.000 C 
ATOM     19  C   UNL     1       8.078   6.944  18.559  0.00  0.00    +0.000 C 
ATOM     20  C   UNL     1       6.373   5.388  19.524  0.00  0.00    +0.000 C 
ATOM     21  C   UNL     1       7.808   4.634  17.653  0.00  0.00    +0.000 C 
ENDBRANCH  17  18
ENDBRANCH  15  17
ENDBRANCH  14  15
ENDBRANCH  10  14
TORSDOF 4
ENDMDL
MODEL 5
REMARK VINA RESULT:      -5.9      1.980      4.221
REMARK  Name = 
REMARK  9 active torsions:
REMARK  status: ('A' for Active; 'I' for Inactive)
REMARK    1  A    between atoms: C_1  and  N_2
REMARK    2  A    between atoms: C_10  and  O_11
REMARK    3  A    between atoms: O_11  and  C_12
REMARK    4  A    between atoms: C_12  and  C_13
REMARK    5  A    between atoms: C_12  and  C_14
REMARK    6  A    between atoms: C_14  and  C_15
REMARK    7  A    between atoms: C_15  and  C_16
REMARK    8  A    between atoms: C_15  and  C_17
REMARK    9  A    between atoms: C_15  and  C_18
REMARK                            x       y       z     vdW  Elec       q    Type
REMARK                         _______ _______ _______ _____ _____    ______ ____
ROOT
ATOM      1  C   UNL     1       4.474   0.947  18.762  0.00  0.00    +0.000 C 
ATOM      2  N   UNL     1       3.091   1.270  18.469  0.00  0.00    +0.000 N 
ATOM      3  C   UNL     1       2.800   2.642  18.364  0.00  0.00    +0.000 A 
ATOM      4  C   UNL     1       1.477   2.973  18.105  0.00  0.00    +0.000 A 
ATOM      5  C   UNL     1       1.124   4.307  17.986  0.00  0.00    +0.000 A 
ATOM      6  C   UNL     1       2.101   5.293  18.099  0.00  0.00    +0.000 A 
ATOM      7  C   UNL     1       1.736   6.637  17.938  0.00  0.00    +0.000 A 
ATOM      8  C   UNL     1       2.698   7.631  17.990  0.00  0.00    +0.000 A 
ATOM      9  C   UNL     1       4.026   7.291  18.206  0.00  0.00    +0.000 A 
ATOM     10  C   UNL     1       4.405   5.951  18.396  0.00  0.00    +0.000 A 
ATOM     11  C   UNL     1       3.440   4.910  18.357  0.00  0.00    +0.000 A 
ATOM     12  N   UNL     1       3.748   3.589  18.516  0.00  0.00    +0.000 NA
ATOM     13  H   UNL     1       2.767   0.803  17.627  0.00  0.00    +0.000 HD
ENDROOT
BRANCH  10  14
ATOM     14  O   UNL     1       5.717   5.597  18.671  0.00  0.00    +0.000 OA
BRANCH  14  15
ATOM     15  C   UNL     1       6.742   6.110  17.804  0.00  0.00    +0.000 C 
ATOM     16  C   UNL     1       7.971   6.511  18.636  0.00  0.00    +0.000 C 
BRANCH  15  17
ATOM     17  C   UNL     1       7.189   5.017  16.795  0.00  0.00    +0.000 C 
BRANCH  17  18
ATOM     18  C   UNL     1       6.369   4.833  15.486  0.00  0.00    +0.000 C 
ATOM     19  C   UNL     1       5.400   6.004  15.270  0.00  0.00    +0.000 C 
ATOM     20  C   UNL     1       7.347   4.776  14.292  0.00  0.00    +0.000 C 
ATOM     21  C   UNL     1       5.577   3.524  15.488  0.00  0.00    +0.000 C 
ENDBRANCH  17  18
ENDBRANCH  15  17
ENDBRANCH  14  15
ENDBRANCH  10  14
TORSDOF 4
ENDMDL
MODEL 6
REMARK VINA RESULT:      -5.9      1.991      4.225
REMARK  Name = 
REMARK  9 active torsions:
REMARK  status: ('A' for Active; 'I' for Inactive)
REMARK    1  A    between atoms: C_1  and  N_2
REMARK    2  A    between atoms: C_10  and  O_11
REMARK    3  A    between atoms: O_11  and  C_12
REMARK    4  A    between atoms: C_12  and  C_13
REMARK    5  A    between atoms: C_12  and  C_14
REMARK    6  A    between atoms: C_14  and  C_15
REMARK    7  A    between atoms: C_15  and  C_16
REMARK    8  A    between atoms: C_15  and  C_17
REMARK    9  A    between atoms: C_15  and  C_18
REMARK                            x       y       z     vdW  Elec       q    Type
REMARK                         _______ _______ _______ _____ _____    ______ ____
ROOT
ATOM      1  C   UNL     1       4.793   0.776  19.294  0.00  0.00    +0.000 C 
ATOM      2  N   UNL     1       3.419   0.953  18.863  0.00  0.00    +0.000 N 
ATOM      3  C   UNL     1       3.011   2.286  18.677  0.00  0.00    +0.000 A 
ATOM      4  C   UNL     1       1.693   2.478  18.285  0.00  0.00    +0.000 A 
ATOM      5  C   UNL     1       1.229   3.766  18.080  0.00  0.00    +0.000 A 
ATOM      6  C   UNL     1       2.093   4.846  18.242  0.00  0.00    +0.000 A 
ATOM      7  C   UNL     1       1.619   6.142  17.994  0.00  0.00    +0.000 A 
ATOM      8  C   UNL     1       2.474   7.226  18.093  0.00  0.00    +0.000 A 
ATOM      9  C   UNL     1       3.802   7.025  18.443  0.00  0.00    +0.000 A 
ATOM     10  C   UNL     1       4.286   5.735  18.721  0.00  0.00    +0.000 A 
ATOM     11  C   UNL     1       3.431   4.604  18.636  0.00  0.00    +0.000 A 
ATOM     12  N   UNL     1       3.847   3.325  18.876  0.00  0.00    +0.000 NA
ATOM     13  H   UNL     1       3.221   0.430  18.015  0.00  0.00    +0.000 HD
ENDROOT
BRANCH  10  14
ATOM     14  O   UNL     1       5.594   5.520  19.127  0.00  0.00    +0.000 OA
BRANCH  14  15
ATOM     15  C   UNL     1       6.644   5.889  18.219  0.00  0.00    +0.000 C 
ATOM     16  C   UNL     1       7.961   6.067  18.994  0.00  0.00    +0.000 C 
BRANCH  15  17
ATOM     17  C   UNL     1       6.863   4.768  17.166  0.00  0.00    +0.000 C 
BRANCH  17  18
ATOM     18  C   UNL     1       6.203   4.923  15.766  0.00  0.00    +0.000 C 
ATOM     19  C   UNL     1       7.246   4.808  14.646  0.00  0.00    +0.000 C 
ATOM     20  C   UNL     1       5.156   3.802  15.584  0.00  0.00    +0.000 C 
ATOM     21  C   UNL     1       5.468   6.258  15.627  0.00  0.00    +0.000 C 
ENDBRANCH  17  18
ENDBRANCH  15  17
ENDBRANCH  14  15
ENDBRANCH  10  14
TORSDOF 4
ENDMDL
MODEL 7
REMARK VINA RESULT:      -5.9      2.459      5.858
REMARK  Name = 
REMARK  9 active torsions:
REMARK  status: ('A' for Active; 'I' for Inactive)
REMARK    1  A    between atoms: C_1  and  N_2
REMARK    2  A    between atoms: C_10  and  O_11
REMARK    3  A    between atoms: O_11  and  C_12
REMARK    4  A    between atoms: C_12  and  C_13
REMARK    5  A    between atoms: C_12  and  C_14
REMARK    6  A    between atoms: C_14  and  C_15
REMARK    7  A    between atoms: C_15  and  C_16
REMARK    8  A    between atoms: C_15  and  C_17
REMARK    9  A    between atoms: C_15  and  C_18
REMARK                            x       y       z     vdW  Elec       q    Type
REMARK                         _______ _______ _______ _____ _____    ______ ____
ROOT
ATOM      1  C   UNL     1       7.559   7.982  17.432  0.00  0.00    +0.000 C 
ATOM      2  N   UNL     1       7.570   6.690  16.773  0.00  0.00    +0.000 N 
ATOM      3  C   UNL     1       6.389   5.936  16.900  0.00  0.00    +0.000 A 
ATOM      4  C   UNL     1       6.386   4.687  16.295  0.00  0.00    +0.000 A 
ATOM      5  C   UNL     1       5.253   3.896  16.380  0.00  0.00    +0.000 A 
ATOM      6  C   UNL     1       4.125   4.374  17.043  0.00  0.00    +0.000 A 
ATOM      7  C   UNL     1       2.972   3.578  17.088  0.00  0.00    +0.000 A 
ATOM      8  C   UNL     1       1.821   4.053  17.693  0.00  0.00    +0.000 A 
ATOM      9  C   UNL     1       1.816   5.321  18.259  0.00  0.00    +0.000 A 
ATOM     10  C   UNL     1       2.971   6.121  18.246  0.00  0.00    +0.000 A 
ATOM     11  C   UNL     1       4.169   5.656  17.641  0.00  0.00    +0.000 A 
ATOM     12  N   UNL     1       5.318   6.394  17.581  0.00  0.00    +0.000 NA
ATOM     13  H   UNL     1       7.799   6.773  15.787  0.00  0.00    +0.000 HD
ENDROOT
BRANCH  10  14
ATOM     14  O   UNL     1       3.003   7.365  18.856  0.00  0.00    +0.000 OA
BRANCH  14  15
ATOM     15  C   UNL     1       1.750   7.943  19.257  0.00  0.00    +0.000 C 
ATOM     16  C   UNL     1       1.615   7.877  20.788  0.00  0.00    +0.000 C 
BRANCH  15  17
ATOM     17  C   UNL     1       1.691   9.438  18.841  0.00  0.00    +0.000 C 
BRANCH  17  18
ATOM     18  C   UNL     1       0.317  10.167  18.878  0.00  0.00    +0.000 C 
ATOM     19  C   UNL     1      -0.403   9.923  20.212  0.00  0.00    +0.000 C 
ATOM     20  C   UNL     1       0.556  11.684  18.716  0.00  0.00    +0.000 C 
ATOM     21  C   UNL     1      -0.594   9.725  17.731  0.00  0.00    +0.000 C 
ENDBRANCH  17  18
ENDBRANCH  15  17
ENDBRANCH  14  15
ENDBRANCH  10  14
TORSDOF 4
ENDMDL
MODEL 8
REMARK VINA RESULT:      -5.8      1.635      4.606
REMARK  Name = 
REMARK  9 active torsions:
REMARK  status: ('A' for Active; 'I' for Inactive)
REMARK    1  A    between atoms: C_1  and  N_2
REMARK    2  A    between atoms: C_10  and  O_11
REMARK    3  A    between atoms: O_11  and  C_12
REMARK    4  A    between atoms: C_12  and  C_13
REMARK    5  A    between atoms: C_12  and  C_14
REMARK    6  A    between atoms: C_14  and  C_15
REMARK    7  A    between atoms: C_15  and  C_16
REMARK    8  A    between atoms: C_15  and  C_17
REMARK    9  A    between atoms: C_15  and  C_18
REMARK                            x       y       z     vdW  Elec       q    Type
REMARK                         _______ _______ _______ _____ _____    ______ ____
ROOT
ATOM      1  C   UNL     1       1.564   6.910  21.147  0.00  0.00    +0.000 C 
ATOM      2  N   UNL     1       1.664   7.724  19.951  0.00  0.00    +0.000 N 
ATOM      3  C   UNL     1       2.673   7.346  19.046  0.00  0.00    +0.000 A 
ATOM      4  C   UNL     1       2.800   8.126  17.904  0.00  0.00    +0.000 A 
ATOM      5  C   UNL     1       3.771   7.804  16.970  0.00  0.00    +0.000 A 
ATOM      6  C   UNL     1       4.584   6.692  17.174  0.00  0.00    +0.000 A 
ATOM      7  C   UNL     1       5.537   6.358  16.201  0.00  0.00    +0.000 A 
ATOM      8  C   UNL     1       6.319   5.226  16.354  0.00  0.00    +0.000 A 
ATOM      9  C   UNL     1       6.158   4.425  17.477  0.00  0.00    +0.000 A 
ATOM     10  C   UNL     1       5.226   4.761  18.474  0.00  0.00    +0.000 A 
ATOM     11  C   UNL     1       4.416   5.922  18.349  0.00  0.00    +0.000 A 
ATOM     12  N   UNL     1       3.481   6.291  19.275  0.00  0.00    +0.000 NA
ATOM     13  H   UNL     1       0.780   7.771  19.453  0.00  0.00    +0.000 HD
ENDROOT
BRANCH  10  14
ATOM     14  O   UNL     1       5.090   4.008  19.628  0.00  0.00    +0.000 OA
BRANCH  14  15
ATOM     15  C   UNL     1       4.329   2.791  19.546  0.00  0.00    +0.000 C 
ATOM     16  C   UNL     1       4.704   1.865  20.714  0.00  0.00    +0.000 C 
BRANCH  15  17
ATOM     17  C   UNL     1       2.811   3.100  19.656  0.00  0.00    +0.000 C 
BRANCH  17  18
ATOM     18  C   UNL     1       1.905   2.825  18.422  0.00  0.00    +0.000 C 
ATOM     19  C   UNL     1       0.638   2.056  18.824  0.00  0.00    +0.000 C 
ATOM     20  C   UNL     1       1.486   4.177  17.803  0.00  0.00    +0.000 C 
ATOM     21  C   UNL     1       2.643   2.038  17.337  0.00  0.00    +0.000 C 
ENDBRANCH  17  18
ENDBRANCH  15  17
ENDBRANCH  14  15
ENDBRANCH  10  14
TORSDOF 4
ENDMDL
MODEL 9
REMARK VINA RESULT:      -5.7      2.555      5.911
REMARK  Name = 
REMARK  9 active torsions:
REMARK  status: ('A' for Active; 'I' for Inactive)
REMARK    1  A    between atoms: C_1  and  N_2
REMARK    2  A    between atoms: C_10  and  O_11
REMARK    3  A    between atoms: O_11  and  C_12
REMARK    4  A    between atoms: C_12  and  C_13
REMARK    5  A    between atoms: C_12  and  C_14
REMARK    6  A    between atoms: C_14  and  C_15
REMARK    7  A    between atoms: C_15  and  C_16
REMARK    8  A    between atoms: C_15  and  C_17
REMARK    9  A    between atoms: C_15  and  C_18
REMARK                            x       y       z     vdW  Elec       q    Type
REMARK                         _______ _______ _______ _____ _____    ______ ____
ROOT
ATOM      1  C   UNL     1       7.600   8.290  17.454  0.00  0.00    +0.000 C 
ATOM      2  N   UNL     1       7.712   6.917  16.999  0.00  0.00    +0.000 N 
ATOM      3  C   UNL     1       6.534   6.154  17.086  0.00  0.00    +0.000 A 
ATOM      4  C   UNL     1       6.625   4.830  16.675  0.00  0.00    +0.000 A 
ATOM      5  C   UNL     1       5.499   4.026  16.731  0.00  0.00    +0.000 A 
ATOM      6  C   UNL     1       4.290   4.558  17.169  0.00  0.00    +0.000 A 
ATOM      7  C   UNL     1       3.150   3.742  17.185  0.00  0.00    +0.000 A 
ATOM      8  C   UNL     1       1.925   4.263  17.562  0.00  0.00    +0.000 A 
ATOM      9  C   UNL     1       1.830   5.599  17.930  0.00  0.00    +0.000 A 
ATOM     10  C   UNL     1       2.968   6.424  17.946  0.00  0.00    +0.000 A 
ATOM     11  C   UNL     1       4.240   5.915  17.573  0.00  0.00    +0.000 A 
ATOM     12  N   UNL     1       5.378   6.671  17.550  0.00  0.00    +0.000 NA
ATOM     13  H   UNL     1       8.065   6.864  16.048  0.00  0.00    +0.000 HD
ENDROOT
BRANCH  10  14
ATOM     14  O   UNL     1       2.905   7.743  18.365  0.00  0.00    +0.000 OA
BRANCH  14  15
ATOM     15  C   UNL     1       1.761   8.144  19.138  0.00  0.00    +0.000 C 
ATOM     16  C   UNL     1       1.891   7.605  20.572  0.00  0.00    +0.000 C 
BRANCH  15  17
ATOM     17  C   UNL     1       1.685   9.693  19.220  0.00  0.00    +0.000 C 
BRANCH  17  18
ATOM     18  C   UNL     1       0.296  10.378  19.069  0.00  0.00    +0.000 C 
ATOM     19  C   UNL     1       0.447  11.874  18.755  0.00  0.00    +0.000 C 
ATOM     20  C   UNL     1      -0.466   9.705  17.907  0.00  0.00    +0.000 C 
ATOM     21  C   UNL     1      -0.559  10.216  20.328  0.00  0.00    +0.000 C 
ENDBRANCH  17  18
ENDBRANCH  15  17
ENDBRANCH  14  15
ENDBRANCH  10  14
TORSDOF 4
ENDMDL
