MODEL 1
REMARK VINA RESULT:      -8.9      0.000      0.000
REMARK  Name = 
REMARK  4 active torsions:
REMARK  status: ('A' for Active; 'I' for Inactive)
REMARK    1  A    between atoms: C_4  and  C_5
REMARK    2  A    between atoms: C_16  and  N_17
REMARK    3  A    between atoms: C_21  and  N_22
REMARK    4  A    between atoms: C_23  and  C_25
REMARK                            x       y       z     vdW  Elec       q    Type
REMARK                         _______ _______ _______ _____ _____    ______ ____
ROOT
ATOM      1  N   UNL     1       2.156   4.707  21.264  0.00  0.00    +0.000 N 
ATOM      2  C   UNL     1       2.457   5.667  20.316  0.00  0.00    +0.000 A 
ATOM      3  N   UNL     1       3.410   5.373  19.430  0.00  0.00    +0.000 NA
ATOM      4  C   UNL     1       3.697   6.320  18.517  0.00  0.00    +0.000 A 
ATOM      5  C   UNL     1       3.044   7.537  18.510  0.00  0.00    +0.000 A 
ATOM      6  C   UNL     1       2.077   7.763  19.467  0.00  0.00    +0.000 A 
ATOM      7  N   UNL     1       1.789   6.821  20.378  0.00  0.00    +0.000 NA
ATOM      8  H   UNL     1       2.945   4.087  21.373  0.00  0.00    +0.000 HD
ATOM      9  H   UNL     1       1.803   5.162  22.093  0.00  0.00    +0.000 HD
ENDROOT
BRANCH   4  10
ATOM     10  C   UNL     1       4.693   5.974  17.480  0.00  0.00    +0.000 A 
ATOM     11  C   UNL     1       5.920   6.663  17.394  0.00  0.00    +0.000 A 
ATOM     12  C   UNL     1       6.849   6.420  16.373  0.00  0.00    +0.000 A 
ATOM     13  C   UNL     1       6.552   5.443  15.409  0.00  0.00    +0.000 A 
ATOM     14  C   UNL     1       7.175   4.930  14.242  0.00  0.00    +0.000 A 
ATOM     15  N   UNL     1       8.347   5.361  13.758  0.00  0.00    +0.000 N 
ATOM     16  N   UNL     1       6.460   3.965  13.671  0.00  0.00    +0.000 NA
ATOM     17  N   UNL     1       5.368   3.874  14.452  0.00  0.00    +0.000 N 
ATOM     18  C   UNL     1       5.359   4.740  15.512  0.00  0.00    +0.000 A 
ATOM     19  C   UNL     1       4.419   4.970  16.524  0.00  0.00    +0.000 A 
ATOM     20  H   UNL     1       8.977   5.924  14.314  0.00  0.00    +0.000 HD
ATOM     21  H   UNL     1       8.784   4.812  13.029  0.00  0.00    +0.000 HD
ATOM     22  H   UNL     1       4.657   3.198  14.203  0.00  0.00    +0.000 HD
ENDBRANCH   4  10
BRANCH   6  23
ATOM     23  N   UNL     1       1.327   8.921  19.416  0.00  0.00    +0.000 N 
ATOM     24  C   UNL     1       1.054   9.531  18.125  0.00  0.00    +0.000 C 
ATOM     25  C   UNL     1       1.246  11.037  18.306  0.00  0.00    +0.000 C 
ATOM     26  C   UNL     1       0.359  11.587  19.425  0.00  0.00    +0.000 C 
ATOM     27  C   UNL     1       0.518  10.817  20.754  0.00  0.00    +0.000 C 
ATOM     28  C   UNL     1       0.420   9.290  20.507  0.00  0.00    +0.000 C 
BRANCH  27  29
ATOM     29  N   UNL     1      -0.470  11.309  21.717  0.00  0.00    +0.000 N 
ATOM     30  C   UNL     1      -0.420  12.588  22.233  0.00  0.00    +0.000 C 
ATOM     31  O   UNL     1       0.480  13.384  21.988  0.00  0.00    +0.000 OA
ATOM     32  H   UNL     1      -1.368  10.844  21.732  0.00  0.00    +0.000 HD
BRANCH  30  33
ATOM     33  C   UNL     1      -1.571  12.990  23.090  0.00  0.00    +0.000 A 
ATOM     34  C   UNL     1      -1.582  14.205  23.790  0.00  0.00    +0.000 A 
ATOM     35  C   UNL     1      -2.662  14.530  24.613  0.00  0.00    +0.000 A 
ATOM     36  C   UNL     1      -3.738  13.650  24.731  0.00  0.00    +0.000 A 
ATOM     37  C   UNL     1      -3.747  12.454  24.013  0.00  0.00    +0.000 A 
ATOM     38  C   UNL     1      -2.669  12.127  23.189  0.00  0.00    +0.000 A 
ENDBRANCH  30  33
ENDBRANCH  27  29
ENDBRANCH   6  23
TORSDOF 4
ENDMDL
MODEL 2
REMARK VINA RESULT:      -8.8      0.601      1.256
REMARK  Name = 
REMARK  4 active torsions:
REMARK  status: ('A' for Active; 'I' for Inactive)
REMARK    1  A    between atoms: C_4  and  C_5
REMARK    2  A    between atoms: C_16  and  N_17
REMARK    3  A    between atoms: C_21  and  N_22
REMARK    4  A    between atoms: C_23  and  C_25
REMARK                            x       y       z     vdW  Elec       q    Type
REMARK                         _______ _______ _______ _____ _____    ______ ____
ROOT
ATOM      1  N   UNL     1       2.213   4.911  21.618  0.00  0.00    +0.000 N 
ATOM      2  C   UNL     1       2.399   5.758  20.542  0.00  0.00    +0.000 A 
ATOM      3  N   UNL     1       3.165   5.317  19.542  0.00  0.00    +0.000 NA
ATOM      4  C   UNL     1       3.342   6.155  18.504  0.00  0.00    +0.000 A 
ATOM      5  C   UNL     1       2.770   7.412  18.485  0.00  0.00    +0.000 A 
ATOM      6  C   UNL     1       1.999   7.793  19.564  0.00  0.00    +0.000 A 
ATOM      7  N   UNL     1       1.820   6.960  20.599  0.00  0.00    +0.000 NA
ATOM      8  H   UNL     1       2.972   4.246  21.655  0.00  0.00    +0.000 HD
ATOM      9  H   UNL     1       2.037   5.463  22.445  0.00  0.00    +0.000 HD
ENDROOT
BRANCH   4  10
ATOM     10  C   UNL     1       4.121   5.645  17.354  0.00  0.00    +0.000 A 
ATOM     11  C   UNL     1       3.696   4.508  16.637  0.00  0.00    +0.000 A 
ATOM     12  C   UNL     1       4.452   3.947  15.599  0.00  0.00    +0.000 A 
ATOM     13  C   UNL     1       5.671   4.550  15.251  0.00  0.00    +0.000 A 
ATOM     14  C   UNL     1       6.713   4.296  14.323  0.00  0.00    +0.000 A 
ATOM     15  N   UNL     1       6.738   3.258  13.478  0.00  0.00    +0.000 N 
ATOM     16  N   UNL     1       7.678   5.209  14.385  0.00  0.00    +0.000 NA
ATOM     17  N   UNL     1       7.272   6.034  15.367  0.00  0.00    +0.000 N 
ATOM     18  C   UNL     1       6.075   5.690  15.934  0.00  0.00    +0.000 A 
ATOM     19  C   UNL     1       5.332   6.264  16.973  0.00  0.00    +0.000 A 
ATOM     20  H   UNL     1       5.910   2.710  13.284  0.00  0.00    +0.000 HD
ATOM     21  H   UNL     1       7.433   3.267  12.742  0.00  0.00    +0.000 HD
ATOM     22  H   UNL     1       7.865   6.818  15.609  0.00  0.00    +0.000 HD
ENDBRANCH   4  10
BRANCH   6  23
ATOM     23  N   UNL     1       1.320   8.994  19.523  0.00  0.00    +0.000 N 
ATOM     24  C   UNL     1       1.183   9.688  18.253  0.00  0.00    +0.000 C 
ATOM     25  C   UNL     1       1.442  11.168  18.535  0.00  0.00    +0.000 C 
ATOM     26  C   UNL     1       0.502  11.709  19.614  0.00  0.00    +0.000 C 
ATOM     27  C   UNL     1       0.513  10.861  20.904  0.00  0.00    +0.000 C 
ATOM     28  C   UNL     1       0.352   9.357  20.562  0.00  0.00    +0.000 C 
BRANCH  27  29
ATOM     29  N   UNL     1      -0.518  11.357  21.818  0.00  0.00    +0.000 N 
ATOM     30  C   UNL     1      -0.447  12.609  22.396  0.00  0.00    +0.000 C 
ATOM     31  O   UNL     1       0.504  13.368  22.254  0.00  0.00    +0.000 OA
ATOM     32  H   UNL     1      -1.436  10.938  21.746  0.00  0.00    +0.000 HD
BRANCH  30  33
ATOM     33  C   UNL     1      -1.638  13.028  23.188  0.00  0.00    +0.000 A 
ATOM     34  C   UNL     1      -1.681  14.257  23.861  0.00  0.00    +0.000 A 
ATOM     35  C   UNL     1      -2.799  14.600  24.623  0.00  0.00    +0.000 A 
ATOM     36  C   UNL     1      -3.882  13.723  24.708  0.00  0.00    +0.000 A 
ATOM     37  C   UNL     1      -3.857  12.512  24.015  0.00  0.00    +0.000 A 
ATOM     38  C   UNL     1      -2.740  12.167  23.251  0.00  0.00    +0.000 A 
ENDBRANCH  30  33
ENDBRANCH  27  29
ENDBRANCH   6  23
TORSDOF 4
ENDMDL
MODEL 3
REMARK VINA RESULT:      -8.8      3.434     11.126
REMARK  Name = 
REMARK  4 active torsions:
REMARK  status: ('A' for Active; 'I' for Inactive)
REMARK    1  A    between atoms: C_4  and  C_5
REMARK    2  A    between atoms: C_16  and  N_17
REMARK    3  A    between atoms: C_21  and  N_22
REMARK    4  A    between atoms: C_23  and  C_25
REMARK                            x       y       z     vdW  Elec       q    Type
REMARK                         _______ _______ _______ _____ _____    ______ ____
ROOT
ATOM      1  N   UNL     1       1.781   3.546  21.652  0.00  0.00    +0.000 N 
ATOM      2  C   UNL     1       2.278   4.528  20.816  0.00  0.00    +0.000 A 
ATOM      3  N   UNL     1       1.717   5.736  20.891  0.00  0.00    +0.000 NA
ATOM      4  C   UNL     1       2.207   6.681  20.067  0.00  0.00    +0.000 A 
ATOM      5  C   UNL     1       3.230   6.405  19.181  0.00  0.00    +0.000 A 
ATOM      6  C   UNL     1       3.749   5.127  19.162  0.00  0.00    +0.000 A 
ATOM      7  N   UNL     1       3.263   4.184  19.982  0.00  0.00    +0.000 NA
ATOM      8  H   UNL     1       0.838   3.784  21.923  0.00  0.00    +0.000 HD
ATOM      9  H   UNL     1       1.928   2.643  21.224  0.00  0.00    +0.000 HD
ENDROOT
BRANCH   4  10
ATOM     10  C   UNL     1       1.648   8.044  20.199  0.00  0.00    +0.000 A 
ATOM     11  C   UNL     1       1.138   8.503  21.431  0.00  0.00    +0.000 A 
ATOM     12  C   UNL     1       0.523   9.754  21.572  0.00  0.00    +0.000 A 
ATOM     13  C   UNL     1       0.427  10.588  20.447  0.00  0.00    +0.000 A 
ATOM     14  C   UNL     1      -0.124  11.864  20.160  0.00  0.00    +0.000 A 
ATOM     15  N   UNL     1      -0.769  12.628  21.050  0.00  0.00    +0.000 N 
ATOM     16  N   UNL     1       0.069  12.223  18.894  0.00  0.00    +0.000 NA
ATOM     17  N   UNL     1       0.718  11.172  18.361  0.00  0.00    +0.000 N 
ATOM     18  C   UNL     1       0.958  10.152  19.241  0.00  0.00    +0.000 A 
ATOM     19  C   UNL     1       1.575   8.905  19.082  0.00  0.00    +0.000 A 
ATOM     20  H   UNL     1      -0.711  12.450  22.044  0.00  0.00    +0.000 HD
ATOM     21  H   UNL     1      -0.964  13.587  20.792  0.00  0.00    +0.000 HD
ATOM     22  H   UNL     1       0.967  11.211  17.380  0.00  0.00    +0.000 HD
ENDBRANCH   4  10
BRANCH   6  23
ATOM     23  N   UNL     1       4.848   4.852  18.373  0.00  0.00    +0.000 N 
ATOM     24  C   UNL     1       6.174   4.904  18.963  0.00  0.00    +0.000 C 
ATOM     25  C   UNL     1       7.074   5.615  17.951  0.00  0.00    +0.000 C 
ATOM     26  C   UNL     1       7.054   4.915  16.591  0.00  0.00    +0.000 C 
ATOM     27  C   UNL     1       5.625   4.695  16.047  0.00  0.00    +0.000 C 
ATOM     28  C   UNL     1       4.722   4.069  17.140  0.00  0.00    +0.000 C 
BRANCH  27  29
ATOM     29  N   UNL     1       5.692   3.891  14.825  0.00  0.00    +0.000 N 
ATOM     30  C   UNL     1       6.392   4.306  13.709  0.00  0.00    +0.000 C 
ATOM     31  O   UNL     1       6.945   5.395  13.622  0.00  0.00    +0.000 OA
ATOM     32  H   UNL     1       5.530   2.897  14.919  0.00  0.00    +0.000 HD
BRANCH  30  33
ATOM     33  C   UNL     1       6.487   3.318  12.597  0.00  0.00    +0.000 A 
ATOM     34  C   UNL     1       7.703   3.048  11.952  0.00  0.00    +0.000 A 
ATOM     35  C   UNL     1       7.746   2.144  10.889  0.00  0.00    +0.000 A 
ATOM     36  C   UNL     1       6.580   1.498  10.474  0.00  0.00    +0.000 A 
ATOM     37  C   UNL     1       5.374   1.740  11.132  0.00  0.00    +0.000 A 
ATOM     38  C   UNL     1       5.328   2.644  12.195  0.00  0.00    +0.000 A 
ENDBRANCH  30  33
ENDBRANCH  27  29
ENDBRANCH   6  23
TORSDOF 4
ENDMDL
MODEL 4
REMARK VINA RESULT:      -8.7      3.228     11.249
REMARK  Name = 
REMARK  4 active torsions:
REMARK  status: ('A' for Active; 'I' for Inactive)
REMARK    1  A    between atoms: C_4  and  C_5
REMARK    2  A    between atoms: C_16  and  N_17
REMARK    3  A    between atoms: C_21  and  N_22
REMARK    4  A    between atoms: C_23  and  C_25
REMARK                            x       y       z     vdW  Elec       q    Type
REMARK                         _______ _______ _______ _____ _____    ______ ____
ROOT
ATOM      1  N   UNL     1       1.416   3.317  21.497  0.00  0.00    +0.000 N 
ATOM      2  C   UNL     1       1.952   4.364  20.771  0.00  0.00    +0.000 A 
ATOM      3  N   UNL     1       1.404   5.569  20.942  0.00  0.00    +0.000 NA
ATOM      4  C   UNL     1       1.932   6.578  20.224  0.00  0.00    +0.000 A 
ATOM      5  C   UNL     1       2.977   6.369  19.346  0.00  0.00    +0.000 A 
ATOM      6  C   UNL     1       3.479   5.090  19.223  0.00  0.00    +0.000 A 
ATOM      7  N   UNL     1       2.956   4.083  19.938  0.00  0.00    +0.000 NA
ATOM      8  H   UNL     1       0.469   3.544  21.762  0.00  0.00    +0.000 HD
ATOM      9  H   UNL     1       1.564   2.455  20.991  0.00  0.00    +0.000 HD
ENDROOT
BRANCH   4  10
ATOM     10  C   UNL     1       1.387   7.932  20.467  0.00  0.00    +0.000 A 
ATOM     11  C   UNL     1       1.526   8.953  19.505  0.00  0.00    +0.000 A 
ATOM     12  C   UNL     1       1.100  10.268  19.737  0.00  0.00    +0.000 A 
ATOM     13  C   UNL     1       0.498  10.575  20.967  0.00  0.00    +0.000 A 
ATOM     14  C   UNL     1      -0.024  11.736  21.593  0.00  0.00    +0.000 A 
ATOM     15  N   UNL     1      -0.030  12.955  21.040  0.00  0.00    +0.000 N 
ATOM     16  N   UNL     1      -0.511  11.481  22.804  0.00  0.00    +0.000 NA
ATOM     17  N   UNL     1      -0.280  10.166  22.969  0.00  0.00    +0.000 N 
ATOM     18  C   UNL     1       0.331   9.562  21.903  0.00  0.00    +0.000 A 
ATOM     19  C   UNL     1       0.751   8.244  21.689  0.00  0.00    +0.000 A 
ATOM     20  H   UNL     1       0.130  13.092  20.052  0.00  0.00    +0.000 HD
ATOM     21  H   UNL     1      -0.581  13.674  21.493  0.00  0.00    +0.000 HD
ATOM     22  H   UNL     1      -0.560   9.737  23.842  0.00  0.00    +0.000 HD
ENDBRANCH   4  10
BRANCH   6  23
ATOM     23  N   UNL     1       4.598   4.871  18.443  0.00  0.00    +0.000 N 
ATOM     24  C   UNL     1       5.914   4.977  19.049  0.00  0.00    +0.000 C 
ATOM     25  C   UNL     1       6.792   5.737  18.053  0.00  0.00    +0.000 C 
ATOM     26  C   UNL     1       6.817   5.049  16.687  0.00  0.00    +0.000 C 
ATOM     27  C   UNL     1       5.406   4.772  16.125  0.00  0.00    +0.000 C 
ATOM     28  C   UNL     1       4.520   4.096  17.202  0.00  0.00    +0.000 C 
BRANCH  27  29
ATOM     29  N   UNL     1       5.522   3.982  14.897  0.00  0.00    +0.000 N 
ATOM     30  C   UNL     1       6.250   4.420  13.808  0.00  0.00    +0.000 C 
ATOM     31  O   UNL     1       6.791   5.517  13.751  0.00  0.00    +0.000 OA
ATOM     32  H   UNL     1       5.370   2.985  14.975  0.00  0.00    +0.000 HD
BRANCH  30  33
ATOM     33  C   UNL     1       6.393   3.447  12.688  0.00  0.00    +0.000 A 
ATOM     34  C   UNL     1       5.326   2.638  12.271  0.00  0.00    +0.000 A 
ATOM     35  C   UNL     1       5.509   1.712  11.242  0.00  0.00    +0.000 A 
ATOM     36  C   UNL     1       6.752   1.597  10.620  0.00  0.00    +0.000 A 
ATOM     37  C   UNL     1       7.809   2.421  11.009  0.00  0.00    +0.000 A 
ATOM     38  C   UNL     1       7.629   3.348  12.037  0.00  0.00    +0.000 A 
ENDBRANCH  30  33
ENDBRANCH  27  29
ENDBRANCH   6  23
TORSDOF 4
ENDMDL
MODEL 5
REMARK VINA RESULT:      -8.6      2.590      3.900
REMARK  Name = 
REMARK  4 active torsions:
REMARK  status: ('A' for Active; 'I' for Inactive)
REMARK    1  A    between atoms: C_4  and  C_5
REMARK    2  A    between atoms: C_16  and  N_17
REMARK    3  A    between atoms: C_21  and  N_22
REMARK    4  A    between atoms: C_23  and  C_25
REMARK                            x       y       z     vdW  Elec       q    Type
REMARK                         _______ _______ _______ _____ _____    ______ ____
ROOT
ATOM      1  N   UNL     1       2.087   3.464  21.709  0.00  0.00    +0.000 N 
ATOM      2  C   UNL     1       2.335   4.538  20.875  0.00  0.00    +0.000 A 
ATOM      3  N   UNL     1       3.111   4.320  19.812  0.00  0.00    +0.000 NA
ATOM      4  C   UNL     1       3.349   5.376  19.012  0.00  0.00    +0.000 A 
ATOM      5  C   UNL     1       2.825   6.623  19.290  0.00  0.00    +0.000 A 
ATOM      6  C   UNL     1       2.038   6.764  20.414  0.00  0.00    +0.000 A 
ATOM      7  N   UNL     1       1.799   5.713  21.212  0.00  0.00    +0.000 NA
ATOM      8  H   UNL     1       2.819   2.778  21.596  0.00  0.00    +0.000 HD
ATOM      9  H   UNL     1       1.909   3.805  22.642  0.00  0.00    +0.000 HD
ENDROOT
BRANCH   4  10
ATOM     10  C   UNL     1       4.140   5.127  17.787  0.00  0.00    +0.000 A 
ATOM     11  C   UNL     1       3.777   4.107  16.884  0.00  0.00    +0.000 A 
ATOM     12  C   UNL     1       4.552   3.788  15.761  0.00  0.00    +0.000 A 
ATOM     13  C   UNL     1       5.723   4.521  15.518  0.00  0.00    +0.000 A 
ATOM     14  C   UNL     1       6.765   4.503  14.554  0.00  0.00    +0.000 A 
ATOM     15  N   UNL     1       6.842   3.632  13.541  0.00  0.00    +0.000 N 
ATOM     16  N   UNL     1       7.670   5.452  14.771  0.00  0.00    +0.000 NA
ATOM     17  N   UNL     1       7.227   6.065  15.885  0.00  0.00    +0.000 N 
ATOM     18  C   UNL     1       6.064   5.548  16.388  0.00  0.00    +0.000 A 
ATOM     19  C   UNL     1       5.303   5.881  17.516  0.00  0.00    +0.000 A 
ATOM     20  H   UNL     1       6.048   3.073  13.258  0.00  0.00    +0.000 HD
ATOM     21  H   UNL     1       7.523   3.815  12.814  0.00  0.00    +0.000 HD
ATOM     22  H   UNL     1       7.772   6.832  16.258  0.00  0.00    +0.000 HD
ENDBRANCH   4  10
BRANCH   6  23
ATOM     23  N   UNL     1       1.405   7.968  20.655  0.00  0.00    +0.000 N 
ATOM     24  C   UNL     1       0.639   8.132  21.878  0.00  0.00    +0.000 C 
ATOM     25  C   UNL     1      -0.653   8.853  21.489  0.00  0.00    +0.000 C 
ATOM     26  C   UNL     1      -0.366  10.179  20.782  0.00  0.00    +0.000 C 
ATOM     27  C   UNL     1       0.599  10.029  19.587  0.00  0.00    +0.000 C 
ATOM     28  C   UNL     1       1.844   9.203  19.999  0.00  0.00    +0.000 C 
BRANCH  27  29
ATOM     29  N   UNL     1       0.935  11.356  19.068  0.00  0.00    +0.000 N 
ATOM     30  C   UNL     1       1.418  12.362  19.881  0.00  0.00    +0.000 C 
ATOM     31  O   UNL     1       1.535  12.256  21.096  0.00  0.00    +0.000 OA
ATOM     32  H   UNL     1       1.148  11.424  18.081  0.00  0.00    +0.000 HD
BRANCH  30  33
ATOM     33  C   UNL     1       1.849  13.609  19.186  0.00  0.00    +0.000 A 
ATOM     34  C   UNL     1       2.996  13.647  18.381  0.00  0.00    +0.000 A 
ATOM     35  C   UNL     1       3.389  14.842  17.777  0.00  0.00    +0.000 A 
ATOM     36  C   UNL     1       2.634  16.001  17.964  0.00  0.00    +0.000 A 
ATOM     37  C   UNL     1       1.475  15.962  18.740  0.00  0.00    +0.000 A 
ATOM     38  C   UNL     1       1.079  14.767  19.345  0.00  0.00    +0.000 A 
ENDBRANCH  30  33
ENDBRANCH  27  29
ENDBRANCH   6  23
TORSDOF 4
ENDMDL
MODEL 6
REMARK VINA RESULT:      -8.6      0.957      1.173
REMARK  Name = 
REMARK  4 active torsions:
REMARK  status: ('A' for Active; 'I' for Inactive)
REMARK    1  A    between atoms: C_4  and  C_5
REMARK    2  A    between atoms: C_16  and  N_17
REMARK    3  A    between atoms: C_21  and  N_22
REMARK    4  A    between atoms: C_23  and  C_25
REMARK                            x       y       z     vdW  Elec       q    Type
REMARK                         _______ _______ _______ _____ _____    ______ ____
ROOT
ATOM      1  N   UNL     1       1.867   5.200  21.211  0.00  0.00    +0.000 N 
ATOM      2  C   UNL     1       2.243   6.113  20.244  0.00  0.00    +0.000 A 
ATOM      3  N   UNL     1       3.206   5.744  19.397  0.00  0.00    +0.000 NA
ATOM      4  C   UNL     1       3.566   6.645  18.465  0.00  0.00    +0.000 A 
ATOM      5  C   UNL     1       2.976   7.892  18.400  0.00  0.00    +0.000 A 
ATOM      6  C   UNL     1       1.993   8.196  19.319  0.00  0.00    +0.000 A 
ATOM      7  N   UNL     1       1.632   7.299  20.249  0.00  0.00    +0.000 NA
ATOM      8  H   UNL     1       2.621   4.545  21.364  0.00  0.00    +0.000 HD
ATOM      9  H   UNL     1       1.513   5.698  22.015  0.00  0.00    +0.000 HD
ENDROOT
BRANCH   4  10
ATOM     10  C   UNL     1       4.574   6.217  17.470  0.00  0.00    +0.000 A 
ATOM     11  C   UNL     1       5.787   6.920  17.318  0.00  0.00    +0.000 A 
ATOM     12  C   UNL     1       6.725   6.595  16.329  0.00  0.00    +0.000 A 
ATOM     13  C   UNL     1       6.453   5.520  15.468  0.00  0.00    +0.000 A 
ATOM     14  C   UNL     1       7.092   4.904  14.360  0.00  0.00    +0.000 A 
ATOM     15  N   UNL     1       8.256   5.309  13.838  0.00  0.00    +0.000 N 
ATOM     16  N   UNL     1       6.400   3.872  13.888  0.00  0.00    +0.000 NA
ATOM     17  N   UNL     1       5.307   3.837  14.672  0.00  0.00    +0.000 N 
ATOM     18  C   UNL     1       5.275   4.805  15.639  0.00  0.00    +0.000 A 
ATOM     19  C   UNL     1       4.326   5.116  16.621  0.00  0.00    +0.000 A 
ATOM     20  H   UNL     1       8.872   5.938  14.335  0.00  0.00    +0.000 HD
ATOM     21  H   UNL     1       8.709   4.699  13.169  0.00  0.00    +0.000 HD
ATOM     22  H   UNL     1       4.611   3.124  14.491  0.00  0.00    +0.000 HD
ENDBRANCH   4  10
BRANCH   6  23
ATOM     23  N   UNL     1       1.303   9.386  19.208  0.00  0.00    +0.000 N 
ATOM     24  C   UNL     1       1.571  10.257  18.077  0.00  0.00    +0.000 C 
ATOM     25  C   UNL     1       1.636  11.682  18.628  0.00  0.00    +0.000 C 
ATOM     26  C   UNL     1       0.355  12.054  19.376  0.00  0.00    +0.000 C 
ATOM     27  C   UNL     1      -0.030  11.026  20.462  0.00  0.00    +0.000 C 
ATOM     28  C   UNL     1       0.020   9.588  19.886  0.00  0.00    +0.000 C 
BRANCH  27  29
ATOM     29  N   UNL     1      -1.338  11.378  21.019  0.00  0.00    +0.000 N 
ATOM     30  C   UNL     1      -1.488  11.824  22.317  0.00  0.00    +0.000 C 
ATOM     31  O   UNL     1      -0.566  11.893  23.122  0.00  0.00    +0.000 OA
ATOM     32  H   UNL     1      -2.065  11.630  20.362  0.00  0.00    +0.000 HD
BRANCH  30  33
ATOM     33  C   UNL     1      -2.857  12.278  22.695  0.00  0.00    +0.000 A 
ATOM     34  C   UNL     1      -3.296  12.270  24.027  0.00  0.00    +0.000 A 
ATOM     35  C   UNL     1      -4.598  12.668  24.337  0.00  0.00    +0.000 A 
ATOM     36  C   UNL     1      -5.461  13.086  23.323  0.00  0.00    +0.000 A 
ATOM     37  C   UNL     1      -5.019  13.126  22.001  0.00  0.00    +0.000 A 
ATOM     38  C   UNL     1      -3.717  12.729  21.687  0.00  0.00    +0.000 A 
ENDBRANCH  30  33
ENDBRANCH  27  29
ENDBRANCH   6  23
TORSDOF 4
ENDMDL
MODEL 7
REMARK VINA RESULT:      -8.5      2.632      3.586
REMARK  Name = 
REMARK  4 active torsions:
REMARK  status: ('A' for Active; 'I' for Inactive)
REMARK    1  A    between atoms: C_4  and  C_5
REMARK    2  A    between atoms: C_16  and  N_17
REMARK    3  A    between atoms: C_21  and  N_22
REMARK    4  A    between atoms: C_23  and  C_25
REMARK                            x       y       z     vdW  Elec       q    Type
REMARK                         _______ _______ _______ _____ _____    ______ ____
ROOT
ATOM      1  N   UNL     1       1.408   3.025  20.518  0.00  0.00    +0.000 N 
ATOM      2  C   UNL     1       1.936   4.215  20.053  0.00  0.00    +0.000 A 
ATOM      3  N   UNL     1       2.911   4.137  19.146  0.00  0.00    +0.000 NA
ATOM      4  C   UNL     1       3.420   5.304  18.707  0.00  0.00    +0.000 A 
ATOM      5  C   UNL     1       2.963   6.516  19.185  0.00  0.00    +0.000 A 
ATOM      6  C   UNL     1       1.957   6.507  20.129  0.00  0.00    +0.000 A 
ATOM      7  N   UNL     1       1.447   5.346  20.567  0.00  0.00    +0.000 NA
ATOM      8  H   UNL     1       2.080   2.285  20.382  0.00  0.00    +0.000 HD
ATOM      9  H   UNL     1       1.053   3.165  21.453  0.00  0.00    +0.000 HD
ENDROOT
BRANCH   4  10
ATOM     10  C   UNL     1       4.444   5.231  17.642  0.00  0.00    +0.000 A 
ATOM     11  C   UNL     1       5.429   6.231  17.513  0.00  0.00    +0.000 A 
ATOM     12  C   UNL     1       6.360   6.240  16.465  0.00  0.00    +0.000 A 
ATOM     13  C   UNL     1       6.318   5.206  15.518  0.00  0.00    +0.000 A 
ATOM     14  C   UNL     1       7.026   4.867  14.335  0.00  0.00    +0.000 A 
ATOM     15  N   UNL     1       8.017   5.599  13.812  0.00  0.00    +0.000 N 
ATOM     16  N   UNL     1       6.590   3.734  13.793  0.00  0.00    +0.000 NA
ATOM     17  N   UNL     1       5.589   3.356  14.608  0.00  0.00    +0.000 N 
ATOM     18  C   UNL     1       5.370   4.201  15.662  0.00  0.00    +0.000 A 
ATOM     19  C   UNL     1       4.432   4.177  16.702  0.00  0.00    +0.000 A 
ATOM     20  H   UNL     1       8.483   6.322  14.344  0.00  0.00    +0.000 HD
ATOM     21  H   UNL     1       8.569   5.182  13.072  0.00  0.00    +0.000 HD
ATOM     22  H   UNL     1       5.086   2.506  14.386  0.00  0.00    +0.000 HD
ENDBRANCH   4  10
BRANCH   6  23
ATOM     23  N   UNL     1       1.399   7.701  20.539  0.00  0.00    +0.000 N 
ATOM     24  C   UNL     1       0.645   7.741  21.781  0.00  0.00    +0.000 C 
ATOM     25  C   UNL     1      -0.601   8.584  21.508  0.00  0.00    +0.000 C 
ATOM     26  C   UNL     1      -0.236   9.975  20.987  0.00  0.00    +0.000 C 
ATOM     27  C   UNL     1       0.717   9.934  19.772  0.00  0.00    +0.000 C 
ATOM     28  C   UNL     1       1.910   8.986  20.055  0.00  0.00    +0.000 C 
BRANCH  27  29
ATOM     29  N   UNL     1       1.132  11.298  19.437  0.00  0.00    +0.000 N 
ATOM     30  C   UNL     1       0.273  12.202  18.845  0.00  0.00    +0.000 C 
ATOM     31  O   UNL     1      -0.866  11.924  18.489  0.00  0.00    +0.000 OA
ATOM     32  H   UNL     1       1.915  11.680  19.950  0.00  0.00    +0.000 HD
BRANCH  30  33
ATOM     33  C   UNL     1       0.793  13.591  18.695  0.00  0.00    +0.000 A 
ATOM     34  C   UNL     1      -0.044  14.710  18.810  0.00  0.00    +0.000 A 
ATOM     35  C   UNL     1       0.473  15.994  18.627  0.00  0.00    +0.000 A 
ATOM     36  C   UNL     1       1.827  16.167  18.340  0.00  0.00    +0.000 A 
ATOM     37  C   UNL     1       2.671  15.059  18.255  0.00  0.00    +0.000 A 
ATOM     38  C   UNL     1       2.158  13.774  18.438  0.00  0.00    +0.000 A 
ENDBRANCH  30  33
ENDBRANCH  27  29
ENDBRANCH   6  23
TORSDOF 4
ENDMDL
MODEL 8
REMARK VINA RESULT:      -8.5      2.288      4.001
REMARK  Name = 
REMARK  4 active torsions:
REMARK  status: ('A' for Active; 'I' for Inactive)
REMARK    1  A    between atoms: C_4  and  C_5
REMARK    2  A    between atoms: C_16  and  N_17
REMARK    3  A    between atoms: C_21  and  N_22
REMARK    4  A    between atoms: C_23  and  C_25
REMARK                            x       y       z     vdW  Elec       q    Type
REMARK                         _______ _______ _______ _____ _____    ______ ____
ROOT
ATOM      1  N   UNL     1       2.375  12.172  17.239  0.00  0.00    +0.000 N 
ATOM      2  C   UNL     1       2.086  11.104  18.068  0.00  0.00    +0.000 A 
ATOM      3  N   UNL     1       2.536   9.904  17.698  0.00  0.00    +0.000 NA
ATOM      4  C   UNL     1       2.242   8.872  18.511  0.00  0.00    +0.000 A 
ATOM      5  C   UNL     1       1.499   9.050  19.662  0.00  0.00    +0.000 A 
ATOM      6  C   UNL     1       1.065  10.323  19.967  0.00  0.00    +0.000 A 
ATOM      7  N   UNL     1       1.358  11.353  19.159  0.00  0.00    +0.000 NA
ATOM      8  H   UNL     1       2.560  11.831  16.307  0.00  0.00    +0.000 HD
ATOM      9  H   UNL     1       1.657  12.874  17.344  0.00  0.00    +0.000 HD
ENDROOT
BRANCH   4  10
ATOM     10  C   UNL     1       2.805   7.552  18.153  0.00  0.00    +0.000 A 
ATOM     11  C   UNL     1       4.079   7.444  17.560  0.00  0.00    +0.000 A 
ATOM     12  C   UNL     1       4.607   6.219  17.129  0.00  0.00    +0.000 A 
ATOM     13  C   UNL     1       3.845   5.055  17.311  0.00  0.00    +0.000 A 
ATOM     14  C   UNL     1       3.986   3.677  17.005  0.00  0.00    +0.000 A 
ATOM     15  N   UNL     1       5.040   3.147  16.371  0.00  0.00    +0.000 N 
ATOM     16  N   UNL     1       2.946   2.959  17.416  0.00  0.00    +0.000 NA
ATOM     17  N   UNL     1       2.124   3.874  17.963  0.00  0.00    +0.000 N 
ATOM     18  C   UNL     1       2.604   5.155  17.926  0.00  0.00    +0.000 A 
ATOM     19  C   UNL     1       2.060   6.370  18.362  0.00  0.00    +0.000 A 
ATOM     20  H   UNL     1       5.908   3.654  16.268  0.00  0.00    +0.000 HD
ATOM     21  H   UNL     1       5.123   2.139  16.360  0.00  0.00    +0.000 HD
ATOM     22  H   UNL     1       1.241   3.558  18.343  0.00  0.00    +0.000 HD
ENDBRANCH   4  10
BRANCH   6  23
ATOM     23  N   UNL     1       0.423  10.553  21.167  0.00  0.00    +0.000 N 
ATOM     24  C   UNL     1       0.697   9.680  22.296  0.00  0.00    +0.000 C 
ATOM     25  C   UNL     1      -0.650   9.385  22.957  0.00  0.00    +0.000 C 
ATOM     26  C   UNL     1      -1.372  10.672  23.360  0.00  0.00    +0.000 C 
ATOM     27  C   UNL     1      -1.503  11.680  22.198  0.00  0.00    +0.000 C 
ATOM     28  C   UNL     1      -0.135  11.869  21.492  0.00  0.00    +0.000 C 
BRANCH  27  29
ATOM     29  N   UNL     1      -2.065  12.933  22.707  0.00  0.00    +0.000 N 
ATOM     30  C   UNL     1      -3.418  13.093  22.931  0.00  0.00    +0.000 C 
ATOM     31  O   UNL     1      -4.256  12.241  22.661  0.00  0.00    +0.000 OA
ATOM     32  H   UNL     1      -1.442  13.543  23.218  0.00  0.00    +0.000 HD
BRANCH  30  33
ATOM     33  C   UNL     1      -3.823  14.371  23.583  0.00  0.00    +0.000 A 
ATOM     34  C   UNL     1      -5.042  14.997  23.287  0.00  0.00    +0.000 A 
ATOM     35  C   UNL     1      -5.370  16.213  23.890  0.00  0.00    +0.000 A 
ATOM     36  C   UNL     1      -4.489  16.802  24.798  0.00  0.00    +0.000 A 
ATOM     37  C   UNL     1      -3.289  16.168  25.119  0.00  0.00    +0.000 A 
ATOM     38  C   UNL     1      -2.958  14.952  24.518  0.00  0.00    +0.000 A 
ENDBRANCH  30  33
ENDBRANCH  27  29
ENDBRANCH   6  23
TORSDOF 4
ENDMDL
MODEL 9
REMARK VINA RESULT:      -8.4      2.464      3.806
REMARK  Name = 
REMARK  4 active torsions:
REMARK  status: ('A' for Active; 'I' for Inactive)
REMARK    1  A    between atoms: C_4  and  C_5
REMARK    2  A    between atoms: C_16  and  N_17
REMARK    3  A    between atoms: C_21  and  N_22
REMARK    4  A    between atoms: C_23  and  C_25
REMARK                            x       y       z     vdW  Elec       q    Type
REMARK                         _______ _______ _______ _____ _____    ______ ____
ROOT
ATOM      1  N   UNL     1       1.520   3.712  21.048  0.00  0.00    +0.000 N 
ATOM      2  C   UNL     1       2.000   4.842  20.412  0.00  0.00    +0.000 A 
ATOM      3  N   UNL     1       2.956   4.668  19.498  0.00  0.00    +0.000 NA
ATOM      4  C   UNL     1       3.419   5.777  18.891  0.00  0.00    +0.000 A 
ATOM      5  C   UNL     1       2.934   7.030  19.212  0.00  0.00    +0.000 A 
ATOM      6  C   UNL     1       1.951   7.122  20.175  0.00  0.00    +0.000 A 
ATOM      7  N   UNL     1       1.488   6.018  20.780  0.00  0.00    +0.000 NA
ATOM      8  H   UNL     1       2.212   2.979  20.995  0.00  0.00    +0.000 HD
ATOM      9  H   UNL     1       1.182   3.968  21.964  0.00  0.00    +0.000 HD
ENDROOT
BRANCH   4  10
ATOM     10  C   UNL     1       4.420   5.589  17.819  0.00  0.00    +0.000 A 
ATOM     11  C   UNL     1       5.396   6.572  17.557  0.00  0.00    +0.000 A 
ATOM     12  C   UNL     1       6.304   6.465  16.494  0.00  0.00    +0.000 A 
ATOM     13  C   UNL     1       6.248   5.330  15.671  0.00  0.00    +0.000 A 
ATOM     14  C   UNL     1       6.933   4.864  14.518  0.00  0.00    +0.000 A 
ATOM     15  N   UNL     1       7.909   5.535  13.895  0.00  0.00    +0.000 N 
ATOM     16  N   UNL     1       6.493   3.675  14.117  0.00  0.00    +0.000 NA
ATOM     17  N   UNL     1       5.511   3.387  14.992  0.00  0.00    +0.000 N 
ATOM     18  C   UNL     1       5.309   4.346  15.948  0.00  0.00    +0.000 A 
ATOM     19  C   UNL     1       4.394   4.435  17.004  0.00  0.00    +0.000 A 
ATOM     20  H   UNL     1       8.381   6.315  14.332  0.00  0.00    +0.000 HD
ATOM     21  H   UNL     1       8.447   5.039  13.195  0.00  0.00    +0.000 HD
ATOM     22  H   UNL     1       5.008   2.516  14.877  0.00  0.00    +0.000 HD
ENDBRANCH   4  10
BRANCH   6  23
ATOM     23  N   UNL     1       1.365   8.345  20.434  0.00  0.00    +0.000 N 
ATOM     24  C   UNL     1       0.605   8.521  21.660  0.00  0.00    +0.000 C 
ATOM     25  C   UNL     1      -0.658   9.296  21.283  0.00  0.00    +0.000 C 
ATOM     26  C   UNL     1      -0.321  10.620  20.595  0.00  0.00    +0.000 C 
ATOM     27  C   UNL     1       0.638  10.451  19.396  0.00  0.00    +0.000 C 
ATOM     28  C   UNL     1       1.851   9.571  19.796  0.00  0.00    +0.000 C 
BRANCH  27  29
ATOM     29  N   UNL     1       1.024  11.772  18.896  0.00  0.00    +0.000 N 
ATOM     30  C   UNL     1       1.651  12.706  19.697  0.00  0.00    +0.000 C 
ATOM     31  O   UNL     1       1.867  12.540  20.891  0.00  0.00    +0.000 OA
ATOM     32  H   UNL     1       1.153  11.866  17.897  0.00  0.00    +0.000 HD
BRANCH  30  33
ATOM     33  C   UNL     1       2.110  13.947  19.011  0.00  0.00    +0.000 A 
ATOM     34  C   UNL     1       3.297  13.982  18.265  0.00  0.00    +0.000 A 
ATOM     35  C   UNL     1       3.714  15.173  17.668  0.00  0.00    +0.000 A 
ATOM     36  C   UNL     1       2.944  16.329  17.803  0.00  0.00    +0.000 A 
ATOM     37  C   UNL     1       1.746  16.292  18.518  0.00  0.00    +0.000 A 
ATOM     38  C   UNL     1       1.326  15.102  19.116  0.00  0.00    +0.000 A 
ENDBRANCH  30  33
ENDBRANCH  27  29
ENDBRANCH   6  23
TORSDOF 4
ENDMDL
