MODEL 1
REMARK VINA RESULT:      -8.3      0.000      0.000
REMARK  Name = 
REMARK  8 active torsions:
REMARK  status: ('A' for Active; 'I' for Inactive)
REMARK    1  A    between atoms: C_1  and  C_2
REMARK    2  A    between atoms: C_2  and  C_3
REMARK    3  A    between atoms: C_4  and  C_5
REMARK    4  A    between atoms: C_5  and  C_6
REMARK    5  A    between atoms: C_6  and  C_7
REMARK    6  A    between atoms: C_7  and  C_8
REMARK    7  A    between atoms: C_9  and  C_10
REMARK    8  A    between atoms: C_17  and  O_18
REMARK                            x       y       z     vdW  Elec       q    Type
REMARK                         _______ _______ _______ _____ _____    ______ ____
ROOT
ATOM      1  C   UNL     1       4.637   5.647  17.988  0.00  0.00    +0.000 C 
ATOM      2  O   UNL     1       3.708   6.735  18.094  0.00  0.00    +0.000 OA
ATOM      3  C   UNL     1       2.807   6.451  19.061  0.00  0.00    +0.000 C 
ATOM      4  O   UNL     1       2.136   7.275  19.644  0.00  0.00    +0.000 OA
ATOM      5  C   UNL     1       2.752   4.977  19.335  0.00  0.00    +0.000 C 
ATOM      6  C   UNL     1       3.916   4.405  18.535  0.00  0.00    +0.000 C 
ATOM      7  C   UNL     1       4.853   3.601  19.461  0.00  0.00    +0.000 C 
ATOM      8  C   UNL     1       4.294   2.253  19.920  0.00  0.00    +0.000 C 
ATOM      9  C   UNL     1       3.563   1.522  18.847  0.00  0.00    +0.000 C 
ATOM     10  C   UNL     1       3.141   2.072  17.703  0.00  0.00    +0.000 C 
ATOM     11  C   UNL     1       3.298   3.522  17.445  0.00  0.00    +0.000 C 
ATOM     12  O   UNL     1       2.784   3.970  16.423  0.00  0.00    +0.000 OA
ENDROOT
BRANCH   1  15
ATOM     13  C   UNL     1       6.328   5.114  16.136  0.00  0.00    +0.000 C 
ATOM     14  C   UNL     1       7.377   4.667  17.114  0.00  0.00    +0.000 C 
ATOM     15  C   UNL     1       5.135   5.585  16.562  0.00  0.00    +0.000 C 
BRANCH  13  16
ATOM     16  C   UNL     1       6.662   4.969  14.651  0.00  0.00    +0.000 C 
BRANCH  16  17
ATOM     17  C   UNL     1       6.134   3.656  14.051  0.00  0.00    +0.000 C 
BRANCH  17  21
ATOM     18  C   UNL     1       3.885   3.420  10.897  0.00  0.00    +0.000 C 
ATOM     19  C   UNL     1       4.957   3.111  11.901  0.00  0.00    +0.000 C 
ATOM     20  C   UNL     1       5.962   2.049  11.549  0.00  0.00    +0.000 C 
ATOM     21  C   UNL     1       5.011   3.785  13.063  0.00  0.00    +0.000 C 
ENDBRANCH  17  21
ENDBRANCH  16  17
ENDBRANCH  13  16
ENDBRANCH   1  15
BRANCH   8  22
ATOM     22  O   UNL     1       5.379   1.437  20.335  0.00  0.00    +0.000 OA
ATOM     23  H   UNL     1       6.186   1.970  20.326  0.00  0.00    +0.000 HD
ENDBRANCH   8  22
TORSDOF 5
ENDMDL
MODEL 2
REMARK VINA RESULT:      -8.3      1.661      2.005
REMARK  Name = 
REMARK  8 active torsions:
REMARK  status: ('A' for Active; 'I' for Inactive)
REMARK    1  A    between atoms: C_1  and  C_2
REMARK    2  A    between atoms: C_2  and  C_3
REMARK    3  A    between atoms: C_4  and  C_5
REMARK    4  A    between atoms: C_5  and  C_6
REMARK    5  A    between atoms: C_6  and  C_7
REMARK    6  A    between atoms: C_7  and  C_8
REMARK    7  A    between atoms: C_9  and  C_10
REMARK    8  A    between atoms: C_17  and  O_18
REMARK                            x       y       z     vdW  Elec       q    Type
REMARK                         _______ _______ _______ _____ _____    ______ ____
ROOT
ATOM      1  C   UNL     1       3.765   5.474  18.268  0.00  0.00    +0.000 C 
ATOM      2  O   UNL     1       3.401   6.765  17.759  0.00  0.00    +0.000 OA
ATOM      3  C   UNL     1       2.474   7.314  18.575  0.00  0.00    +0.000 C 
ATOM      4  O   UNL     1       2.231   8.500  18.647  0.00  0.00    +0.000 OA
ATOM      5  C   UNL     1       1.786   6.265  19.397  0.00  0.00    +0.000 C 
ATOM      6  C   UNL     1       2.581   4.994  19.121  0.00  0.00    +0.000 C 
ATOM      7  C   UNL     1       3.084   4.382  20.445  0.00  0.00    +0.000 C 
ATOM      8  C   UNL     1       1.998   3.714  21.291  0.00  0.00    +0.000 C 
ATOM      9  C   UNL     1       1.014   2.939  20.484  0.00  0.00    +0.000 C 
ATOM     10  C   UNL     1       0.864   3.048  19.159  0.00  0.00    +0.000 C 
ATOM     11  C   UNL     1       1.633   4.045  18.379  0.00  0.00    +0.000 C 
ATOM     12  O   UNL     1       1.356   4.161  17.187  0.00  0.00    +0.000 OA
ENDROOT
BRANCH   1  15
ATOM     13  C   UNL     1       5.328   4.675  16.398  0.00  0.00    +0.000 C 
ATOM     14  C   UNL     1       6.332   5.760  16.666  0.00  0.00    +0.000 C 
ATOM     15  C   UNL     1       4.176   4.604  17.102  0.00  0.00    +0.000 C 
BRANCH  13  16
ATOM     16  C   UNL     1       5.695   3.643  15.332  0.00  0.00    +0.000 C 
BRANCH  16  17
ATOM     17  C   UNL     1       5.867   4.267  13.938  0.00  0.00    +0.000 C 
BRANCH  17  21
ATOM     18  C   UNL     1       6.482   1.847  10.968  0.00  0.00    +0.000 C 
ATOM     19  C   UNL     1       5.815   2.842  11.871  0.00  0.00    +0.000 C 
ATOM     20  C   UNL     1       4.375   3.180  11.600  0.00  0.00    +0.000 C 
ATOM     21  C   UNL     1       6.495   3.389  12.893  0.00  0.00    +0.000 C 
ENDBRANCH  17  21
ENDBRANCH  16  17
ENDBRANCH  13  16
ENDBRANCH   1  15
BRANCH   8  22
ATOM     22  O   UNL     1       2.625   2.808  22.189  0.00  0.00    +0.000 OA
ATOM     23  H   UNL     1       3.152   2.181  21.675  0.00  0.00    +0.000 HD
ENDBRANCH   8  22
TORSDOF 5
ENDMDL
MODEL 3
REMARK VINA RESULT:      -8.3      0.863      1.188
REMARK  Name = 
REMARK  8 active torsions:
REMARK  status: ('A' for Active; 'I' for Inactive)
REMARK    1  A    between atoms: C_1  and  C_2
REMARK    2  A    between atoms: C_2  and  C_3
REMARK    3  A    between atoms: C_4  and  C_5
REMARK    4  A    between atoms: C_5  and  C_6
REMARK    5  A    between atoms: C_6  and  C_7
REMARK    6  A    between atoms: C_7  and  C_8
REMARK    7  A    between atoms: C_9  and  C_10
REMARK    8  A    between atoms: C_17  and  O_18
REMARK                            x       y       z     vdW  Elec       q    Type
REMARK                         _______ _______ _______ _____ _____    ______ ____
ROOT
ATOM      1  C   UNL     1       3.975   5.721  18.579  0.00  0.00    +0.000 C 
ATOM      2  O   UNL     1       2.985   6.695  18.936  0.00  0.00    +0.000 OA
ATOM      3  C   UNL     1       2.237   6.210  19.953  0.00  0.00    +0.000 C 
ATOM      4  O   UNL     1       1.582   6.889  20.715  0.00  0.00    +0.000 OA
ATOM      5  C   UNL     1       2.331   4.715  20.029  0.00  0.00    +0.000 C 
ATOM      6  C   UNL     1       3.427   4.358  19.032  0.00  0.00    +0.000 C 
ATOM      7  C   UNL     1       4.533   3.537  19.728  0.00  0.00    +0.000 C 
ATOM      8  C   UNL     1       4.142   2.096  20.061  0.00  0.00    +0.000 C 
ATOM      9  C   UNL     1       3.341   1.439  18.990  0.00  0.00    +0.000 C 
ATOM     10  C   UNL     1       2.737   2.085  17.986  0.00  0.00    +0.000 C 
ATOM     11  C   UNL     1       2.747   3.565  17.911  0.00  0.00    +0.000 C 
ATOM     12  O   UNL     1       2.076   4.087  17.023  0.00  0.00    +0.000 OA
ENDROOT
BRANCH   1  15
ATOM     13  C   UNL     1       5.463   5.605  16.494  0.00  0.00    +0.000 C 
ATOM     14  C   UNL     1       6.665   5.166  17.281  0.00  0.00    +0.000 C 
ATOM     15  C   UNL     1       4.293   5.885  17.110  0.00  0.00    +0.000 C 
BRANCH  13  16
ATOM     16  C   UNL     1       5.620   5.674  14.975  0.00  0.00    +0.000 C 
BRANCH  16  17
ATOM     17  C   UNL     1       5.225   4.362  14.278  0.00  0.00    +0.000 C 
BRANCH  17  21
ATOM     18  C   UNL     1       7.015   2.485  11.392  0.00  0.00    +0.000 C 
ATOM     19  C   UNL     1       5.952   3.199  12.175  0.00  0.00    +0.000 C 
ATOM     20  C   UNL     1       4.563   3.233  11.604  0.00  0.00    +0.000 C 
ATOM     21  C   UNL     1       6.251   3.769  13.356  0.00  0.00    +0.000 C 
ENDBRANCH  17  21
ENDBRANCH  16  17
ENDBRANCH  13  16
ENDBRANCH   1  15
BRANCH   8  22
ATOM     22  O   UNL     1       5.331   1.339  20.235  0.00  0.00    +0.000 OA
ATOM     23  H   UNL     1       5.666   1.494  21.128  0.00  0.00    +0.000 HD
ENDBRANCH   8  22
TORSDOF 5
ENDMDL
MODEL 4
REMARK VINA RESULT:      -8.0      1.510      1.646
REMARK  Name = 
REMARK  8 active torsions:
REMARK  status: ('A' for Active; 'I' for Inactive)
REMARK    1  A    between atoms: C_1  and  C_2
REMARK    2  A    between atoms: C_2  and  C_3
REMARK    3  A    between atoms: C_4  and  C_5
REMARK    4  A    between atoms: C_5  and  C_6
REMARK    5  A    between atoms: C_6  and  C_7
REMARK    6  A    between atoms: C_7  and  C_8
REMARK    7  A    between atoms: C_9  and  C_10
REMARK    8  A    between atoms: C_17  and  O_18
REMARK                            x       y       z     vdW  Elec       q    Type
REMARK                         _______ _______ _______ _____ _____    ______ ____
ROOT
ATOM      1  C   UNL     1       4.034   5.627  18.446  0.00  0.00    +0.000 C 
ATOM      2  O   UNL     1       3.568   6.887  17.944  0.00  0.00    +0.000 OA
ATOM      3  C   UNL     1       2.474   7.261  18.645  0.00  0.00    +0.000 C 
ATOM      4  O   UNL     1       2.065   8.399  18.731  0.00  0.00    +0.000 OA
ATOM      5  C   UNL     1       1.834   6.085  19.320  0.00  0.00    +0.000 C 
ATOM      6  C   UNL     1       2.825   4.947  19.106  0.00  0.00    +0.000 C 
ATOM      7  C   UNL     1       3.227   4.329  20.462  0.00  0.00    +0.000 C 
ATOM      8  C   UNL     1       2.141   3.476  21.121  0.00  0.00    +0.000 C 
ATOM      9  C   UNL     1       1.388   2.630  20.153  0.00  0.00    +0.000 C 
ATOM     10  C   UNL     1       1.400   2.795  18.826  0.00  0.00    +0.000 C 
ATOM     11  C   UNL     1       2.122   3.928  18.202  0.00  0.00    +0.000 C 
ATOM     12  O   UNL     1       1.992   4.077  16.989  0.00  0.00    +0.000 OA
ENDROOT
BRANCH   1  15
ATOM     13  C   UNL     1       6.014   4.955  16.961  0.00  0.00    +0.000 C 
ATOM     14  C   UNL     1       6.952   5.909  17.645  0.00  0.00    +0.000 C 
ATOM     15  C   UNL     1       4.712   4.887  17.315  0.00  0.00    +0.000 C 
BRANCH  13  16
ATOM     16  C   UNL     1       6.615   4.047  15.888  0.00  0.00    +0.000 C 
BRANCH  16  17
ATOM     17  C   UNL     1       6.450   4.615  14.470  0.00  0.00    +0.000 C 
BRANCH  17  21
ATOM     18  C   UNL     1       4.557   3.012  11.486  0.00  0.00    +0.000 C 
ATOM     19  C   UNL     1       5.675   3.530  12.342  0.00  0.00    +0.000 C 
ATOM     20  C   UNL     1       7.051   3.591  11.739  0.00  0.00    +0.000 C 
ATOM     21  C   UNL     1       5.431   3.938  13.599  0.00  0.00    +0.000 C 
ENDBRANCH  17  21
ENDBRANCH  16  17
ENDBRANCH  13  16
ENDBRANCH   1  15
BRANCH   8  22
ATOM     22  O   UNL     1       2.761   2.609  22.059  0.00  0.00    +0.000 OA
ATOM     23  H   UNL     1       2.071   2.169  22.574  0.00  0.00    +0.000 HD
ENDBRANCH   8  22
TORSDOF 5
ENDMDL
MODEL 5
REMARK VINA RESULT:      -7.8      3.287      6.678
REMARK  Name = 
REMARK  8 active torsions:
REMARK  status: ('A' for Active; 'I' for Inactive)
REMARK    1  A    between atoms: C_1  and  C_2
REMARK    2  A    between atoms: C_2  and  C_3
REMARK    3  A    between atoms: C_4  and  C_5
REMARK    4  A    between atoms: C_5  and  C_6
REMARK    5  A    between atoms: C_6  and  C_7
REMARK    6  A    between atoms: C_7  and  C_8
REMARK    7  A    between atoms: C_9  and  C_10
REMARK    8  A    between atoms: C_17  and  O_18
REMARK                            x       y       z     vdW  Elec       q    Type
REMARK                         _______ _______ _______ _____ _____    ______ ____
ROOT
ATOM      1  C   UNL     1       3.254   5.711  18.278  0.00  0.00    +0.000 C 
ATOM      2  O   UNL     1       2.424   4.763  17.593  0.00  0.00    +0.000 OA
ATOM      3  C   UNL     1       3.103   3.601  17.459  0.00  0.00    +0.000 C 
ATOM      4  O   UNL     1       2.590   2.519  17.269  0.00  0.00    +0.000 OA
ATOM      5  C   UNL     1       4.581   3.819  17.590  0.00  0.00    +0.000 C 
ATOM      6  C   UNL     1       4.706   5.270  18.041  0.00  0.00    +0.000 C 
ATOM      7  C   UNL     1       5.515   5.351  19.352  0.00  0.00    +0.000 C 
ATOM      8  C   UNL     1       7.016   5.101  19.192  0.00  0.00    +0.000 C 
ATOM      9  C   UNL     1       7.590   5.726  17.967  0.00  0.00    +0.000 C 
ATOM     10  C   UNL     1       6.870   6.183  16.937  0.00  0.00    +0.000 C 
ATOM     11  C   UNL     1       5.398   6.019  16.897  0.00  0.00    +0.000 C 
ATOM     12  O   UNL     1       4.822   6.363  15.867  0.00  0.00    +0.000 OA
ENDROOT
BRANCH   1  15
ATOM     13  C   UNL     1       2.296   8.074  18.556  0.00  0.00    +0.000 C 
ATOM     14  C   UNL     1       1.874   7.820  19.976  0.00  0.00    +0.000 C 
ATOM     15  C   UNL     1       2.869   7.099  17.816  0.00  0.00    +0.000 C 
BRANCH  13  16
ATOM     16  C   UNL     1       2.086   9.488  18.016  0.00  0.00    +0.000 C 
BRANCH  16  17
ATOM     17  C   UNL     1       0.813  10.151  18.567  0.00  0.00    +0.000 C 
BRANCH  17  21
ATOM     18  C   UNL     1      -2.916   9.821  17.546  0.00  0.00    +0.000 C 
ATOM     19  C   UNL     1      -1.659  10.349  18.172  0.00  0.00    +0.000 C 
ATOM     20  C   UNL     1      -1.784  11.489  19.145  0.00  0.00    +0.000 C 
ATOM     21  C   UNL     1      -0.471   9.796  17.873  0.00  0.00    +0.000 C 
ENDBRANCH  17  21
ENDBRANCH  16  17
ENDBRANCH  13  16
ENDBRANCH   1  15
BRANCH   8  22
ATOM     22  O   UNL     1       7.685   5.660  20.314  0.00  0.00    +0.000 OA
ATOM     23  H   UNL     1       8.597   5.858  20.061  0.00  0.00    +0.000 HD
ENDBRANCH   8  22
TORSDOF 5
ENDMDL
MODEL 6
REMARK VINA RESULT:      -7.7      2.403      6.345
REMARK  Name = 
REMARK  8 active torsions:
REMARK  status: ('A' for Active; 'I' for Inactive)
REMARK    1  A    between atoms: C_1  and  C_2
REMARK    2  A    between atoms: C_2  and  C_3
REMARK    3  A    between atoms: C_4  and  C_5
REMARK    4  A    between atoms: C_5  and  C_6
REMARK    5  A    between atoms: C_6  and  C_7
REMARK    6  A    between atoms: C_7  and  C_8
REMARK    7  A    between atoms: C_9  and  C_10
REMARK    8  A    between atoms: C_17  and  O_18
REMARK                            x       y       z     vdW  Elec       q    Type
REMARK                         _______ _______ _______ _____ _____    ______ ____
ROOT
ATOM      1  C   UNL     1       5.093   4.007  16.380  0.00  0.00    +0.000 C 
ATOM      2  O   UNL     1       5.075   3.781  14.964  0.00  0.00    +0.000 OA
ATOM      3  C   UNL     1       6.303   4.041  14.461  0.00  0.00    +0.000 C 
ATOM      4  O   UNL     1       6.722   3.613  13.407  0.00  0.00    +0.000 OA
ATOM      5  C   UNL     1       7.092   4.919  15.386  0.00  0.00    +0.000 C 
ATOM      6  C   UNL     1       6.241   4.993  16.648  0.00  0.00    +0.000 C 
ATOM      7  C   UNL     1       7.065   4.540  17.872  0.00  0.00    +0.000 C 
ATOM      8  C   UNL     1       8.125   5.543  18.332  0.00  0.00    +0.000 C 
ATOM      9  C   UNL     1       7.663   6.958  18.275  0.00  0.00    +0.000 C 
ATOM     10  C   UNL     1       6.582   7.380  17.608  0.00  0.00    +0.000 C 
ATOM     11  C   UNL     1       5.785   6.450  16.775  0.00  0.00    +0.000 C 
ATOM     12  O   UNL     1       4.876   6.935  16.105  0.00  0.00    +0.000 OA
ENDROOT
BRANCH   1  15
ATOM     13  C   UNL     1       2.744   3.639  17.340  0.00  0.00    +0.000 C 
ATOM     14  C   UNL     1       2.944   2.155  17.468  0.00  0.00    +0.000 C 
ATOM     15  C   UNL     1       3.706   4.427  16.812  0.00  0.00    +0.000 C 
BRANCH  13  16
ATOM     16  C   UNL     1       1.429   4.207  17.874  0.00  0.00    +0.000 C 
BRANCH  16  17
ATOM     17  C   UNL     1       1.587   4.871  19.252  0.00  0.00    +0.000 C 
BRANCH  17  21
ATOM     18  C   UNL     1       1.223   2.338  22.168  0.00  0.00    +0.000 C 
ATOM     19  C   UNL     1       1.844   3.206  21.113  0.00  0.00    +0.000 C 
ATOM     20  C   UNL     1       3.314   3.043  20.846  0.00  0.00    +0.000 C 
ATOM     21  C   UNL     1       1.089   4.081  20.427  0.00  0.00    +0.000 C 
ENDBRANCH  17  21
ENDBRANCH  16  17
ENDBRANCH  13  16
ENDBRANCH   1  15
BRANCH   8  22
ATOM     22  O   UNL     1       8.458   5.253  19.683  0.00  0.00    +0.000 OA
ATOM     23  H   UNL     1       8.649   6.085  20.137  0.00  0.00    +0.000 HD
ENDBRANCH   8  22
TORSDOF 5
ENDMDL
MODEL 7
REMARK VINA RESULT:      -7.6      2.749      3.996
REMARK  Name = 
REMARK  8 active torsions:
REMARK  status: ('A' for Active; 'I' for Inactive)
REMARK    1  A    between atoms: C_1  and  C_2
REMARK    2  A    between atoms: C_2  and  C_3
REMARK    3  A    between atoms: C_4  and  C_5
REMARK    4  A    between atoms: C_5  and  C_6
REMARK    5  A    between atoms: C_6  and  C_7
REMARK    6  A    between atoms: C_7  and  C_8
REMARK    7  A    between atoms: C_9  and  C_10
REMARK    8  A    between atoms: C_17  and  O_18
REMARK                            x       y       z     vdW  Elec       q    Type
REMARK                         _______ _______ _______ _____ _____    ______ ____
ROOT
ATOM      1  C   UNL     1       3.363   6.115  19.516  0.00  0.00    +0.000 C 
ATOM      2  O   UNL     1       2.780   7.414  19.346  0.00  0.00    +0.000 OA
ATOM      3  C   UNL     1       1.674   7.504  20.119  0.00  0.00    +0.000 C 
ATOM      4  O   UNL     1       1.171   8.544  20.488  0.00  0.00    +0.000 OA
ATOM      5  C   UNL     1       1.152   6.145  20.478  0.00  0.00    +0.000 C 
ATOM      6  C   UNL     1       2.231   5.188  19.984  0.00  0.00    +0.000 C 
ATOM      7  C   UNL     1       2.714   4.288  21.142  0.00  0.00    +0.000 C 
ATOM      8  C   UNL     1       1.719   3.206  21.566  0.00  0.00    +0.000 C 
ATOM      9  C   UNL     1       1.020   2.565  20.417  0.00  0.00    +0.000 C 
ATOM     10  C   UNL     1       0.989   3.058  19.174  0.00  0.00    +0.000 C 
ATOM     11  C   UNL     1       1.597   4.370  18.854  0.00  0.00    +0.000 C 
ATOM     12  O   UNL     1       1.428   4.805  17.717  0.00  0.00    +0.000 OA
ENDROOT
BRANCH   1  15
ATOM     13  C   UNL     1       4.874   4.673  18.028  0.00  0.00    +0.000 C 
ATOM     14  C   UNL     1       5.226   3.741  19.153  0.00  0.00    +0.000 C 
ATOM     15  C   UNL     1       4.076   5.743  18.235  0.00  0.00    +0.000 C 
BRANCH  13  16
ATOM     16  C   UNL     1       5.423   4.323  16.644  0.00  0.00    +0.000 C 
BRANCH  16  17
ATOM     17  C   UNL     1       6.901   4.708  16.479  0.00  0.00    +0.000 C 
BRANCH  17  21
ATOM     18  C   UNL     1       7.756   8.309  17.645  0.00  0.00    +0.000 C 
ATOM     19  C   UNL     1       7.627   6.814  17.638  0.00  0.00    +0.000 C 
ATOM     20  C   UNL     1       7.956   6.075  18.905  0.00  0.00    +0.000 C 
ATOM     21  C   UNL     1       7.212   6.176  16.530  0.00  0.00    +0.000 C 
ENDBRANCH  17  21
ENDBRANCH  16  17
ENDBRANCH  13  16
ENDBRANCH   1  15
BRANCH   8  22
ATOM     22  O   UNL     1       2.432   2.190  22.257  0.00  0.00    +0.000 OA
ATOM     23  H   UNL     1       1.873   1.854  22.971  0.00  0.00    +0.000 HD
ENDBRANCH   8  22
TORSDOF 5
ENDMDL
MODEL 8
REMARK VINA RESULT:      -7.5      1.806      2.310
REMARK  Name = 
REMARK  8 active torsions:
REMARK  status: ('A' for Active; 'I' for Inactive)
REMARK    1  A    between atoms: C_1  and  C_2
REMARK    2  A    between atoms: C_2  and  C_3
REMARK    3  A    between atoms: C_4  and  C_5
REMARK    4  A    between atoms: C_5  and  C_6
REMARK    5  A    between atoms: C_6  and  C_7
REMARK    6  A    between atoms: C_7  and  C_8
REMARK    7  A    between atoms: C_9  and  C_10
REMARK    8  A    between atoms: C_17  and  O_18
REMARK                            x       y       z     vdW  Elec       q    Type
REMARK                         _______ _______ _______ _____ _____    ______ ____
ROOT
ATOM      1  C   UNL     1       3.624   6.001  19.322  0.00  0.00    +0.000 C 
ATOM      2  O   UNL     1       3.096   7.312  19.078  0.00  0.00    +0.000 OA
ATOM      3  C   UNL     1       1.983   7.484  19.826  0.00  0.00    +0.000 C 
ATOM      4  O   UNL     1       1.517   8.561  20.133  0.00  0.00    +0.000 OA
ATOM      5  C   UNL     1       1.401   6.167  20.244  0.00  0.00    +0.000 C 
ATOM      6  C   UNL     1       2.448   5.144  19.818  0.00  0.00    +0.000 C 
ATOM      7  C   UNL     1       2.877   4.287  21.027  0.00  0.00    +0.000 C 
ATOM      8  C   UNL     1       1.834   3.268  21.488  0.00  0.00    +0.000 C 
ATOM      9  C   UNL     1       1.127   2.597  20.361  0.00  0.00    +0.000 C 
ATOM     10  C   UNL     1       1.134   3.026  19.094  0.00  0.00    +0.000 C 
ATOM     11  C   UNL     1       1.799   4.295  18.719  0.00  0.00    +0.000 C 
ATOM     12  O   UNL     1       1.666   4.678  17.559  0.00  0.00    +0.000 OA
ENDROOT
BRANCH   1  15
ATOM     13  C   UNL     1       5.656   5.258  17.947  0.00  0.00    +0.000 C 
ATOM     14  C   UNL     1       6.609   5.488  19.085  0.00  0.00    +0.000 C 
ATOM     15  C   UNL     1       4.340   5.537  18.075  0.00  0.00    +0.000 C 
BRANCH  13  16
ATOM     16  C   UNL     1       6.240   4.655  16.668  0.00  0.00    +0.000 C 
BRANCH  16  17
ATOM     17  C   UNL     1       5.472   5.083  15.408  0.00  0.00    +0.000 C 
BRANCH  17  21
ATOM     18  C   UNL     1       6.090   3.128  12.114  0.00  0.00    +0.000 C 
ATOM     19  C   UNL     1       6.305   4.056  13.274  0.00  0.00    +0.000 C 
ATOM     20  C   UNL     1       7.512   4.951  13.242  0.00  0.00    +0.000 C 
ATOM     21  C   UNL     1       5.425   4.082  14.290  0.00  0.00    +0.000 C 
ENDBRANCH  17  21
ENDBRANCH  16  17
ENDBRANCH  13  16
ENDBRANCH   1  15
BRANCH   8  22
ATOM     22  O   UNL     1       2.495   2.261  22.241  0.00  0.00    +0.000 OA
ATOM     23  H   UNL     1       3.344   2.069  21.820  0.00  0.00    +0.000 HD
ENDBRANCH   8  22
TORSDOF 5
ENDMDL
MODEL 9
REMARK VINA RESULT:      -7.5      1.878      2.355
REMARK  Name = 
REMARK  8 active torsions:
REMARK  status: ('A' for Active; 'I' for Inactive)
REMARK    1  A    between atoms: C_1  and  C_2
REMARK    2  A    between atoms: C_2  and  C_3
REMARK    3  A    between atoms: C_4  and  C_5
REMARK    4  A    between atoms: C_5  and  C_6
REMARK    5  A    between atoms: C_6  and  C_7
REMARK    6  A    between atoms: C_7  and  C_8
REMARK    7  A    between atoms: C_9  and  C_10
REMARK    8  A    between atoms: C_17  and  O_18
REMARK                            x       y       z     vdW  Elec       q    Type
REMARK                         _______ _______ _______ _____ _____    ______ ____
ROOT
ATOM      1  C   UNL     1       3.434   5.863  18.819  0.00  0.00    +0.000 C 
ATOM      2  O   UNL     1       2.887   7.180  18.668  0.00  0.00    +0.000 OA
ATOM      3  C   UNL     1       2.004   7.407  19.665  0.00  0.00    +0.000 C 
ATOM      4  O   UNL     1       1.652   8.505  20.040  0.00  0.00    +0.000 OA
ATOM      5  C   UNL     1       1.521   6.120  20.265  0.00  0.00    +0.000 C 
ATOM      6  C   UNL     1       2.406   5.055  19.627  0.00  0.00    +0.000 C 
ATOM      7  C   UNL     1       3.110   4.224  20.719  0.00  0.00    +0.000 C 
ATOM      8  C   UNL     1       2.198   3.249  21.466  0.00  0.00    +0.000 C 
ATOM      9  C   UNL     1       1.215   2.564  20.580  0.00  0.00    +0.000 C 
ATOM     10  C   UNL     1       0.910   2.954  19.337  0.00  0.00    +0.000 C 
ATOM     11  C   UNL     1       1.483   4.192  18.760  0.00  0.00    +0.000 C 
ATOM     12  O   UNL     1       1.068   4.542  17.657  0.00  0.00    +0.000 OA
ENDROOT
BRANCH   1  15
ATOM     13  C   UNL     1       4.930   4.680  17.104  0.00  0.00    +0.000 C 
ATOM     14  C   UNL     1       6.038   4.474  18.097  0.00  0.00    +0.000 C 
ATOM     15  C   UNL     1       3.802   5.340  17.449  0.00  0.00    +0.000 C 
BRANCH  13  16
ATOM     16  C   UNL     1       5.124   4.072  15.715  0.00  0.00    +0.000 C 
BRANCH  16  17
ATOM     17  C   UNL     1       6.606   3.871  15.358  0.00  0.00    +0.000 C 
BRANCH  17  21
ATOM     18  C   UNL     1       7.914   5.618  12.150  0.00  0.00    +0.000 C 
ATOM     19  C   UNL     1       7.165   4.676  13.047  0.00  0.00    +0.000 C 
ATOM     20  C   UNL     1       6.418   3.541  12.405  0.00  0.00    +0.000 C 
ATOM     21  C   UNL     1       7.189   4.850  14.380  0.00  0.00    +0.000 C 
ENDBRANCH  17  21
ENDBRANCH  16  17
ENDBRANCH  13  16
ENDBRANCH   1  15
BRANCH   8  22
ATOM     22  O   UNL     1       3.008   2.248  22.065  0.00  0.00    +0.000 OA
ATOM     23  H   UNL     1       2.659   1.381  21.817  0.00  0.00    +0.000 HD
ENDBRANCH   8  22
TORSDOF 5
ENDMDL
