MODEL 1
REMARK VINA RESULT:      -7.0      0.000      0.000
REMARK  Name = 
REMARK  10 active torsions:
REMARK  status: ('A' for Active; 'I' for Inactive)
REMARK    1  A    between atoms: C_1  and  C_2
REMARK    2  A    between atoms: C_2  and  C_4
REMARK    3  A    between atoms: C_6  and  N_7
REMARK    4  A    between atoms: N_7  and  C_8
REMARK    5  A    between atoms: C_8  and  C_9
REMARK    6  A    between atoms: C_8  and  C_10
REMARK    7  A    between atoms: C_11  and  C_12
REMARK    8  A    between atoms: C_12  and  N_14
REMARK    9  A    between atoms: N_14  and  C_15
REMARK   10  A    between atoms: C_21  and  N_22
REMARK                            x       y       z     vdW  Elec       q    Type
REMARK                         _______ _______ _______ _____ _____    ______ ____
ROOT
ATOM      1  C   UNL     1       1.827   7.972  19.855  0.00  0.00    +0.000 A 
ATOM      2  N   UNL     1       2.024   6.916  20.714  0.00  0.00    +0.000 N 
ATOM      3  C   UNL     1       2.594   5.854  20.066  0.00  0.00    +0.000 A 
ATOM      4  C   UNL     1       2.805   6.212  18.737  0.00  0.00    +0.000 A 
ATOM      5  C   UNL     1       2.313   7.550  18.632  0.00  0.00    +0.000 A 
ATOM      6  H   UNL     1       1.804   6.913  21.699  0.00  0.00    +0.000 HD
ENDROOT
BRANCH   1   8
ATOM      7  C   UNL     1       0.770   9.434  21.634  0.00  0.00    +0.000 C 
ATOM      8  C   UNL     1       1.209   9.242  20.203  0.00  0.00    +0.000 C 
ATOM      9  O   UNL     1       1.022  10.145  19.380  0.00  0.00    +0.000 OA
ENDBRANCH   1   8
BRANCH   5  10
ATOM     10  N   UNL     1       2.282   8.316  17.518  0.00  0.00    +0.000 N 
ATOM     11  H   UNL     1       2.842   9.162  17.459  0.00  0.00    +0.000 HD
ATOM     12  H   UNL     1       2.194   7.847  16.613  0.00  0.00    +0.000 HD
ENDBRANCH   5  10
BRANCH   3  13
ATOM     13  N   UNL     1       2.929   4.720  20.734  0.00  0.00    +0.000 N 
ATOM     14  H   UNL     1       3.734   4.212  20.349  0.00  0.00    +0.000 HD
BRANCH  13  15
ATOM     15  C   UNL     1       1.958   3.805  21.331  0.00  0.00    +0.000 C 
ATOM     16  C   UNL     1       0.776   3.611  20.380  0.00  0.00    +0.000 C 
ATOM     17  C   UNL     1       2.666   2.476  21.576  0.00  0.00    +0.000 C 
ENDBRANCH  13  15
ENDBRANCH   3  13
BRANCH   4  18
ATOM     18  C   UNL     1       3.382   5.393  17.667  0.00  0.00    +0.000 C 
ATOM     19  S   UNL     1       2.700   3.886  17.361  0.00  0.00    +0.000 S 
BRANCH  18  20
ATOM     20  N   UNL     1       4.486   5.935  17.026  0.00  0.00    +0.000 N 
ATOM     21  H   UNL     1       4.383   6.108  16.030  0.00  0.00    +0.000 HD
BRANCH  20  22
ATOM     22  C   UNL     1       5.753   6.201  17.587  0.00  0.00    +0.000 A 
ATOM     23  C   UNL     1       6.506   7.313  17.195  0.00  0.00    +0.000 A 
ATOM     24  C   UNL     1       7.729   7.597  17.802  0.00  0.00    +0.000 A 
ATOM     25  C   UNL     1       8.213   6.768  18.808  0.00  0.00    +0.000 A 
ATOM     26  C   UNL     1       7.464   5.665  19.218  0.00  0.00    +0.000 A 
ATOM     27  C   UNL     1       6.225   5.393  18.624  0.00  0.00    +0.000 A 
ENDBRANCH  20  22
ENDBRANCH  18  20
ENDBRANCH   4  18
TORSDOF 7
ENDMDL
MODEL 2
REMARK VINA RESULT:      -7.0      0.147      1.036
REMARK  Name = 
REMARK  10 active torsions:
REMARK  status: ('A' for Active; 'I' for Inactive)
REMARK    1  A    between atoms: C_1  and  C_2
REMARK    2  A    between atoms: C_2  and  C_4
REMARK    3  A    between atoms: C_6  and  N_7
REMARK    4  A    between atoms: N_7  and  C_8
REMARK    5  A    between atoms: C_8  and  C_9
REMARK    6  A    between atoms: C_8  and  C_10
REMARK    7  A    between atoms: C_11  and  C_12
REMARK    8  A    between atoms: C_12  and  N_14
REMARK    9  A    between atoms: N_14  and  C_15
REMARK   10  A    between atoms: C_21  and  N_22
REMARK                            x       y       z     vdW  Elec       q    Type
REMARK                         _______ _______ _______ _____ _____    ______ ____
ROOT
ATOM      1  C   UNL     1       1.764   8.079  19.859  0.00  0.00    +0.000 A 
ATOM      2  N   UNL     1       1.969   7.049  20.746  0.00  0.00    +0.000 N 
ATOM      3  C   UNL     1       2.522   5.964  20.121  0.00  0.00    +0.000 A 
ATOM      4  C   UNL     1       2.713   6.280  18.778  0.00  0.00    +0.000 A 
ATOM      5  C   UNL     1       2.227   7.618  18.642  0.00  0.00    +0.000 A 
ATOM      6  H   UNL     1       1.765   7.076  21.734  0.00  0.00    +0.000 HD
ENDROOT
BRANCH   1   8
ATOM      7  C   UNL     1       0.489   9.502  21.524  0.00  0.00    +0.000 C 
ATOM      8  C   UNL     1       1.158   9.363  20.178  0.00  0.00    +0.000 C 
ATOM      9  O   UNL     1       1.161  10.319  19.396  0.00  0.00    +0.000 OA
ENDBRANCH   1   8
BRANCH   5  10
ATOM     10  N   UNL     1       2.182   8.350  17.506  0.00  0.00    +0.000 N 
ATOM     11  H   UNL     1       1.331   8.839  17.243  0.00  0.00    +0.000 HD
ATOM     12  H   UNL     1       3.022   8.863  17.229  0.00  0.00    +0.000 HD
ENDBRANCH   5  10
BRANCH   3  13
ATOM     13  N   UNL     1       2.862   4.848  20.817  0.00  0.00    +0.000 N 
ATOM     14  H   UNL     1       3.723   4.387  20.504  0.00  0.00    +0.000 HD
BRANCH  13  15
ATOM     15  C   UNL     1       1.895   3.879  21.331  0.00  0.00    +0.000 C 
ATOM     16  C   UNL     1       0.752   3.707  20.331  0.00  0.00    +0.000 C 
ATOM     17  C   UNL     1       2.630   2.557  21.530  0.00  0.00    +0.000 C 
ENDBRANCH  13  15
ENDBRANCH   3  13
BRANCH   4  18
ATOM     18  C   UNL     1       3.268   5.427  17.725  0.00  0.00    +0.000 C 
ATOM     19  S   UNL     1       2.517   3.953  17.415  0.00  0.00    +0.000 S 
BRANCH  18  20
ATOM     20  N   UNL     1       4.409   5.909  17.101  0.00  0.00    +0.000 N 
ATOM     21  H   UNL     1       4.355   6.013  16.091  0.00  0.00    +0.000 HD
BRANCH  20  22
ATOM     22  C   UNL     1       5.653   6.196  17.702  0.00  0.00    +0.000 A 
ATOM     23  C   UNL     1       6.155   5.419  18.750  0.00  0.00    +0.000 A 
ATOM     24  C   UNL     1       7.414   5.677  19.291  0.00  0.00    +0.000 A 
ATOM     25  C   UNL     1       8.184   6.720  18.789  0.00  0.00    +0.000 A 
ATOM     26  C   UNL     1       7.700   7.493  17.734  0.00  0.00    +0.000 A 
ATOM     27  C   UNL     1       6.446   7.219  17.175  0.00  0.00    +0.000 A 
ENDBRANCH  20  22
ENDBRANCH  18  20
ENDBRANCH   4  18
TORSDOF 7
ENDMDL
MODEL 3
REMARK VINA RESULT:      -6.7      3.973      7.012
REMARK  Name = 
REMARK  10 active torsions:
REMARK  status: ('A' for Active; 'I' for Inactive)
REMARK    1  A    between atoms: C_1  and  C_2
REMARK    2  A    between atoms: C_2  and  C_4
REMARK    3  A    between atoms: C_6  and  N_7
REMARK    4  A    between atoms: N_7  and  C_8
REMARK    5  A    between atoms: C_8  and  C_9
REMARK    6  A    between atoms: C_8  and  C_10
REMARK    7  A    between atoms: C_11  and  C_12
REMARK    8  A    between atoms: C_12  and  N_14
REMARK    9  A    between atoms: N_14  and  C_15
REMARK   10  A    between atoms: C_21  and  N_22
REMARK                            x       y       z     vdW  Elec       q    Type
REMARK                         _______ _______ _______ _____ _____    ______ ____
ROOT
ATOM      1  C   UNL     1       6.943   4.716  14.594  0.00  0.00    +0.000 A 
ATOM      2  N   UNL     1       7.746   4.729  15.710  0.00  0.00    +0.000 N 
ATOM      3  C   UNL     1       6.997   4.728  16.855  0.00  0.00    +0.000 A 
ATOM      4  C   UNL     1       5.651   4.693  16.500  0.00  0.00    +0.000 A 
ATOM      5  C   UNL     1       5.647   4.687  15.070  0.00  0.00    +0.000 A 
ATOM      6  H   UNL     1       8.755   4.720  15.707  0.00  0.00    +0.000 HD
ENDROOT
BRANCH   1   8
ATOM      7  C   UNL     1       6.928   3.663  12.289  0.00  0.00    +0.000 C 
ATOM      8  C   UNL     1       7.409   4.752  13.216  0.00  0.00    +0.000 C 
ATOM      9  O   UNL     1       8.180   5.619  12.791  0.00  0.00    +0.000 OA
ENDBRANCH   1   8
BRANCH   5  10
ATOM     10  N   UNL     1       4.561   4.681  14.265  0.00  0.00    +0.000 N 
ATOM     11  H   UNL     1       4.487   5.342  13.496  0.00  0.00    +0.000 HD
ATOM     12  H   UNL     1       4.131   3.781  14.041  0.00  0.00    +0.000 HD
ENDBRANCH   5  10
BRANCH   3  13
ATOM     13  N   UNL     1       7.583   4.683  18.080  0.00  0.00    +0.000 N 
ATOM     14  H   UNL     1       7.575   3.762  18.532  0.00  0.00    +0.000 HD
BRANCH  13  15
ATOM     15  C   UNL     1       7.502   5.761  19.065  0.00  0.00    +0.000 C 
ATOM     16  C   UNL     1       8.404   5.443  20.257  0.00  0.00    +0.000 C 
ATOM     17  C   UNL     1       7.959   7.046  18.381  0.00  0.00    +0.000 C 
ENDBRANCH  13  15
ENDBRANCH   3  13
BRANCH   4  18
ATOM     18  C   UNL     1       4.487   4.689  17.391  0.00  0.00    +0.000 C 
ATOM     19  S   UNL     1       3.852   6.168  17.879  0.00  0.00    +0.000 S 
BRANCH  18  20
ATOM     20  N   UNL     1       4.040   3.438  17.786  0.00  0.00    +0.000 N 
ATOM     21  H   UNL     1       4.373   2.650  17.236  0.00  0.00    +0.000 HD
BRANCH  20  22
ATOM     22  C   UNL     1       3.117   3.146  18.813  0.00  0.00    +0.000 A 
ATOM     23  C   UNL     1       3.526   2.998  20.142  0.00  0.00    +0.000 A 
ATOM     24  C   UNL     1       2.594   2.772  21.155  0.00  0.00    +0.000 A 
ATOM     25  C   UNL     1       1.241   2.689  20.846  0.00  0.00    +0.000 A 
ATOM     26  C   UNL     1       0.820   2.849  19.527  0.00  0.00    +0.000 A 
ATOM     27  C   UNL     1       1.754   3.100  18.513  0.00  0.00    +0.000 A 
ENDBRANCH  20  22
ENDBRANCH  18  20
ENDBRANCH   4  18
TORSDOF 7
ENDMDL
MODEL 4
REMARK VINA RESULT:      -6.7      3.248      5.931
REMARK  Name = 
REMARK  10 active torsions:
REMARK  status: ('A' for Active; 'I' for Inactive)
REMARK    1  A    between atoms: C_1  and  C_2
REMARK    2  A    between atoms: C_2  and  C_4
REMARK    3  A    between atoms: C_6  and  N_7
REMARK    4  A    between atoms: N_7  and  C_8
REMARK    5  A    between atoms: C_8  and  C_9
REMARK    6  A    between atoms: C_8  and  C_10
REMARK    7  A    between atoms: C_11  and  C_12
REMARK    8  A    between atoms: C_12  and  N_14
REMARK    9  A    between atoms: N_14  and  C_15
REMARK   10  A    between atoms: C_21  and  N_22
REMARK                            x       y       z     vdW  Elec       q    Type
REMARK                         _______ _______ _______ _____ _____    ______ ____
ROOT
ATOM      1  C   UNL     1       5.632   4.907  15.636  0.00  0.00    +0.000 A 
ATOM      2  N   UNL     1       4.646   3.965  15.815  0.00  0.00    +0.000 N 
ATOM      3  C   UNL     1       3.790   4.333  16.817  0.00  0.00    +0.000 A 
ATOM      4  C   UNL     1       4.199   5.569  17.314  0.00  0.00    +0.000 A 
ATOM      5  C   UNL     1       5.360   5.906  16.551  0.00  0.00    +0.000 A 
ATOM      6  H   UNL     1       4.539   3.118  15.277  0.00  0.00    +0.000 HD
ENDROOT
BRANCH   1   8
ATOM      7  C   UNL     1       6.510   3.969  13.452  0.00  0.00    +0.000 C 
ATOM      8  C   UNL     1       6.727   4.815  14.682  0.00  0.00    +0.000 C 
ATOM      9  O   UNL     1       7.811   5.384  14.849  0.00  0.00    +0.000 OA
ENDBRANCH   1   8
BRANCH   5  10
ATOM     10  N   UNL     1       6.126   7.011  16.691  0.00  0.00    +0.000 N 
ATOM     11  H   UNL     1       6.440   7.308  17.611  0.00  0.00    +0.000 HD
ATOM     12  H   UNL     1       6.817   7.214  15.964  0.00  0.00    +0.000 HD
ENDBRANCH   5  10
BRANCH   3  13
ATOM     13  N   UNL     1       2.706   3.577  17.130  0.00  0.00    +0.000 N 
ATOM     14  H   UNL     1       2.001   4.047  17.709  0.00  0.00    +0.000 HD
BRANCH  13  15
ATOM     15  C   UNL     1       2.765   2.145  17.421  0.00  0.00    +0.000 C 
ATOM     16  C   UNL     1       4.012   1.835  18.250  0.00  0.00    +0.000 C 
ATOM     17  C   UNL     1       1.505   1.780  18.201  0.00  0.00    +0.000 C 
ENDBRANCH  13  15
ENDBRANCH   3  13
BRANCH   4  18
ATOM     18  C   UNL     1       3.591   6.347  18.396  0.00  0.00    +0.000 C 
ATOM     19  S   UNL     1       2.854   7.809  18.010  0.00  0.00    +0.000 S 
BRANCH  18  20
ATOM     20  N   UNL     1       3.723   5.810  19.667  0.00  0.00    +0.000 N 
ATOM     21  H   UNL     1       4.549   6.093  20.188  0.00  0.00    +0.000 HD
BRANCH  20  22
ATOM     22  C   UNL     1       2.883   4.859  20.284  0.00  0.00    +0.000 A 
ATOM     23  C   UNL     1       1.492   4.916  20.147  0.00  0.00    +0.000 A 
ATOM     24  C   UNL     1       0.678   3.933  20.710  0.00  0.00    +0.000 A 
ATOM     25  C   UNL     1       1.249   2.883  21.419  0.00  0.00    +0.000 A 
ATOM     26  C   UNL     1       2.635   2.807  21.550  0.00  0.00    +0.000 A 
ATOM     27  C   UNL     1       3.454   3.782  20.965  0.00  0.00    +0.000 A 
ENDBRANCH  20  22
ENDBRANCH  18  20
ENDBRANCH   4  18
TORSDOF 7
ENDMDL
MODEL 5
REMARK VINA RESULT:      -6.7      3.374      6.444
REMARK  Name = 
REMARK  10 active torsions:
REMARK  status: ('A' for Active; 'I' for Inactive)
REMARK    1  A    between atoms: C_1  and  C_2
REMARK    2  A    between atoms: C_2  and  C_4
REMARK    3  A    between atoms: C_6  and  N_7
REMARK    4  A    between atoms: N_7  and  C_8
REMARK    5  A    between atoms: C_8  and  C_9
REMARK    6  A    between atoms: C_8  and  C_10
REMARK    7  A    between atoms: C_11  and  C_12
REMARK    8  A    between atoms: C_12  and  N_14
REMARK    9  A    between atoms: N_14  and  C_15
REMARK   10  A    between atoms: C_21  and  N_22
REMARK                            x       y       z     vdW  Elec       q    Type
REMARK                         _______ _______ _______ _____ _____    ______ ____
ROOT
ATOM      1  C   UNL     1       6.317   4.979  15.182  0.00  0.00    +0.000 A 
ATOM      2  N   UNL     1       5.044   5.434  15.434  0.00  0.00    +0.000 N 
ATOM      3  C   UNL     1       4.731   5.309  16.761  0.00  0.00    +0.000 A 
ATOM      4  C   UNL     1       5.832   4.774  17.424  0.00  0.00    +0.000 A 
ATOM      5  C   UNL     1       6.816   4.576  16.406  0.00  0.00    +0.000 A 
ATOM      6  H   UNL     1       4.416   5.829  14.750  0.00  0.00    +0.000 HD
ENDROOT
BRANCH   1   8
ATOM      7  C   UNL     1       6.395   3.962  12.863  0.00  0.00    +0.000 C 
ATOM      8  C   UNL     1       6.955   4.930  13.875  0.00  0.00    +0.000 C 
ATOM      9  O   UNL     1       7.928   5.631  13.577  0.00  0.00    +0.000 OA
ENDBRANCH   1   8
BRANCH   5  10
ATOM     10  N   UNL     1       8.051   4.050  16.566  0.00  0.00    +0.000 N 
ATOM     11  H   UNL     1       8.776   4.577  17.045  0.00  0.00    +0.000 HD
ATOM     12  H   UNL     1       8.129   3.044  16.735  0.00  0.00    +0.000 HD
ENDBRANCH   5  10
BRANCH   3  13
ATOM     13  N   UNL     1       3.541   5.749  17.247  0.00  0.00    +0.000 N 
ATOM     14  H   UNL     1       2.769   5.750  16.571  0.00  0.00    +0.000 HD
BRANCH  13  15
ATOM     15  C   UNL     1       3.405   6.838  18.212  0.00  0.00    +0.000 C 
ATOM     16  C   UNL     1       2.864   8.086  17.514  0.00  0.00    +0.000 C 
ATOM     17  C   UNL     1       2.435   6.375  19.296  0.00  0.00    +0.000 C 
ENDBRANCH  13  15
ENDBRANCH   3  13
BRANCH   4  18
ATOM     18  C   UNL     1       5.955   4.457  18.850  0.00  0.00    +0.000 C 
ATOM     19  S   UNL     1       6.829   5.510  19.828  0.00  0.00    +0.000 S 
BRANCH  18  20
ATOM     20  N   UNL     1       5.359   3.272  19.253  0.00  0.00    +0.000 N 
ATOM     21  H   UNL     1       5.978   2.470  19.344  0.00  0.00    +0.000 HD
BRANCH  20  22
ATOM     22  C   UNL     1       3.985   3.039  19.475  0.00  0.00    +0.000 A 
ATOM     23  C   UNL     1       3.174   2.465  18.491  0.00  0.00    +0.000 A 
ATOM     24  C   UNL     1       1.832   2.184  18.747  0.00  0.00    +0.000 A 
ATOM     25  C   UNL     1       1.288   2.476  19.992  0.00  0.00    +0.000 A 
ATOM     26  C   UNL     1       2.091   3.034  20.986  0.00  0.00    +0.000 A 
ATOM     27  C   UNL     1       3.444   3.296  20.737  0.00  0.00    +0.000 A 
ENDBRANCH  20  22
ENDBRANCH  18  20
ENDBRANCH   4  18
TORSDOF 7
ENDMDL
MODEL 6
REMARK VINA RESULT:      -6.6      3.366      6.457
REMARK  Name = 
REMARK  10 active torsions:
REMARK  status: ('A' for Active; 'I' for Inactive)
REMARK    1  A    between atoms: C_1  and  C_2
REMARK    2  A    between atoms: C_2  and  C_4
REMARK    3  A    between atoms: C_6  and  N_7
REMARK    4  A    between atoms: N_7  and  C_8
REMARK    5  A    between atoms: C_8  and  C_9
REMARK    6  A    between atoms: C_8  and  C_10
REMARK    7  A    between atoms: C_11  and  C_12
REMARK    8  A    between atoms: C_12  and  N_14
REMARK    9  A    between atoms: N_14  and  C_15
REMARK   10  A    between atoms: C_21  and  N_22
REMARK                            x       y       z     vdW  Elec       q    Type
REMARK                         _______ _______ _______ _____ _____    ______ ____
ROOT
ATOM      1  C   UNL     1       6.301   4.986  15.196  0.00  0.00    +0.000 A 
ATOM      2  N   UNL     1       5.035   5.462  15.444  0.00  0.00    +0.000 N 
ATOM      3  C   UNL     1       4.710   5.330  16.767  0.00  0.00    +0.000 A 
ATOM      4  C   UNL     1       5.797   4.768  17.433  0.00  0.00    +0.000 A 
ATOM      5  C   UNL     1       6.784   4.561  16.419  0.00  0.00    +0.000 A 
ATOM      6  H   UNL     1       4.419   5.876  14.760  0.00  0.00    +0.000 HD
ENDROOT
BRANCH   1   8
ATOM      7  C   UNL     1       6.387   3.976  12.873  0.00  0.00    +0.000 C 
ATOM      8  C   UNL     1       6.946   4.938  13.893  0.00  0.00    +0.000 C 
ATOM      9  O   UNL     1       7.924   5.635  13.603  0.00  0.00    +0.000 OA
ENDBRANCH   1   8
BRANCH   5  10
ATOM     10  N   UNL     1       8.008   4.011  16.581  0.00  0.00    +0.000 N 
ATOM     11  H   UNL     1       8.307   3.681  17.495  0.00  0.00    +0.000 HD
ATOM     12  H   UNL     1       8.383   3.436  15.822  0.00  0.00    +0.000 HD
ENDBRANCH   5  10
BRANCH   3  13
ATOM     13  N   UNL     1       3.526   5.787  17.251  0.00  0.00    +0.000 N 
ATOM     14  H   UNL     1       2.745   5.758  16.585  0.00  0.00    +0.000 HD
BRANCH  13  15
ATOM     15  C   UNL     1       3.399   6.916  18.171  0.00  0.00    +0.000 C 
ATOM     16  C   UNL     1       2.731   8.093  17.459  0.00  0.00    +0.000 C 
ATOM     17  C   UNL     1       2.547   6.457  19.350  0.00  0.00    +0.000 C 
ENDBRANCH  13  15
ENDBRANCH   3  13
BRANCH   4  18
ATOM     18  C   UNL     1       5.904   4.434  18.855  0.00  0.00    +0.000 C 
ATOM     19  S   UNL     1       6.751   5.486  19.859  0.00  0.00    +0.000 S 
BRANCH  18  20
ATOM     20  N   UNL     1       5.320   3.236  19.236  0.00  0.00    +0.000 N 
ATOM     21  H   UNL     1       5.948   2.441  19.324  0.00  0.00    +0.000 HD
BRANCH  20  22
ATOM     22  C   UNL     1       3.946   2.982  19.437  0.00  0.00    +0.000 A 
ATOM     23  C   UNL     1       3.308   3.323  20.634  0.00  0.00    +0.000 A 
ATOM     24  C   UNL     1       1.938   3.122  20.795  0.00  0.00    +0.000 A 
ATOM     25  C   UNL     1       1.191   2.576  19.757  0.00  0.00    +0.000 A 
ATOM     26  C   UNL     1       1.813   2.245  18.554  0.00  0.00    +0.000 A 
ATOM     27  C   UNL     1       3.185   2.468  18.385  0.00  0.00    +0.000 A 
ENDBRANCH  20  22
ENDBRANCH  18  20
ENDBRANCH   4  18
TORSDOF 7
ENDMDL
MODEL 7
REMARK VINA RESULT:      -6.6      3.228      5.945
REMARK  Name = 
REMARK  10 active torsions:
REMARK  status: ('A' for Active; 'I' for Inactive)
REMARK    1  A    between atoms: C_1  and  C_2
REMARK    2  A    between atoms: C_2  and  C_4
REMARK    3  A    between atoms: C_6  and  N_7
REMARK    4  A    between atoms: N_7  and  C_8
REMARK    5  A    between atoms: C_8  and  C_9
REMARK    6  A    between atoms: C_8  and  C_10
REMARK    7  A    between atoms: C_11  and  C_12
REMARK    8  A    between atoms: C_12  and  N_14
REMARK    9  A    between atoms: N_14  and  C_15
REMARK   10  A    between atoms: C_21  and  N_22
REMARK                            x       y       z     vdW  Elec       q    Type
REMARK                         _______ _______ _______ _____ _____    ______ ____
ROOT
ATOM      1  C   UNL     1       5.597   4.910  15.691  0.00  0.00    +0.000 A 
ATOM      2  N   UNL     1       4.611   3.969  15.875  0.00  0.00    +0.000 N 
ATOM      3  C   UNL     1       3.743   4.353  16.862  0.00  0.00    +0.000 A 
ATOM      4  C   UNL     1       4.145   5.597  17.342  0.00  0.00    +0.000 A 
ATOM      5  C   UNL     1       5.315   5.923  16.587  0.00  0.00    +0.000 A 
ATOM      6  H   UNL     1       4.510   3.114  15.349  0.00  0.00    +0.000 HD
ENDROOT
BRANCH   1   8
ATOM      7  C   UNL     1       6.490   3.958  13.519  0.00  0.00    +0.000 C 
ATOM      8  C   UNL     1       6.702   4.804  14.750  0.00  0.00    +0.000 C 
ATOM      9  O   UNL     1       7.790   5.362  14.928  0.00  0.00    +0.000 OA
ENDBRANCH   1   8
BRANCH   5  10
ATOM     10  N   UNL     1       6.077   7.032  16.716  0.00  0.00    +0.000 N 
ATOM     11  H   UNL     1       6.846   7.205  16.074  0.00  0.00    +0.000 HD
ATOM     12  H   UNL     1       5.623   7.898  17.016  0.00  0.00    +0.000 HD
ENDBRANCH   5  10
BRANCH   3  13
ATOM     13  N   UNL     1       2.657   3.600  17.176  0.00  0.00    +0.000 N 
ATOM     14  H   UNL     1       1.974   4.058  17.789  0.00  0.00    +0.000 HD
BRANCH  13  15
ATOM     15  C   UNL     1       2.703   2.158  17.412  0.00  0.00    +0.000 C 
ATOM     16  C   UNL     1       3.955   1.804  18.216  0.00  0.00    +0.000 C 
ATOM     17  C   UNL     1       1.447   1.778  18.191  0.00  0.00    +0.000 C 
ENDBRANCH  13  15
ENDBRANCH   3  13
BRANCH   4  18
ATOM     18  C   UNL     1       3.525   6.392  18.405  0.00  0.00    +0.000 C 
ATOM     19  S   UNL     1       2.800   7.852  17.989  0.00  0.00    +0.000 S 
BRANCH  18  20
ATOM     20  N   UNL     1       3.637   5.871  19.685  0.00  0.00    +0.000 N 
ATOM     21  H   UNL     1       4.382   6.255  20.260  0.00  0.00    +0.000 HD
BRANCH  20  22
ATOM     22  C   UNL     1       2.883   4.818  20.247  0.00  0.00    +0.000 A 
ATOM     23  C   UNL     1       3.500   3.753  20.910  0.00  0.00    +0.000 A 
ATOM     24  C   UNL     1       2.740   2.752  21.515  0.00  0.00    +0.000 A 
ATOM     25  C   UNL     1       1.352   2.806  21.459  0.00  0.00    +0.000 A 
ATOM     26  C   UNL     1       0.726   3.871  20.812  0.00  0.00    +0.000 A 
ATOM     27  C   UNL     1       1.489   4.888  20.226  0.00  0.00    +0.000 A 
ENDBRANCH  20  22
ENDBRANCH  18  20
ENDBRANCH   4  18
TORSDOF 7
ENDMDL
MODEL 8
REMARK VINA RESULT:      -6.6      3.934      6.966
REMARK  Name = 
REMARK  10 active torsions:
REMARK  status: ('A' for Active; 'I' for Inactive)
REMARK    1  A    between atoms: C_1  and  C_2
REMARK    2  A    between atoms: C_2  and  C_4
REMARK    3  A    between atoms: C_6  and  N_7
REMARK    4  A    between atoms: N_7  and  C_8
REMARK    5  A    between atoms: C_8  and  C_9
REMARK    6  A    between atoms: C_8  and  C_10
REMARK    7  A    between atoms: C_11  and  C_12
REMARK    8  A    between atoms: C_12  and  N_14
REMARK    9  A    between atoms: N_14  and  C_15
REMARK   10  A    between atoms: C_21  and  N_22
REMARK                            x       y       z     vdW  Elec       q    Type
REMARK                         _______ _______ _______ _____ _____    ______ ____
ROOT
ATOM      1  C   UNL     1       6.933   4.711  14.608  0.00  0.00    +0.000 A 
ATOM      2  N   UNL     1       7.721   4.667  15.734  0.00  0.00    +0.000 N 
ATOM      3  C   UNL     1       6.957   4.690  16.870  0.00  0.00    +0.000 A 
ATOM      4  C   UNL     1       5.616   4.729  16.497  0.00  0.00    +0.000 A 
ATOM      5  C   UNL     1       5.631   4.742  15.067  0.00  0.00    +0.000 A 
ATOM      6  H   UNL     1       8.728   4.606  15.744  0.00  0.00    +0.000 HD
ENDROOT
BRANCH   1   8
ATOM      7  C   UNL     1       6.949   3.649  12.307  0.00  0.00    +0.000 C 
ATOM      8  C   UNL     1       7.419   4.741  13.237  0.00  0.00    +0.000 C 
ATOM      9  O   UNL     1       8.198   5.605  12.820  0.00  0.00    +0.000 OA
ENDBRANCH   1   8
BRANCH   5  10
ATOM     10  N   UNL     1       4.557   4.804  14.247  0.00  0.00    +0.000 N 
ATOM     11  H   UNL     1       3.632   4.564  14.592  0.00  0.00    +0.000 HD
ATOM     12  H   UNL     1       4.527   5.550  13.548  0.00  0.00    +0.000 HD
ENDBRANCH   5  10
BRANCH   3  13
ATOM     13  N   UNL     1       7.524   4.598  18.101  0.00  0.00    +0.000 N 
ATOM     14  H   UNL     1       7.456   3.674  18.542  0.00  0.00    +0.000 HD
BRANCH  13  15
ATOM     15  C   UNL     1       7.491   5.668  19.097  0.00  0.00    +0.000 C 
ATOM     16  C   UNL     1       8.441   5.335  20.247  0.00  0.00    +0.000 C 
ATOM     17  C   UNL     1       7.926   6.956  18.404  0.00  0.00    +0.000 C 
ENDBRANCH  13  15
ENDBRANCH   3  13
BRANCH   4  18
ATOM     18  C   UNL     1       4.441   4.773  17.372  0.00  0.00    +0.000 C 
ATOM     19  S   UNL     1       3.828   6.278  17.807  0.00  0.00    +0.000 S 
BRANCH  18  20
ATOM     20  N   UNL     1       3.966   3.543  17.799  0.00  0.00    +0.000 N 
ATOM     21  H   UNL     1       4.265   2.736  17.258  0.00  0.00    +0.000 HD
BRANCH  20  22
ATOM     22  C   UNL     1       3.056   3.297  18.850  0.00  0.00    +0.000 A 
ATOM     23  C   UNL     1       1.679   3.223  18.620  0.00  0.00    +0.000 A 
ATOM     24  C   UNL     1       0.797   2.918  19.656  0.00  0.00    +0.000 A 
ATOM     25  C   UNL     1       1.286   2.685  20.936  0.00  0.00    +0.000 A 
ATOM     26  C   UNL     1       2.659   2.742  21.175  0.00  0.00    +0.000 A 
ATOM     27  C   UNL     1       3.546   3.026  20.129  0.00  0.00    +0.000 A 
ENDBRANCH  20  22
ENDBRANCH  18  20
ENDBRANCH   4  18
TORSDOF 7
ENDMDL
MODEL 9
REMARK VINA RESULT:      -6.6      2.967      5.630
REMARK  Name = 
REMARK  10 active torsions:
REMARK  status: ('A' for Active; 'I' for Inactive)
REMARK    1  A    between atoms: C_1  and  C_2
REMARK    2  A    between atoms: C_2  and  C_4
REMARK    3  A    between atoms: C_6  and  N_7
REMARK    4  A    between atoms: N_7  and  C_8
REMARK    5  A    between atoms: C_8  and  C_9
REMARK    6  A    between atoms: C_8  and  C_10
REMARK    7  A    between atoms: C_11  and  C_12
REMARK    8  A    between atoms: C_12  and  N_14
REMARK    9  A    between atoms: N_14  and  C_15
REMARK   10  A    between atoms: C_21  and  N_22
REMARK                            x       y       z     vdW  Elec       q    Type
REMARK                         _______ _______ _______ _____ _____    ______ ____
ROOT
ATOM      1  C   UNL     1       5.766   4.592  15.898  0.00  0.00    +0.000 A 
ATOM      2  N   UNL     1       5.593   3.434  16.620  0.00  0.00    +0.000 N 
ATOM      3  C   UNL     1       4.545   3.550  17.493  0.00  0.00    +0.000 A 
ATOM      4  C   UNL     1       3.984   4.815  17.340  0.00  0.00    +0.000 A 
ATOM      5  C   UNL     1       4.772   5.449  16.330  0.00  0.00    +0.000 A 
ATOM      6  H   UNL     1       6.142   2.593  16.520  0.00  0.00    +0.000 HD
ENDROOT
BRANCH   1   8
ATOM      7  C   UNL     1       6.726   4.059  13.614  0.00  0.00    +0.000 C 
ATOM      8  C   UNL     1       6.809   4.825  14.912  0.00  0.00    +0.000 C 
ATOM      9  O   UNL     1       7.749   5.604  15.102  0.00  0.00    +0.000 OA
ENDBRANCH   1   8
BRANCH   5  10
ATOM     10  N   UNL     1       4.622   6.707  15.857  0.00  0.00    +0.000 N 
ATOM     11  H   UNL     1       5.150   7.475  16.261  0.00  0.00    +0.000 HD
ATOM     12  H   UNL     1       4.471   6.829  14.852  0.00  0.00    +0.000 HD
ENDBRANCH   5  10
BRANCH   3  13
ATOM     13  N   UNL     1       4.158   2.506  18.271  0.00  0.00    +0.000 N 
ATOM     14  H   UNL     1       3.508   1.849  17.823  0.00  0.00    +0.000 HD
BRANCH  13  15
ATOM     15  C   UNL     1       3.909   2.605  19.708  0.00  0.00    +0.000 C 
ATOM     16  C   UNL     1       2.472   2.185  20.016  0.00  0.00    +0.000 C 
ATOM     17  C   UNL     1       4.895   1.678  20.412  0.00  0.00    +0.000 C 
ENDBRANCH  13  15
ENDBRANCH   3  13
BRANCH   4  18
ATOM     18  C   UNL     1       2.849   5.388  18.069  0.00  0.00    +0.000 C 
ATOM     19  S   UNL     1       1.326   4.713  17.830  0.00  0.00    +0.000 S 
BRANCH  18  20
ATOM     20  N   UNL     1       3.141   6.482  18.869  0.00  0.00    +0.000 N 
ATOM     21  H   UNL     1       3.976   6.404  19.443  0.00  0.00    +0.000 HD
BRANCH  20  22
ATOM     22  C   UNL     1       2.369   7.652  19.030  0.00  0.00    +0.000 A 
ATOM     23  C   UNL     1       2.113   8.511  17.957  0.00  0.00    +0.000 A 
ATOM     24  C   UNL     1       1.297   9.631  18.118  0.00  0.00    +0.000 A 
ATOM     25  C   UNL     1       0.730   9.903  19.358  0.00  0.00    +0.000 A 
ATOM     26  C   UNL     1       0.966   9.046  20.432  0.00  0.00    +0.000 A 
ATOM     27  C   UNL     1       1.767   7.909  20.264  0.00  0.00    +0.000 A 
ENDBRANCH  20  22
ENDBRANCH  18  20
ENDBRANCH   4  18
TORSDOF 7
ENDMDL
