MODEL 1
REMARK VINA RESULT:      -7.9      0.000      0.000
REMARK  Name = 
REMARK  8 active torsions:
REMARK  status: ('A' for Active; 'I' for Inactive)
REMARK    1  A    between atoms: C_1  and  C_2
REMARK    2  A    between atoms: C_2  and  O_3
REMARK    3  A    between atoms: C_4  and  N_5
REMARK    4  A    between atoms: C_9  and  C_10
REMARK    5  A    between atoms: N_12  and  O_13
REMARK    6  A    between atoms: C_19  and  C_20
REMARK    7  A    between atoms: C_20  and  O_21
REMARK    8  A    between atoms: C_22  and  O_23
REMARK                            x       y       z     vdW  Elec       q    Type
REMARK                         _______ _______ _______ _____ _____    ______ ____
ROOT
ATOM      1  N   UNL     1       4.578   4.036  18.394  0.00  0.00    +0.000 N 
ATOM      2  C   UNL     1       4.213   3.145  17.410  0.00  0.00    +0.000 A 
ATOM      3  N   UNL     1       4.934   3.286  16.317  0.00  0.00    +0.000 NA
ATOM      4  C   UNL     1       5.784   4.335  16.580  0.00  0.00    +0.000 A 
ATOM      5  C   UNL     1       6.751   5.019  15.848  0.00  0.00    +0.000 A 
ATOM      6  N   UNL     1       7.468   6.037  16.412  0.00  0.00    +0.000 NA
ATOM      7  C   UNL     1       7.201   6.341  17.686  0.00  0.00    +0.000 A 
ATOM      8  N   UNL     1       6.246   5.812  18.459  0.00  0.00    +0.000 NA
ATOM      9  C   UNL     1       5.588   4.801  17.873  0.00  0.00    +0.000 A 
ENDROOT
BRANCH   1  12
ATOM     10  C   UNL     1       2.503   2.848  21.359  0.00  0.00    +0.000 C 
ATOM     11  C   UNL     1       2.672   3.271  19.897  0.00  0.00    +0.000 C 
ATOM     12  C   UNL     1       3.944   4.116  19.711  0.00  0.00    +0.000 C 
ATOM     13  O   UNL     1       3.560   5.478  20.013  0.00  0.00    +0.000 OA
ATOM     14  C   UNL     1       2.145   5.632  19.720  0.00  0.00    +0.000 C 
ATOM     15  C   UNL     1       1.553   4.237  19.490  0.00  0.00    +0.000 C 
BRANCH  11  16
ATOM     16  O   UNL     1       2.667   2.072  19.120  0.00  0.00    +0.000 OA
ATOM     17  H   UNL     1       1.859   2.110  18.563  0.00  0.00    +0.000 HD
ENDBRANCH  11  16
BRANCH  15  18
ATOM     18  O   UNL     1       1.238   3.996  18.108  0.00  0.00    +0.000 OA
ATOM     19  H   UNL     1       2.072   3.953  17.598  0.00  0.00    +0.000 HD
ENDBRANCH  15  18
BRANCH  14  20
ATOM     20  C   UNL     1       1.479   6.452  20.819  0.00  0.00    +0.000 C 
BRANCH  20  21
ATOM     21  O   UNL     1       2.008   7.780  20.803  0.00  0.00    +0.000 OA
ATOM     22  H   UNL     1       1.721   8.205  21.635  0.00  0.00    +0.000 HD
ENDBRANCH  20  21
ENDBRANCH  14  20
ENDBRANCH   1  12
BRANCH   5  23
ATOM     23  C   UNL     1       7.053   4.762  14.419  0.00  0.00    +0.000 C 
ATOM     24  N   UNL     1       7.806   5.535  13.686  0.00  0.00    +0.000 NA
ATOM     25  N   UNL     1       6.476   3.631  13.860  0.00  0.00    +0.000 N 
ATOM     26  H   UNL     1       8.171   6.315  14.255  0.00  0.00    +0.000 HD
ATOM     27  H   UNL     1       5.675   3.260  14.372  0.00  0.00    +0.000 HD
BRANCH  25  28
ATOM     28  O   UNL     1       6.279   3.748  12.481  0.00  0.00    +0.000 OA
ATOM     29  H   UNL     1       5.827   4.619  12.414  0.00  0.00    +0.000 HD
ENDBRANCH  25  28
ENDBRANCH   5  23
TORSDOF 7
ENDMDL
MODEL 2
REMARK VINA RESULT:      -7.8      0.849      1.087
REMARK  Name = 
REMARK  8 active torsions:
REMARK  status: ('A' for Active; 'I' for Inactive)
REMARK    1  A    between atoms: C_1  and  C_2
REMARK    2  A    between atoms: C_2  and  O_3
REMARK    3  A    between atoms: C_4  and  N_5
REMARK    4  A    between atoms: C_9  and  C_10
REMARK    5  A    between atoms: N_12  and  O_13
REMARK    6  A    between atoms: C_19  and  C_20
REMARK    7  A    between atoms: C_20  and  O_21
REMARK    8  A    between atoms: C_22  and  O_23
REMARK                            x       y       z     vdW  Elec       q    Type
REMARK                         _______ _______ _______ _____ _____    ______ ____
ROOT
ATOM      1  N   UNL     1       4.266   3.936  18.326  0.00  0.00    +0.000 N 
ATOM      2  C   UNL     1       3.514   3.675  17.203  0.00  0.00    +0.000 A 
ATOM      3  N   UNL     1       4.227   3.745  16.098  0.00  0.00    +0.000 NA
ATOM      4  C   UNL     1       5.492   4.099  16.507  0.00  0.00    +0.000 A 
ATOM      5  C   UNL     1       6.688   4.385  15.855  0.00  0.00    +0.000 A 
ATOM      6  N   UNL     1       7.816   4.694  16.562  0.00  0.00    +0.000 NA
ATOM      7  C   UNL     1       7.718   4.709  17.895  0.00  0.00    +0.000 A 
ATOM      8  N   UNL     1       6.610   4.532  18.625  0.00  0.00    +0.000 NA
ATOM      9  C   UNL     1       5.538   4.205  17.890  0.00  0.00    +0.000 A 
ENDROOT
BRANCH   1  12
ATOM     10  C   UNL     1       2.436   2.572  21.375  0.00  0.00    +0.000 C 
ATOM     11  C   UNL     1       2.488   3.075  19.929  0.00  0.00    +0.000 C 
ATOM     12  C   UNL     1       3.737   3.940  19.690  0.00  0.00    +0.000 C 
ATOM     13  O   UNL     1       3.373   5.280  20.096  0.00  0.00    +0.000 OA
ATOM     14  C   UNL     1       1.938   5.437  19.922  0.00  0.00    +0.000 C 
ATOM     15  C   UNL     1       1.336   4.051  19.664  0.00  0.00    +0.000 C 
BRANCH  11  16
ATOM     16  O   UNL     1       2.428   1.919  19.091  0.00  0.00    +0.000 OA
ATOM     17  H   UNL     1       2.292   2.252  18.177  0.00  0.00    +0.000 HD
ENDBRANCH  11  16
BRANCH  15  18
ATOM     18  O   UNL     1       0.914   3.883  18.300  0.00  0.00    +0.000 OA
ATOM     19  H   UNL     1       1.483   4.434  17.725  0.00  0.00    +0.000 HD
ENDBRANCH  15  18
BRANCH  14  20
ATOM     20  C   UNL     1       1.357   6.191  21.113  0.00  0.00    +0.000 C 
BRANCH  20  21
ATOM     21  O   UNL     1       1.784   7.554  21.063  0.00  0.00    +0.000 OA
ATOM     22  H   UNL     1       1.948   7.761  20.122  0.00  0.00    +0.000 HD
ENDBRANCH  20  21
ENDBRANCH  14  20
ENDBRANCH   1  12
BRANCH   5  23
ATOM     23  C   UNL     1       6.844   4.435  14.381  0.00  0.00    +0.000 C 
ATOM     24  N   UNL     1       6.343   3.546  13.568  0.00  0.00    +0.000 NA
ATOM     25  N   UNL     1       7.581   5.494  13.874  0.00  0.00    +0.000 N 
ATOM     26  H   UNL     1       5.809   2.841  14.101  0.00  0.00    +0.000 HD
ATOM     27  H   UNL     1       8.191   5.956  14.550  0.00  0.00    +0.000 HD
BRANCH  25  28
ATOM     28  O   UNL     1       8.192   5.195  12.652  0.00  0.00    +0.000 OA
ATOM     29  H   UNL     1       8.137   6.056  12.181  0.00  0.00    +0.000 HD
ENDBRANCH  25  28
ENDBRANCH   5  23
TORSDOF 7
ENDMDL
MODEL 3
REMARK VINA RESULT:      -7.8      2.818      6.308
REMARK  Name = 
REMARK  8 active torsions:
REMARK  status: ('A' for Active; 'I' for Inactive)
REMARK    1  A    between atoms: C_1  and  C_2
REMARK    2  A    between atoms: C_2  and  O_3
REMARK    3  A    between atoms: C_4  and  N_5
REMARK    4  A    between atoms: C_9  and  C_10
REMARK    5  A    between atoms: N_12  and  O_13
REMARK    6  A    between atoms: C_19  and  C_20
REMARK    7  A    between atoms: C_20  and  O_21
REMARK    8  A    between atoms: C_22  and  O_23
REMARK                            x       y       z     vdW  Elec       q    Type
REMARK                         _______ _______ _______ _____ _____    ______ ____
ROOT
ATOM      1  N   UNL     1       4.210   4.768  17.230  0.00  0.00    +0.000 N 
ATOM      2  C   UNL     1       3.970   3.420  17.088  0.00  0.00    +0.000 A 
ATOM      3  N   UNL     1       3.092   2.975  17.963  0.00  0.00    +0.000 NA
ATOM      4  C   UNL     1       2.767   4.067  18.734  0.00  0.00    +0.000 A 
ATOM      5  C   UNL     1       1.954   4.275  19.845  0.00  0.00    +0.000 A 
ATOM      6  N   UNL     1       1.815   5.520  20.389  0.00  0.00    +0.000 NA
ATOM      7  C   UNL     1       2.490   6.519  19.812  0.00  0.00    +0.000 A 
ATOM      8  N   UNL     1       3.359   6.427  18.799  0.00  0.00    +0.000 NA
ATOM      9  C   UNL     1       3.440   5.193  18.281  0.00  0.00    +0.000 A 
ENDROOT
BRANCH   1  12
ATOM     10  C   UNL     1       6.992   5.312  14.685  0.00  0.00    +0.000 C 
ATOM     11  C   UNL     1       6.453   4.809  16.028  0.00  0.00    +0.000 C 
ATOM     12  C   UNL     1       5.146   5.531  16.403  0.00  0.00    +0.000 C 
ATOM     13  O   UNL     1       5.547   6.749  17.072  0.00  0.00    +0.000 OA
ATOM     14  C   UNL     1       6.840   6.526  17.697  0.00  0.00    +0.000 C 
ATOM     15  C   UNL     1       7.403   5.204  17.163  0.00  0.00    +0.000 C 
BRANCH  11  16
ATOM     16  O   UNL     1       6.306   3.393  15.906  0.00  0.00    +0.000 OA
ATOM     17  H   UNL     1       5.510   3.155  16.430  0.00  0.00    +0.000 HD
ENDBRANCH  11  16
BRANCH  15  18
ATOM     18  O   UNL     1       7.376   4.158  18.151  0.00  0.00    +0.000 OA
ATOM     19  H   UNL     1       6.833   4.457  18.909  0.00  0.00    +0.000 HD
ENDBRANCH  15  18
BRANCH  14  20
ATOM     20  C   UNL     1       7.728   7.747  17.489  0.00  0.00    +0.000 C 
BRANCH  20  21
ATOM     21  O   UNL     1       8.512   7.966  18.664  0.00  0.00    +0.000 OA
ATOM     22  H   UNL     1       7.912   8.351  19.332  0.00  0.00    +0.000 HD
ENDBRANCH  20  21
ENDBRANCH  14  20
ENDBRANCH   1  12
BRANCH   5  23
ATOM     23  C   UNL     1       1.224   3.199  20.558  0.00  0.00    +0.000 C 
ATOM     24  N   UNL     1       0.165   2.602  20.083  0.00  0.00    +0.000 NA
ATOM     25  N   UNL     1       1.717   2.839  21.803  0.00  0.00    +0.000 N 
ATOM     26  H   UNL     1      -0.056   2.970  19.145  0.00  0.00    +0.000 HD
ATOM     27  H   UNL     1       2.327   3.531  22.241  0.00  0.00    +0.000 HD
BRANCH  25  28
ATOM     28  O   UNL     1       0.732   2.319  22.648  0.00  0.00    +0.000 OA
ATOM     29  H   UNL     1      -0.068   2.363  22.077  0.00  0.00    +0.000 HD
ENDBRANCH  25  28
ENDBRANCH   5  23
TORSDOF 7
ENDMDL
MODEL 4
REMARK VINA RESULT:      -7.5      4.195      6.419
REMARK  Name = 
REMARK  8 active torsions:
REMARK  status: ('A' for Active; 'I' for Inactive)
REMARK    1  A    between atoms: C_1  and  C_2
REMARK    2  A    between atoms: C_2  and  O_3
REMARK    3  A    between atoms: C_4  and  N_5
REMARK    4  A    between atoms: C_9  and  C_10
REMARK    5  A    between atoms: N_12  and  O_13
REMARK    6  A    between atoms: C_19  and  C_20
REMARK    7  A    between atoms: C_20  and  O_21
REMARK    8  A    between atoms: C_22  and  O_23
REMARK                            x       y       z     vdW  Elec       q    Type
REMARK                         _______ _______ _______ _____ _____    ______ ____
ROOT
ATOM      1  N   UNL     1       2.647   6.931  19.220  0.00  0.00    +0.000 N 
ATOM      2  C   UNL     1       2.917   7.410  17.958  0.00  0.00    +0.000 A 
ATOM      3  N   UNL     1       2.339   8.571  17.731  0.00  0.00    +0.000 NA
ATOM      4  C   UNL     1       1.632   8.852  18.878  0.00  0.00    +0.000 A 
ATOM      5  C   UNL     1       0.777   9.876  19.276  0.00  0.00    +0.000 A 
ATOM      6  N   UNL     1       0.230   9.886  20.528  0.00  0.00    +0.000 NA
ATOM      7  C   UNL     1       0.550   8.877  21.344  0.00  0.00    +0.000 A 
ATOM      8  N   UNL     1       1.290   7.803  21.047  0.00  0.00    +0.000 NA
ATOM      9  C   UNL     1       1.827   7.851  19.820  0.00  0.00    +0.000 A 
ENDROOT
BRANCH   1  12
ATOM     10  C   UNL     1       4.478   3.592  19.146  0.00  0.00    +0.000 C 
ATOM     11  C   UNL     1       3.360   4.543  18.707  0.00  0.00    +0.000 C 
ATOM     12  C   UNL     1       3.147   5.659  19.744  0.00  0.00    +0.000 C 
ATOM     13  O   UNL     1       2.237   5.116  20.728  0.00  0.00    +0.000 OA
ATOM     14  C   UNL     1       1.408   4.112  20.081  0.00  0.00    +0.000 C 
ATOM     15  C   UNL     1       2.012   3.813  18.704  0.00  0.00    +0.000 C 
BRANCH  11  16
ATOM     16  O   UNL     1       3.721   5.029  17.413  0.00  0.00    +0.000 OA
ATOM     17  H   UNL     1       4.693   4.911  17.338  0.00  0.00    +0.000 HD
ENDBRANCH  11  16
BRANCH  15  18
ATOM     18  O   UNL     1       1.219   4.348  17.630  0.00  0.00    +0.000 OA
ATOM     19  H   UNL     1       1.600   5.207  17.356  0.00  0.00    +0.000 HD
ENDBRANCH  15  18
BRANCH  14  20
ATOM     20  C   UNL     1       1.249   2.907  21.001  0.00  0.00    +0.000 C 
BRANCH  20  21
ATOM     21  O   UNL     1       2.163   3.024  22.094  0.00  0.00    +0.000 OA
ATOM     22  H   UNL     1       1.678   3.466  22.818  0.00  0.00    +0.000 HD
ENDBRANCH  20  21
ENDBRANCH  14  20
ENDBRANCH   1  12
BRANCH   5  23
ATOM     23  C   UNL     1       0.346  10.991  18.399  0.00  0.00    +0.000 C 
ATOM     24  N   UNL     1       0.979  12.128  18.305  0.00  0.00    +0.000 NA
ATOM     25  N   UNL     1      -0.808  10.783  17.658  0.00  0.00    +0.000 N 
ATOM     26  H   UNL     1       1.822  12.112  18.901  0.00  0.00    +0.000 HD
ATOM     27  H   UNL     1      -1.409  10.032  18.001  0.00  0.00    +0.000 HD
BRANCH  25  28
ATOM     28  O   UNL     1      -1.480  11.971  17.355  0.00  0.00    +0.000 OA
ATOM     29  H   UNL     1      -1.741  11.823  16.418  0.00  0.00    +0.000 HD
ENDBRANCH  25  28
ENDBRANCH   5  23
TORSDOF 7
ENDMDL
MODEL 5
REMARK VINA RESULT:      -7.4      1.774      2.269
REMARK  Name = 
REMARK  8 active torsions:
REMARK  status: ('A' for Active; 'I' for Inactive)
REMARK    1  A    between atoms: C_1  and  C_2
REMARK    2  A    between atoms: C_2  and  O_3
REMARK    3  A    between atoms: C_4  and  N_5
REMARK    4  A    between atoms: C_9  and  C_10
REMARK    5  A    between atoms: N_12  and  O_13
REMARK    6  A    between atoms: C_19  and  C_20
REMARK    7  A    between atoms: C_20  and  O_21
REMARK    8  A    between atoms: C_22  and  O_23
REMARK                            x       y       z     vdW  Elec       q    Type
REMARK                         _______ _______ _______ _____ _____    ______ ____
ROOT
ATOM      1  N   UNL     1       4.287   4.248  17.147  0.00  0.00    +0.000 N 
ATOM      2  C   UNL     1       4.072   3.480  16.026  0.00  0.00    +0.000 A 
ATOM      3  N   UNL     1       5.010   3.650  15.117  0.00  0.00    +0.000 NA
ATOM      4  C   UNL     1       5.858   4.595  15.647  0.00  0.00    +0.000 A 
ATOM      5  C   UNL     1       6.998   5.252  15.193  0.00  0.00    +0.000 A 
ATOM      6  N   UNL     1       7.652   6.151  15.988  0.00  0.00    +0.000 NA
ATOM      7  C   UNL     1       7.150   6.368  17.208  0.00  0.00    +0.000 A 
ATOM      8  N   UNL     1       6.023   5.860  17.719  0.00  0.00    +0.000 NA
ATOM      9  C   UNL     1       5.433   4.964  16.916  0.00  0.00    +0.000 A 
ENDROOT
BRANCH   1  12
ATOM     10  C   UNL     1       3.332   3.945  20.822  0.00  0.00    +0.000 C 
ATOM     11  C   UNL     1       3.819   3.368  19.488  0.00  0.00    +0.000 C 
ATOM     12  C   UNL     1       3.404   4.272  18.314  0.00  0.00    +0.000 C 
ATOM     13  O   UNL     1       2.065   3.858  17.952  0.00  0.00    +0.000 OA
ATOM     14  C   UNL     1       1.906   2.458  18.307  0.00  0.00    +0.000 C 
ATOM     15  C   UNL     1       3.096   2.052  19.183  0.00  0.00    +0.000 C 
BRANCH  11  16
ATOM     16  O   UNL     1       5.233   3.202  19.605  0.00  0.00    +0.000 OA
ATOM     17  H   UNL     1       5.635   4.018  19.237  0.00  0.00    +0.000 HD
ENDBRANCH  11  16
BRANCH  15  18
ATOM     18  O   UNL     1       4.016   1.189  18.492  0.00  0.00    +0.000 OA
ATOM     19  H   UNL     1       3.617   0.925  17.638  0.00  0.00    +0.000 HD
ENDBRANCH  15  18
BRANCH  14  20
ATOM     20  C   UNL     1       0.531   2.240  18.930  0.00  0.00    +0.000 C 
BRANCH  20  21
ATOM     21  O   UNL     1       0.356   3.151  20.017  0.00  0.00    +0.000 OA
ATOM     22  H   UNL     1      -0.181   2.685  20.688  0.00  0.00    +0.000 HD
ENDBRANCH  20  21
ENDBRANCH  14  20
ENDBRANCH   1  12
BRANCH   5  23
ATOM     23  C   UNL     1       7.569   5.091  13.834  0.00  0.00    +0.000 C 
ATOM     24  N   UNL     1       8.545   5.820  13.366  0.00  0.00    +0.000 NA
ATOM     25  N   UNL     1       7.001   4.107  13.039  0.00  0.00    +0.000 N 
ATOM     26  H   UNL     1       8.865   6.486  14.087  0.00  0.00    +0.000 HD
ATOM     27  H   UNL     1       6.072   3.802  13.330  0.00  0.00    +0.000 HD
BRANCH  25  28
ATOM     28  O   UNL     1       7.119   4.380  11.672  0.00  0.00    +0.000 OA
ATOM     29  H   UNL     1       6.714   5.273  11.608  0.00  0.00    +0.000 HD
ENDBRANCH  25  28
ENDBRANCH   5  23
TORSDOF 7
ENDMDL
MODEL 6
REMARK VINA RESULT:      -7.3      1.631      2.033
REMARK  Name = 
REMARK  8 active torsions:
REMARK  status: ('A' for Active; 'I' for Inactive)
REMARK    1  A    between atoms: C_1  and  C_2
REMARK    2  A    between atoms: C_2  and  O_3
REMARK    3  A    between atoms: C_4  and  N_5
REMARK    4  A    between atoms: C_9  and  C_10
REMARK    5  A    between atoms: N_12  and  O_13
REMARK    6  A    between atoms: C_19  and  C_20
REMARK    7  A    between atoms: C_20  and  O_21
REMARK    8  A    between atoms: C_22  and  O_23
REMARK                            x       y       z     vdW  Elec       q    Type
REMARK                         _______ _______ _______ _____ _____    ______ ____
ROOT
ATOM      1  N   UNL     1       4.443   3.932  18.025  0.00  0.00    +0.000 N 
ATOM      2  C   UNL     1       3.690   3.897  16.873  0.00  0.00    +0.000 A 
ATOM      3  N   UNL     1       4.420   4.089  15.794  0.00  0.00    +0.000 NA
ATOM      4  C   UNL     1       5.700   4.294  16.256  0.00  0.00    +0.000 A 
ATOM      5  C   UNL     1       6.920   4.598  15.659  0.00  0.00    +0.000 A 
ATOM      6  N   UNL     1       8.056   4.720  16.408  0.00  0.00    +0.000 NA
ATOM      7  C   UNL     1       7.942   4.536  17.727  0.00  0.00    +0.000 A 
ATOM      8  N   UNL     1       6.817   4.321  18.418  0.00  0.00    +0.000 NA
ATOM      9  C   UNL     1       5.734   4.181  17.639  0.00  0.00    +0.000 A 
ENDROOT
BRANCH   1  12
ATOM     10  C   UNL     1       3.776   2.162  21.331  0.00  0.00    +0.000 C 
ATOM     11  C   UNL     1       3.641   2.307  19.812  0.00  0.00    +0.000 C 
ATOM     12  C   UNL     1       3.899   3.759  19.372  0.00  0.00    +0.000 C 
ATOM     13  O   UNL     1       2.630   4.442  19.505  0.00  0.00    +0.000 OA
ATOM     14  C   UNL     1       1.565   3.468  19.337  0.00  0.00    +0.000 C 
ATOM     15  C   UNL     1       2.190   2.069  19.381  0.00  0.00    +0.000 C 
BRANCH  11  16
ATOM     16  O   UNL     1       4.546   1.368  19.228  0.00  0.00    +0.000 OA
ATOM     17  H   UNL     1       5.437   1.595  19.574  0.00  0.00    +0.000 HD
ENDBRANCH  11  16
BRANCH  15  18
ATOM     18  O   UNL     1       2.206   1.435  18.090  0.00  0.00    +0.000 OA
ATOM     19  H   UNL     1       3.121   1.454  17.743  0.00  0.00    +0.000 HD
ENDBRANCH  15  18
BRANCH  14  20
ATOM     20  C   UNL     1       0.467   3.726  20.363  0.00  0.00    +0.000 C 
BRANCH  20  21
ATOM     21  O   UNL     1       0.671   2.878  21.496  0.00  0.00    +0.000 OA
ATOM     22  H   UNL     1       1.635   2.847  21.652  0.00  0.00    +0.000 HD
ENDBRANCH  20  21
ENDBRANCH  14  20
ENDBRANCH   1  12
BRANCH   5  23
ATOM     23  C   UNL     1       7.097   4.865  14.211  0.00  0.00    +0.000 C 
ATOM     24  N   UNL     1       6.490   4.195  13.270  0.00  0.00    +0.000 NA
ATOM     25  N   UNL     1       7.974   5.884  13.874  0.00  0.00    +0.000 N 
ATOM     26  H   UNL     1       5.861   3.491  13.688  0.00  0.00    +0.000 HD
ATOM     27  H   UNL     1       8.633   6.145  14.609  0.00  0.00    +0.000 HD
BRANCH  25  28
ATOM     28  O   UNL     1       8.553   5.707  12.613  0.00  0.00    +0.000 OA
ATOM     29  H   UNL     1       9.508   5.837  12.809  0.00  0.00    +0.000 HD
ENDBRANCH  25  28
ENDBRANCH   5  23
TORSDOF 7
ENDMDL
MODEL 7
REMARK VINA RESULT:      -7.3      3.829      6.747
REMARK  Name = 
REMARK  8 active torsions:
REMARK  status: ('A' for Active; 'I' for Inactive)
REMARK    1  A    between atoms: C_1  and  C_2
REMARK    2  A    between atoms: C_2  and  O_3
REMARK    3  A    between atoms: C_4  and  N_5
REMARK    4  A    between atoms: C_9  and  C_10
REMARK    5  A    between atoms: N_12  and  O_13
REMARK    6  A    between atoms: C_19  and  C_20
REMARK    7  A    between atoms: C_20  and  O_21
REMARK    8  A    between atoms: C_22  and  O_23
REMARK                            x       y       z     vdW  Elec       q    Type
REMARK                         _______ _______ _______ _____ _____    ______ ____
ROOT
ATOM      1  N   UNL     1       2.578   6.046  19.460  0.00  0.00    +0.000 N 
ATOM      2  C   UNL     1       2.119   5.879  20.748  0.00  0.00    +0.000 A 
ATOM      3  N   UNL     1       1.523   6.959  21.208  0.00  0.00    +0.000 NA
ATOM      4  C   UNL     1       1.623   7.886  20.196  0.00  0.00    +0.000 A 
ATOM      5  C   UNL     1       1.254   9.220  20.049  0.00  0.00    +0.000 A 
ATOM      6  N   UNL     1       1.475   9.883  18.875  0.00  0.00    +0.000 NA
ATOM      7  C   UNL     1       2.056   9.199  17.885  0.00  0.00    +0.000 A 
ATOM      8  N   UNL     1       2.524   7.946  17.936  0.00  0.00    +0.000 NA
ATOM      9  C   UNL     1       2.260   7.328  19.096  0.00  0.00    +0.000 A 
ENDROOT
BRANCH   1  12
ATOM     10  C   UNL     1       3.105   3.467  16.707  0.00  0.00    +0.000 C 
ATOM     11  C   UNL     1       2.404   3.996  17.962  0.00  0.00    +0.000 C 
ATOM     12  C   UNL     1       3.288   5.018  18.698  0.00  0.00    +0.000 C 
ATOM     13  O   UNL     1       4.151   4.243  19.562  0.00  0.00    +0.000 OA
ATOM     14  C   UNL     1       3.467   3.007  19.905  0.00  0.00    +0.000 C 
ATOM     15  C   UNL     1       2.242   2.874  18.993  0.00  0.00    +0.000 C 
BRANCH  11  16
ATOM     16  O   UNL     1       1.150   4.532  17.536  0.00  0.00    +0.000 OA
ATOM     17  H   UNL     1       0.459   3.951  17.922  0.00  0.00    +0.000 HD
ENDBRANCH  11  16
BRANCH  15  18
ATOM     18  O   UNL     1       1.008   3.093  19.699  0.00  0.00    +0.000 OA
ATOM     19  H   UNL     1       0.263   2.920  19.089  0.00  0.00    +0.000 HD
ENDBRANCH  15  18
BRANCH  14  20
ATOM     20  C   UNL     1       4.451   1.844  19.851  0.00  0.00    +0.000 C 
BRANCH  20  21
ATOM     21  O   UNL     1       5.140   1.750  21.101  0.00  0.00    +0.000 OA
ATOM     22  H   UNL     1       6.085   1.619  20.889  0.00  0.00    +0.000 HD
ENDBRANCH  20  21
ENDBRANCH  14  20
ENDBRANCH   1  12
BRANCH   5  23
ATOM     23  C   UNL     1       0.655  10.044  21.127  0.00  0.00    +0.000 C 
ATOM     24  N   UNL     1       0.721  11.346  21.166  0.00  0.00    +0.000 NA
ATOM     25  N   UNL     1       0.007   9.356  22.142  0.00  0.00    +0.000 N 
ATOM     26  H   UNL     1       1.215  11.700  20.332  0.00  0.00    +0.000 HD
ATOM     27  H   UNL     1       0.256   8.369  22.220  0.00  0.00    +0.000 HD
BRANCH  25  28
ATOM     28  O   UNL     1       0.006  10.051  23.354  0.00  0.00    +0.000 OA
ATOM     29  H   UNL     1       0.570  10.829  23.143  0.00  0.00    +0.000 HD
ENDBRANCH  25  28
ENDBRANCH   5  23
TORSDOF 7
ENDMDL
MODEL 8
REMARK VINA RESULT:      -7.1      3.936      6.822
REMARK  Name = 
REMARK  8 active torsions:
REMARK  status: ('A' for Active; 'I' for Inactive)
REMARK    1  A    between atoms: C_1  and  C_2
REMARK    2  A    between atoms: C_2  and  O_3
REMARK    3  A    between atoms: C_4  and  N_5
REMARK    4  A    between atoms: C_9  and  C_10
REMARK    5  A    between atoms: N_12  and  O_13
REMARK    6  A    between atoms: C_19  and  C_20
REMARK    7  A    between atoms: C_20  and  O_21
REMARK    8  A    between atoms: C_22  and  O_23
REMARK                            x       y       z     vdW  Elec       q    Type
REMARK                         _______ _______ _______ _____ _____    ______ ____
ROOT
ATOM      1  N   UNL     1       2.406   6.376  19.564  0.00  0.00    +0.000 N 
ATOM      2  C   UNL     1       1.844   6.325  20.820  0.00  0.00    +0.000 A 
ATOM      3  N   UNL     1       1.231   7.447  21.137  0.00  0.00    +0.000 NA
ATOM      4  C   UNL     1       1.427   8.282  20.062  0.00  0.00    +0.000 A 
ATOM      5  C   UNL     1       1.094   9.603  19.774  0.00  0.00    +0.000 A 
ATOM      6  N   UNL     1       1.420  10.161  18.569  0.00  0.00    +0.000 NA
ATOM      7  C   UNL     1       2.066   9.388  17.691  0.00  0.00    +0.000 A 
ATOM      8  N   UNL     1       2.507   8.140  17.886  0.00  0.00    +0.000 NA
ATOM      9  C   UNL     1       2.140   7.626  19.068  0.00  0.00    +0.000 A 
ENDROOT
BRANCH   1  12
ATOM     10  C   UNL     1       3.141   3.612  17.049  0.00  0.00    +0.000 C 
ATOM     11  C   UNL     1       2.324   4.242  18.181  0.00  0.00    +0.000 C 
ATOM     12  C   UNL     1       3.158   5.280  18.952  0.00  0.00    +0.000 C 
ATOM     13  O   UNL     1       3.887   4.534  19.955  0.00  0.00    +0.000 OA
ATOM     14  C   UNL     1       3.120   3.345  20.289  0.00  0.00    +0.000 C 
ATOM     15  C   UNL     1       2.002   3.194  19.251  0.00  0.00    +0.000 C 
BRANCH  11  16
ATOM     16  O   UNL     1       1.148   4.790  17.581  0.00  0.00    +0.000 OA
ATOM     17  H   UNL     1       0.870   5.536  18.157  0.00  0.00    +0.000 HD
ENDBRANCH  11  16
BRANCH  15  18
ATOM     18  O   UNL     1       0.705   3.496  19.796  0.00  0.00    +0.000 OA
ATOM     19  H   UNL     1       0.056   2.860  19.432  0.00  0.00    +0.000 HD
ENDBRANCH  15  18
BRANCH  14  20
ATOM     20  C   UNL     1       4.058   2.150  20.419  0.00  0.00    +0.000 C 
BRANCH  20  21
ATOM     21  O   UNL     1       5.243   2.395  19.658  0.00  0.00    +0.000 OA
ATOM     22  H   UNL     1       5.992   2.071  20.195  0.00  0.00    +0.000 HD
ENDBRANCH  20  21
ENDBRANCH  14  20
ENDBRANCH   1  12
BRANCH   5  23
ATOM     23  C   UNL     1       0.426  10.522  20.726  0.00  0.00    +0.000 C 
ATOM     24  N   UNL     1       0.632  10.507  22.014  0.00  0.00    +0.000 NA
ATOM     25  N   UNL     1      -0.472  11.428  20.182  0.00  0.00    +0.000 N 
ATOM     26  H   UNL     1       1.338   9.793  22.250  0.00  0.00    +0.000 HD
ATOM     27  H   UNL     1      -0.816  11.187  19.252  0.00  0.00    +0.000 HD
BRANCH  25  28
ATOM     28  O   UNL     1      -1.467  11.815  21.085  0.00  0.00    +0.000 OA
ATOM     29  H   UNL     1      -0.972  12.412  21.689  0.00  0.00    +0.000 HD
ENDBRANCH  25  28
ENDBRANCH   5  23
TORSDOF 7
ENDMDL
MODEL 9
REMARK VINA RESULT:      -7.1      1.293      2.308
REMARK  Name = 
REMARK  8 active torsions:
REMARK  status: ('A' for Active; 'I' for Inactive)
REMARK    1  A    between atoms: C_1  and  C_2
REMARK    2  A    between atoms: C_2  and  O_3
REMARK    3  A    between atoms: C_4  and  N_5
REMARK    4  A    between atoms: C_9  and  C_10
REMARK    5  A    between atoms: N_12  and  O_13
REMARK    6  A    between atoms: C_19  and  C_20
REMARK    7  A    between atoms: C_20  and  O_21
REMARK    8  A    between atoms: C_22  and  O_23
REMARK                            x       y       z     vdW  Elec       q    Type
REMARK                         _______ _______ _______ _____ _____    ______ ____
ROOT
ATOM      1  N   UNL     1       3.590   4.698  17.467  0.00  0.00    +0.000 N 
ATOM      2  C   UNL     1       3.546   3.614  16.620  0.00  0.00    +0.000 A 
ATOM      3  N   UNL     1       4.541   3.615  15.757  0.00  0.00    +0.000 NA
ATOM      4  C   UNL     1       5.249   4.764  16.025  0.00  0.00    +0.000 A 
ATOM      5  C   UNL     1       6.361   5.383  15.461  0.00  0.00    +0.000 A 
ATOM      6  N   UNL     1       6.857   6.544  15.983  0.00  0.00    +0.000 NA
ATOM      7  C   UNL     1       6.231   7.052  17.050  0.00  0.00    +0.000 A 
ATOM      8  N   UNL     1       5.114   6.592  17.625  0.00  0.00    +0.000 NA
ATOM      9  C   UNL     1       4.682   5.439  17.097  0.00  0.00    +0.000 A 
ENDROOT
BRANCH   1  12
ATOM     10  C   UNL     1       2.330   5.873  20.865  0.00  0.00    +0.000 C 
ATOM     11  C   UNL     1       3.147   4.943  19.961  0.00  0.00    +0.000 C 
ATOM     12  C   UNL     1       2.608   4.963  18.520  0.00  0.00    +0.000 C 
ATOM     13  O   UNL     1       1.541   3.986  18.485  0.00  0.00    +0.000 OA
ATOM     14  C   UNL     1       1.814   2.972  19.490  0.00  0.00    +0.000 C 
ATOM     15  C   UNL     1       2.950   3.483  20.384  0.00  0.00    +0.000 C 
BRANCH  11  16
ATOM     16  O   UNL     1       4.508   5.363  20.065  0.00  0.00    +0.000 OA
ATOM     17  H   UNL     1       4.484   6.298  20.365  0.00  0.00    +0.000 HD
ENDBRANCH  11  16
BRANCH  15  18
ATOM     18  O   UNL     1       4.184   2.783  20.154  0.00  0.00    +0.000 OA
ATOM     19  H   UNL     1       4.211   2.491  19.220  0.00  0.00    +0.000 HD
ENDBRANCH  15  18
BRANCH  14  20
ATOM     20  C   UNL     1       0.523   2.610  20.216  0.00  0.00    +0.000 C 
BRANCH  20  21
ATOM     21  O   UNL     1       0.744   2.664  21.627  0.00  0.00    +0.000 OA
ATOM     22  H   UNL     1       1.074   1.783  21.892  0.00  0.00    +0.000 HD
ENDBRANCH  20  21
ENDBRANCH  14  20
ENDBRANCH   1  12
BRANCH   5  23
ATOM     23  C   UNL     1       7.062   4.896  14.248  0.00  0.00    +0.000 C 
ATOM     24  N   UNL     1       8.091   5.496  13.715  0.00  0.00    +0.000 NA
ATOM     25  N   UNL     1       6.561   3.740  13.668  0.00  0.00    +0.000 N 
ATOM     26  H   UNL     1       8.347   6.323  14.277  0.00  0.00    +0.000 HD
ATOM     27  H   UNL     1       5.602   3.508  13.932  0.00  0.00    +0.000 HD
BRANCH  25  28
ATOM     28  O   UNL     1       6.819   3.666  12.296  0.00  0.00    +0.000 OA
ATOM     29  H   UNL     1       7.718   4.060  12.238  0.00  0.00    +0.000 HD
ENDBRANCH  25  28
ENDBRANCH   5  23
TORSDOF 7
ENDMDL
