MODEL 1
REMARK VINA RESULT:      -7.9      0.000      0.000
REMARK  Name = 
REMARK  8 active torsions:
REMARK  status: ('A' for Active; 'I' for Inactive)
REMARK    1  A    between atoms: C_1  and  C_2
REMARK    2  A    between atoms: C_2  and  C_4
REMARK    3  A    between atoms: C_5  and  C_6
REMARK    4  A    between atoms: C_7  and  C_8
REMARK    5  A    between atoms: C_12  and  C_13
REMARK    6  A    between atoms: C_12  and  C_14
REMARK    7  A    between atoms: C_18  and  C_19
REMARK    8  A    between atoms: C_18  and  O_20
REMARK                            x       y       z     vdW  Elec       q    Type
REMARK                         _______ _______ _______ _____ _____    ______ ____
ROOT
ATOM      1  C   UNL     1       5.628   4.364  16.791  0.00  0.00    +0.000 C 
ATOM      2  C   UNL     1       4.208   4.815  17.371  0.00  0.00    +0.000 C 
ATOM      3  C   UNL     1       3.894   6.278  16.967  0.00  0.00    +0.000 C 
ATOM      4  C   UNL     1       3.108   3.883  16.782  0.00  0.00    +0.000 C 
ATOM      5  C   UNL     1       1.724   4.102  17.395  0.00  0.00    +0.000 C 
ATOM      6  C   UNL     1       1.737   3.927  18.909  0.00  0.00    +0.000 C 
ATOM      7  C   UNL     1       2.805   4.772  19.651  0.00  0.00    +0.000 C 
ATOM      8  C   UNL     1       2.330   6.232  19.789  0.00  0.00    +0.000 C 
ATOM      9  C   UNL     1       2.874   4.218  21.099  0.00  0.00    +0.000 C 
ATOM     10  C   UNL     1       4.198   4.595  18.934  0.00  0.00    +0.000 C 
ATOM     11  C   UNL     1       5.370   5.333  19.608  0.00  0.00    +0.000 C 
ATOM     12  C   UNL     1       6.703   4.813  19.079  0.00  0.00    +0.000 C 
ATOM     13  C   UNL     1       6.868   4.951  17.556  0.00  0.00    +0.000 C 
ATOM     14  C   UNL     1       7.256   6.390  17.196  0.00  0.00    +0.000 C 
ENDROOT
BRANCH   1  16
ATOM     15  C   UNL     1       6.181   3.625  14.412  0.00  0.00    +0.000 C 
ATOM     16  C   UNL     1       5.749   4.558  15.277  0.00  0.00    +0.000 C 
BRANCH  15  18
ATOM     17  C   UNL     1       5.134   3.262  12.060  0.00  0.00    +0.000 C 
ATOM     18  C   UNL     1       6.226   3.826  12.934  0.00  0.00    +0.000 C 
ATOM     19  O   UNL     1       7.187   4.431  12.454  0.00  0.00    +0.000 OA
ENDBRANCH  15  18
ENDBRANCH   1  16
BRANCH  13  20
ATOM     20  O   UNL     1       8.027   4.166  17.198  0.00  0.00    +0.000 OA
ATOM     21  H   UNL     1       8.505   3.934  18.011  0.00  0.00    +0.000 HD
ENDBRANCH  13  20
TORSDOF 3
ENDMDL
MODEL 2
REMARK VINA RESULT:      -7.4      2.900      4.902
REMARK  Name = 
REMARK  8 active torsions:
REMARK  status: ('A' for Active; 'I' for Inactive)
REMARK    1  A    between atoms: C_1  and  C_2
REMARK    2  A    between atoms: C_2  and  C_4
REMARK    3  A    between atoms: C_5  and  C_6
REMARK    4  A    between atoms: C_7  and  C_8
REMARK    5  A    between atoms: C_12  and  C_13
REMARK    6  A    between atoms: C_12  and  C_14
REMARK    7  A    between atoms: C_18  and  C_19
REMARK    8  A    between atoms: C_18  and  O_20
REMARK                            x       y       z     vdW  Elec       q    Type
REMARK                         _______ _______ _______ _____ _____    ______ ____
ROOT
ATOM      1  C   UNL     1       3.651   6.318  17.303  0.00  0.00    +0.000 C 
ATOM      2  C   UNL     1       3.441   5.217  18.443  0.00  0.00    +0.000 C 
ATOM      3  C   UNL     1       4.243   5.591  19.716  0.00  0.00    +0.000 C 
ATOM      4  C   UNL     1       1.927   5.151  18.804  0.00  0.00    +0.000 C 
ATOM      5  C   UNL     1       1.572   4.012  19.761  0.00  0.00    +0.000 C 
ATOM      6  C   UNL     1       1.990   2.654  19.211  0.00  0.00    +0.000 C 
ATOM      7  C   UNL     1       3.476   2.560  18.775  0.00  0.00    +0.000 C 
ATOM      8  C   UNL     1       4.384   2.380  20.007  0.00  0.00    +0.000 C 
ATOM      9  C   UNL     1       3.612   1.245  17.962  0.00  0.00    +0.000 C 
ATOM     10  C   UNL     1       3.830   3.800  17.867  0.00  0.00    +0.000 C 
ATOM     11  C   UNL     1       5.265   3.801  17.307  0.00  0.00    +0.000 C 
ATOM     12  C   UNL     1       5.394   4.811  16.171  0.00  0.00    +0.000 C 
ATOM     13  C   UNL     1       5.039   6.252  16.572  0.00  0.00    +0.000 C 
ATOM     14  C   UNL     1       6.216   6.897  17.313  0.00  0.00    +0.000 C 
ENDROOT
BRANCH   1  16
ATOM     15  C   UNL     1       2.126   8.339  17.621  0.00  0.00    +0.000 C 
ATOM     16  C   UNL     1       3.319   7.738  17.768  0.00  0.00    +0.000 C 
BRANCH  15  18
ATOM     17  C   UNL     1       0.844   9.872  19.285  0.00  0.00    +0.000 C 
ATOM     18  C   UNL     1       1.817   9.702  18.145  0.00  0.00    +0.000 C 
ATOM     19  O   UNL     1       2.350  10.672  17.602  0.00  0.00    +0.000 OA
ENDBRANCH  15  18
ENDBRANCH   1  16
BRANCH  13  20
ATOM     20  O   UNL     1       4.934   7.004  15.343  0.00  0.00    +0.000 OA
ATOM     21  H   UNL     1       4.192   6.649  14.827  0.00  0.00    +0.000 HD
ENDBRANCH  13  20
TORSDOF 3
ENDMDL
MODEL 3
REMARK VINA RESULT:      -7.1      1.205      1.322
REMARK  Name = 
REMARK  8 active torsions:
REMARK  status: ('A' for Active; 'I' for Inactive)
REMARK    1  A    between atoms: C_1  and  C_2
REMARK    2  A    between atoms: C_2  and  C_4
REMARK    3  A    between atoms: C_5  and  C_6
REMARK    4  A    between atoms: C_7  and  C_8
REMARK    5  A    between atoms: C_12  and  C_13
REMARK    6  A    between atoms: C_12  and  C_14
REMARK    7  A    between atoms: C_18  and  C_19
REMARK    8  A    between atoms: C_18  and  O_20
REMARK                            x       y       z     vdW  Elec       q    Type
REMARK                         _______ _______ _______ _____ _____    ______ ____
ROOT
ATOM      1  C   UNL     1       5.127   4.136  17.147  0.00  0.00    +0.000 C 
ATOM      2  C   UNL     1       3.662   3.872  17.730  0.00  0.00    +0.000 C 
ATOM      3  C   UNL     1       2.671   4.951  17.223  0.00  0.00    +0.000 C 
ATOM      4  C   UNL     1       3.175   2.474  17.245  0.00  0.00    +0.000 C 
ATOM      5  C   UNL     1       1.855   2.030  17.878  0.00  0.00    +0.000 C 
ATOM      6  C   UNL     1       1.932   2.007  19.400  0.00  0.00    +0.000 C 
ATOM      7  C   UNL     1       2.432   3.326  20.044  0.00  0.00    +0.000 C 
ATOM      8  C   UNL     1       1.295   4.367  20.083  0.00  0.00    +0.000 C 
ATOM      9  C   UNL     1       2.745   2.998  21.529  0.00  0.00    +0.000 C 
ATOM     10  C   UNL     1       3.740   3.803  19.305  0.00  0.00    +0.000 C 
ATOM     11  C   UNL     1       4.384   5.075  19.888  0.00  0.00    +0.000 C 
ATOM     12  C   UNL     1       5.807   5.240  19.363  0.00  0.00    +0.000 C 
ATOM     13  C   UNL     1       5.904   5.318  17.830  0.00  0.00    +0.000 C 
ATOM     14  C   UNL     1       5.535   6.727  17.350  0.00  0.00    +0.000 C 
ENDROOT
BRANCH   1  16
ATOM     15  C   UNL     1       6.174   3.837  14.840  0.00  0.00    +0.000 C 
ATOM     16  C   UNL     1       5.158   4.242  15.621  0.00  0.00    +0.000 C 
BRANCH  15  18
ATOM     17  C   UNL     1       4.931   3.409  12.596  0.00  0.00    +0.000 C 
ATOM     18  C   UNL     1       6.144   3.895  13.348  0.00  0.00    +0.000 C 
ATOM     19  O   UNL     1       7.142   4.317  12.759  0.00  0.00    +0.000 OA
ENDBRANCH  15  18
ENDBRANCH   1  16
BRANCH  13  20
ATOM     20  O   UNL     1       7.304   5.182  17.502  0.00  0.00    +0.000 OA
ATOM     21  H   UNL     1       7.791   5.913  17.917  0.00  0.00    +0.000 HD
ENDBRANCH  13  20
TORSDOF 3
ENDMDL
MODEL 4
REMARK VINA RESULT:      -6.6      2.091      4.427
REMARK  Name = 
REMARK  8 active torsions:
REMARK  status: ('A' for Active; 'I' for Inactive)
REMARK    1  A    between atoms: C_1  and  C_2
REMARK    2  A    between atoms: C_2  and  C_4
REMARK    3  A    between atoms: C_5  and  C_6
REMARK    4  A    between atoms: C_7  and  C_8
REMARK    5  A    between atoms: C_12  and  C_13
REMARK    6  A    between atoms: C_12  and  C_14
REMARK    7  A    between atoms: C_18  and  C_19
REMARK    8  A    between atoms: C_18  and  O_20
REMARK                            x       y       z     vdW  Elec       q    Type
REMARK                         _______ _______ _______ _____ _____    ______ ____
ROOT
ATOM      1  C   UNL     1       6.113   6.298  17.198  0.00  0.00    +0.000 C 
ATOM      2  C   UNL     1       4.892   5.858  18.132  0.00  0.00    +0.000 C 
ATOM      3  C   UNL     1       5.413   5.248  19.458  0.00  0.00    +0.000 C 
ATOM      4  C   UNL     1       4.034   7.117  18.460  0.00  0.00    +0.000 C 
ATOM      5  C   UNL     1       2.737   6.799  19.206  0.00  0.00    +0.000 C 
ATOM      6  C   UNL     1       1.864   5.814  18.438  0.00  0.00    +0.000 C 
ATOM      7  C   UNL     1       2.583   4.509  18.008  0.00  0.00    +0.000 C 
ATOM      8  C   UNL     1       2.688   3.539  19.201  0.00  0.00    +0.000 C 
ATOM      9  C   UNL     1       1.648   3.810  16.985  0.00  0.00    +0.000 C 
ATOM     10  C   UNL     1       3.958   4.872  17.328  0.00  0.00    +0.000 C 
ATOM     11  C   UNL     1       4.752   3.666  16.792  0.00  0.00    +0.000 C 
ATOM     12  C   UNL     1       5.854   4.131  15.845  0.00  0.00    +0.000 C 
ATOM     13  C   UNL     1       6.853   5.112  16.482  0.00  0.00    +0.000 C 
ATOM     14  C   UNL     1       7.872   4.347  17.334  0.00  0.00    +0.000 C 
ENDROOT
BRANCH   1  16
ATOM     15  C   UNL     1       7.477   8.442  17.422  0.00  0.00    +0.000 C 
ATOM     16  C   UNL     1       7.094   7.244  17.895  0.00  0.00    +0.000 C 
BRANCH  15  18
ATOM     17  C   UNL     1       8.496  10.814  17.741  0.00  0.00    +0.000 C 
ATOM     18  C   UNL     1       8.387   9.368  18.159  0.00  0.00    +0.000 C 
ATOM     19  O   UNL     1       9.061   8.913  19.086  0.00  0.00    +0.000 OA
ENDBRANCH  15  18
ENDBRANCH   1  16
BRANCH  13  20
ATOM     20  O   UNL     1       7.633   5.661  15.397  0.00  0.00    +0.000 OA
ATOM     21  H   UNL     1       8.025   4.927  14.896  0.00  0.00    +0.000 HD
ENDBRANCH  13  20
TORSDOF 3
ENDMDL
MODEL 5
REMARK VINA RESULT:      -6.6      1.757      2.670
REMARK  Name = 
REMARK  8 active torsions:
REMARK  status: ('A' for Active; 'I' for Inactive)
REMARK    1  A    between atoms: C_1  and  C_2
REMARK    2  A    between atoms: C_2  and  C_4
REMARK    3  A    between atoms: C_5  and  C_6
REMARK    4  A    between atoms: C_7  and  C_8
REMARK    5  A    between atoms: C_12  and  C_13
REMARK    6  A    between atoms: C_12  and  C_14
REMARK    7  A    between atoms: C_18  and  C_19
REMARK    8  A    between atoms: C_18  and  O_20
REMARK                            x       y       z     vdW  Elec       q    Type
REMARK                         _______ _______ _______ _____ _____    ______ ____
ROOT
ATOM      1  C   UNL     1       4.500   5.189  17.645  0.00  0.00    +0.000 C 
ATOM      2  C   UNL     1       3.451   4.042  18.020  0.00  0.00    +0.000 C 
ATOM      3  C   UNL     1       2.275   4.028  17.011  0.00  0.00    +0.000 C 
ATOM      4  C   UNL     1       4.176   2.664  17.968  0.00  0.00    +0.000 C 
ATOM      5  C   UNL     1       3.322   1.501  18.477  0.00  0.00    +0.000 C 
ATOM      6  C   UNL     1       2.837   1.731  19.903  0.00  0.00    +0.000 C 
ATOM      7  C   UNL     1       2.113   3.084  20.132  0.00  0.00    +0.000 C 
ATOM      8  C   UNL     1       0.664   3.008  19.614  0.00  0.00    +0.000 C 
ATOM      9  C   UNL     1       1.997   3.264  21.669  0.00  0.00    +0.000 C 
ATOM     10  C   UNL     1       2.978   4.248  19.512  0.00  0.00    +0.000 C 
ATOM     11  C   UNL     1       2.404   5.661  19.725  0.00  0.00    +0.000 C 
ATOM     12  C   UNL     1       3.466   6.717  19.430  0.00  0.00    +0.000 C 
ATOM     13  C   UNL     1       4.039   6.646  18.004  0.00  0.00    +0.000 C 
ATOM     14  C   UNL     1       3.071   7.305  17.015  0.00  0.00    +0.000 C 
ENDROOT
BRANCH   1  16
ATOM     15  C   UNL     1       6.294   4.930  15.850  0.00  0.00    +0.000 C 
ATOM     16  C   UNL     1       5.009   5.092  16.204  0.00  0.00    +0.000 C 
BRANCH  15  18
ATOM     17  C   UNL     1       6.054   3.796  13.521  0.00  0.00    +0.000 C 
ATOM     18  C   UNL     1       6.748   4.774  14.436  0.00  0.00    +0.000 C 
ATOM     19  O   UNL     1       7.716   5.437  14.055  0.00  0.00    +0.000 OA
ENDBRANCH  15  18
ENDBRANCH   1  16
BRANCH  13  20
ATOM     20  O   UNL     1       5.203   7.501  17.990  0.00  0.00    +0.000 OA
ATOM     21  H   UNL     1       4.911   8.419  17.871  0.00  0.00    +0.000 HD
ENDBRANCH  13  20
TORSDOF 3
ENDMDL
MODEL 6
REMARK VINA RESULT:      -6.4      3.413      6.600
REMARK  Name = 
REMARK  8 active torsions:
REMARK  status: ('A' for Active; 'I' for Inactive)
REMARK    1  A    between atoms: C_1  and  C_2
REMARK    2  A    between atoms: C_2  and  C_4
REMARK    3  A    between atoms: C_5  and  C_6
REMARK    4  A    between atoms: C_7  and  C_8
REMARK    5  A    between atoms: C_12  and  C_13
REMARK    6  A    between atoms: C_12  and  C_14
REMARK    7  A    between atoms: C_18  and  C_19
REMARK    8  A    between atoms: C_18  and  O_20
REMARK                            x       y       z     vdW  Elec       q    Type
REMARK                         _______ _______ _______ _____ _____    ______ ____
ROOT
ATOM      1  C   UNL     1       2.612   5.391  20.217  0.00  0.00    +0.000 C 
ATOM      2  C   UNL     1       3.146   5.554  18.719  0.00  0.00    +0.000 C 
ATOM      3  C   UNL     1       2.009   5.277  17.702  0.00  0.00    +0.000 C 
ATOM      4  C   UNL     1       3.650   7.015  18.523  0.00  0.00    +0.000 C 
ATOM      5  C   UNL     1       4.346   7.251  17.182  0.00  0.00    +0.000 C 
ATOM      6  C   UNL     1       5.526   6.308  16.978  0.00  0.00    +0.000 C 
ATOM      7  C   UNL     1       5.195   4.804  17.168  0.00  0.00    +0.000 C 
ATOM      8  C   UNL     1       4.491   4.250  15.914  0.00  0.00    +0.000 C 
ATOM      9  C   UNL     1       6.556   4.062  17.243  0.00  0.00    +0.000 C 
ATOM     10  C   UNL     1       4.396   4.613  18.514  0.00  0.00    +0.000 C 
ATOM     11  C   UNL     1       4.057   3.151  18.861  0.00  0.00    +0.000 C 
ATOM     12  C   UNL     1       3.628   3.036  20.321  0.00  0.00    +0.000 C 
ATOM     13  C   UNL     1       2.414   3.906  20.687  0.00  0.00    +0.000 C 
ATOM     14  C   UNL     1       1.120   3.225  20.227  0.00  0.00    +0.000 C 
ENDROOT
BRANCH   1  16
ATOM     15  C   UNL     1       1.416   7.519  20.959  0.00  0.00    +0.000 C 
ATOM     16  C   UNL     1       1.381   6.251  20.515  0.00  0.00    +0.000 C 
BRANCH  15  18
ATOM     17  C   UNL     1       0.044   9.674  20.468  0.00  0.00    +0.000 C 
ATOM     18  C   UNL     1       0.196   8.351  21.178  0.00  0.00    +0.000 C 
ATOM     19  O   UNL     1      -0.656   7.944  21.971  0.00  0.00    +0.000 OA
ENDBRANCH  15  18
ENDBRANCH   1  16
BRANCH  13  20
ATOM     20  O   UNL     1       2.329   3.900  22.129  0.00  0.00    +0.000 OA
ATOM     21  H   UNL     1       1.396   3.811  22.383  0.00  0.00    +0.000 HD
ENDBRANCH  13  20
TORSDOF 3
ENDMDL
MODEL 7
REMARK VINA RESULT:      -5.9      1.993      4.081
REMARK  Name = 
REMARK  8 active torsions:
REMARK  status: ('A' for Active; 'I' for Inactive)
REMARK    1  A    between atoms: C_1  and  C_2
REMARK    2  A    between atoms: C_2  and  C_4
REMARK    3  A    between atoms: C_5  and  C_6
REMARK    4  A    between atoms: C_7  and  C_8
REMARK    5  A    between atoms: C_12  and  C_13
REMARK    6  A    between atoms: C_12  and  C_14
REMARK    7  A    between atoms: C_18  and  C_19
REMARK    8  A    between atoms: C_18  and  O_20
REMARK                            x       y       z     vdW  Elec       q    Type
REMARK                         _______ _______ _______ _____ _____    ______ ____
ROOT
ATOM      1  C   UNL     1       5.136   6.063  16.853  0.00  0.00    +0.000 C 
ATOM      2  C   UNL     1       4.380   5.480  18.136  0.00  0.00    +0.000 C 
ATOM      3  C   UNL     1       5.370   5.296  19.314  0.00  0.00    +0.000 C 
ATOM      4  C   UNL     1       3.270   6.486  18.563  0.00  0.00    +0.000 C 
ATOM      5  C   UNL     1       2.361   5.961  19.676  0.00  0.00    +0.000 C 
ATOM      6  C   UNL     1       1.691   4.647  19.292  0.00  0.00    +0.000 C 
ATOM      7  C   UNL     1       2.664   3.539  18.812  0.00  0.00    +0.000 C 
ATOM      8  C   UNL     1       3.356   2.875  20.018  0.00  0.00    +0.000 C 
ATOM      9  C   UNL     1       1.786   2.431  18.173  0.00  0.00    +0.000 C 
ATOM     10  C   UNL     1       3.647   4.141  17.735  0.00  0.00    +0.000 C 
ATOM     11  C   UNL     1       4.632   3.128  17.122  0.00  0.00    +0.000 C 
ATOM     12  C   UNL     1       5.268   3.700  15.859  0.00  0.00    +0.000 C 
ATOM     13  C   UNL     1       6.022   5.022  16.082  0.00  0.00    +0.000 C 
ATOM     14  C   UNL     1       7.405   4.744  16.683  0.00  0.00    +0.000 C 
ENDROOT
BRANCH   1  16
ATOM     15  C   UNL     1       7.154   7.423  17.620  0.00  0.00    +0.000 C 
ATOM     16  C   UNL     1       5.900   7.358  17.142  0.00  0.00    +0.000 C 
BRANCH  15  18
ATOM     17  C   UNL     1       8.907   8.819  18.941  0.00  0.00    +0.000 C 
ATOM     18  C   UNL     1       7.894   8.703  17.829  0.00  0.00    +0.000 C 
ATOM     19  O   UNL     1       7.630   9.658  17.095  0.00  0.00    +0.000 OA
ENDBRANCH  15  18
ENDBRANCH   1  16
BRANCH  13  20
ATOM     20  O   UNL     1       6.303   5.557  14.769  0.00  0.00    +0.000 OA
ATOM     21  H   UNL     1       6.138   4.863  14.111  0.00  0.00    +0.000 HD
ENDBRANCH  13  20
TORSDOF 3
ENDMDL
MODEL 8
REMARK VINA RESULT:      -5.7      8.219     10.495
REMARK  Name = 
REMARK  8 active torsions:
REMARK  status: ('A' for Active; 'I' for Inactive)
REMARK    1  A    between atoms: C_1  and  C_2
REMARK    2  A    between atoms: C_2  and  C_4
REMARK    3  A    between atoms: C_5  and  C_6
REMARK    4  A    between atoms: C_7  and  C_8
REMARK    5  A    between atoms: C_12  and  C_13
REMARK    6  A    between atoms: C_12  and  C_14
REMARK    7  A    between atoms: C_18  and  C_19
REMARK    8  A    between atoms: C_18  and  O_20
REMARK                            x       y       z     vdW  Elec       q    Type
REMARK                         _______ _______ _______ _____ _____    ______ ____
ROOT
ATOM      1  C   UNL     1      10.254  12.204  19.528  0.00  0.00    +0.000 C 
ATOM      2  C   UNL     1       9.441  13.383  20.238  0.00  0.00    +0.000 C 
ATOM      3  C   UNL     1       8.549  14.125  19.211  0.00  0.00    +0.000 C 
ATOM      4  C   UNL     1       8.531  12.768  21.343  0.00  0.00    +0.000 C 
ATOM      5  C   UNL     1       7.829  13.813  22.213  0.00  0.00    +0.000 C 
ATOM      6  C   UNL     1       8.822  14.756  22.883  0.00  0.00    +0.000 C 
ATOM      7  C   UNL     1       9.826  15.434  21.915  0.00  0.00    +0.000 C 
ATOM      8  C   UNL     1       9.152  16.609  21.181  0.00  0.00    +0.000 C 
ATOM      9  C   UNL     1      10.926  16.075  22.803  0.00  0.00    +0.000 C 
ATOM     10  C   UNL     1      10.459  14.340  20.972  0.00  0.00    +0.000 C 
ATOM     11  C   UNL     1      11.529  14.868  19.998  0.00  0.00    +0.000 C 
ATOM     12  C   UNL     1      12.329  13.711  19.407  0.00  0.00    +0.000 C 
ATOM     13  C   UNL     1      11.472  12.676  18.657  0.00  0.00    +0.000 C 
ATOM     14  C   UNL     1      11.132  13.192  17.254  0.00  0.00    +0.000 C 
ENDROOT
BRANCH   1  16
ATOM     15  C   UNL     1       9.325   9.897  18.960  0.00  0.00    +0.000 C 
ATOM     16  C   UNL     1       9.356  11.226  18.767  0.00  0.00    +0.000 C 
BRANCH  15  18
ATOM     17  C   UNL     1       8.294   7.529  18.650  0.00  0.00    +0.000 C 
ATOM     18  C   UNL     1       8.390   8.979  18.245  0.00  0.00    +0.000 C 
ATOM     19  O   UNL     1       7.732   9.430  17.304  0.00  0.00    +0.000 OA
ENDBRANCH  15  18
ENDBRANCH   1  16
BRANCH  13  20
ATOM     20  O   UNL     1      12.326  11.534  18.422  0.00  0.00    +0.000 OA
ATOM     21  H   UNL     1      12.008  11.069  17.632  0.00  0.00    +0.000 HD
ENDBRANCH  13  20
TORSDOF 3
ENDMDL
MODEL 9
REMARK VINA RESULT:      -5.7      2.053      4.002
REMARK  Name = 
REMARK  8 active torsions:
REMARK  status: ('A' for Active; 'I' for Inactive)
REMARK    1  A    between atoms: C_1  and  C_2
REMARK    2  A    between atoms: C_2  and  C_4
REMARK    3  A    between atoms: C_5  and  C_6
REMARK    4  A    between atoms: C_7  and  C_8
REMARK    5  A    between atoms: C_12  and  C_13
REMARK    6  A    between atoms: C_12  and  C_14
REMARK    7  A    between atoms: C_18  and  C_19
REMARK    8  A    between atoms: C_18  and  O_20
REMARK                            x       y       z     vdW  Elec       q    Type
REMARK                         _______ _______ _______ _____ _____    ______ ____
ROOT
ATOM      1  C   UNL     1       4.339   5.671  17.268  0.00  0.00    +0.000 C 
ATOM      2  C   UNL     1       3.694   5.159  18.638  0.00  0.00    +0.000 C 
ATOM      3  C   UNL     1       4.802   4.826  19.670  0.00  0.00    +0.000 C 
ATOM      4  C   UNL     1       2.789   6.286  19.218  0.00  0.00    +0.000 C 
ATOM      5  C   UNL     1       1.978   5.855  20.441  0.00  0.00    +0.000 C 
ATOM      6  C   UNL     1       1.102   4.643  20.146  0.00  0.00    +0.000 C 
ATOM      7  C   UNL     1       1.853   3.433  19.532  0.00  0.00    +0.000 C 
ATOM      8  C   UNL     1       2.610   2.661  20.630  0.00  0.00    +0.000 C 
ATOM      9  C   UNL     1       0.762   2.458  19.014  0.00  0.00    +0.000 C 
ATOM     10  C   UNL     1       2.750   3.931  18.335  0.00  0.00    +0.000 C 
ATOM     11  C   UNL     1       3.506   2.816  17.588  0.00  0.00    +0.000 C 
ATOM     12  C   UNL     1       4.034   3.333  16.252  0.00  0.00    +0.000 C 
ATOM     13  C   UNL     1       4.973   4.544  16.377  0.00  0.00    +0.000 C 
ATOM     14  C   UNL     1       6.378   4.082  16.783  0.00  0.00    +0.000 C 
ENDROOT
BRANCH   1  16
ATOM     15  C   UNL     1       6.627   6.755  17.578  0.00  0.00    +0.000 C 
ATOM     16  C   UNL     1       5.293   6.853  17.455  0.00  0.00    +0.000 C 
BRANCH  15  18
ATOM     17  C   UNL     1       8.575   7.983  18.788  0.00  0.00    +0.000 C 
ATOM     18  C   UNL     1       7.535   7.934  17.695  0.00  0.00    +0.000 C 
ATOM     19  O   UNL     1       7.389   8.867  16.902  0.00  0.00    +0.000 OA
ENDBRANCH  15  18
ENDBRANCH   1  16
BRANCH  13  20
ATOM     20  O   UNL     1       5.140   5.069  15.041  0.00  0.00    +0.000 OA
ATOM     21  H   UNL     1       5.064   4.336  14.410  0.00  0.00    +0.000 HD
ENDBRANCH  13  20
TORSDOF 3
ENDMDL
