MODEL 1
REMARK VINA RESULT:      -7.0      0.000      0.000
REMARK  Name = 
REMARK  6 active torsions:
REMARK  status: ('A' for Active; 'I' for Inactive)
REMARK    1  A    between atoms: C_1  and  C_2
REMARK    2  A    between atoms: C_7  and  C_8
REMARK    3  A    between atoms: N_10  and  C_11
REMARK    4  A    between atoms: C_11  and  C_12
REMARK    5  A    between atoms: C_12  and  C_13
REMARK    6  A    between atoms: C_12  and  C_14
REMARK                            x       y       z     vdW  Elec       q    Type
REMARK                         _______ _______ _______ _____ _____    ______ ____
ROOT
ATOM      1  C   UNL     1       1.416   2.431  21.902  0.00  0.00    +0.000 C 
ATOM      2  C   UNL     1       2.198   3.095  20.814  0.00  0.00    +0.000 A 
ATOM      3  C   UNL     1       3.531   2.772  20.571  0.00  0.00    +0.000 A 
ATOM      4  F   UNL     1       4.134   1.844  21.329  0.00  0.00    +0.000 F 
ATOM      5  C   UNL     1       4.255   3.392  19.552  0.00  0.00    +0.000 A 
ATOM      6  F   UNL     1       5.533   3.021  19.388  0.00  0.00    +0.000 F 
ATOM      7  C   UNL     1       3.664   4.364  18.740  0.00  0.00    +0.000 A 
ATOM      8  C   UNL     1       2.329   4.694  18.983  0.00  0.00    +0.000 A 
ATOM      9  F   UNL     1       1.698   5.620  18.242  0.00  0.00    +0.000 F 
ATOM     10  C   UNL     1       1.612   4.067  20.004  0.00  0.00    +0.000 A 
ATOM     11  F   UNL     1       0.331   4.409  20.209  0.00  0.00    +0.000 F 
ENDROOT
BRANCH   7  12
ATOM     12  C   UNL     1       4.466   5.002  17.662  0.00  0.00    +0.000 C 
ATOM     13  O   UNL     1       4.502   4.506  16.542  0.00  0.00    +0.000 OA
ATOM     14  N   UNL     1       5.160   6.154  17.967  0.00  0.00    +0.000 N 
ATOM     15  H   UNL     1       5.092   6.565  18.892  0.00  0.00    +0.000 HD
BRANCH  14  16
ATOM     16  C   UNL     1       5.957   6.850  16.973  0.00  0.00    +0.000 C 
BRANCH  16  17
ATOM     17  C   UNL     1       7.425   7.020  17.392  0.00  0.00    +0.000 C 
ATOM     18  C   UNL     1       7.768   8.481  17.689  0.00  0.00    +0.000 C 
ATOM     19  C   UNL     1       7.716   6.161  18.626  0.00  0.00    +0.000 C 
ENDBRANCH  16  17
ENDBRANCH  14  16
ENDBRANCH   7  12
TORSDOF 3
ENDMDL
MODEL 2
REMARK VINA RESULT:      -7.0      0.175      2.511
REMARK  Name = 
REMARK  6 active torsions:
REMARK  status: ('A' for Active; 'I' for Inactive)
REMARK    1  A    between atoms: C_1  and  C_2
REMARK    2  A    between atoms: C_7  and  C_8
REMARK    3  A    between atoms: N_10  and  C_11
REMARK    4  A    between atoms: C_11  and  C_12
REMARK    5  A    between atoms: C_12  and  C_13
REMARK    6  A    between atoms: C_12  and  C_14
REMARK                            x       y       z     vdW  Elec       q    Type
REMARK                         _______ _______ _______ _____ _____    ______ ____
ROOT
ATOM      1  C   UNL     1       1.379   2.542  21.813  0.00  0.00    +0.000 C 
ATOM      2  C   UNL     1       2.179   3.208  20.739  0.00  0.00    +0.000 A 
ATOM      3  C   UNL     1       1.631   4.198  19.928  0.00  0.00    +0.000 A 
ATOM      4  F   UNL     1       0.354   4.568  20.109  0.00  0.00    +0.000 F 
ATOM      5  C   UNL     1       2.382   4.819  18.930  0.00  0.00    +0.000 A 
ATOM      6  F   UNL     1       1.775   5.763  18.195  0.00  0.00    +0.000 F 
ATOM      7  C   UNL     1       3.716   4.463  18.709  0.00  0.00    +0.000 A 
ATOM      8  C   UNL     1       4.268   3.467  19.517  0.00  0.00    +0.000 A 
ATOM      9  F   UNL     1       5.543   3.074  19.358  0.00  0.00    +0.000 F 
ATOM     10  C   UNL     1       3.509   2.852  20.514  0.00  0.00    +0.000 A 
ATOM     11  F   UNL     1       4.072   1.899  21.272  0.00  0.00    +0.000 F 
ENDROOT
BRANCH   7  12
ATOM     12  C   UNL     1       4.487   5.147  17.637  0.00  0.00    +0.000 C 
ATOM     13  O   UNL     1       4.352   4.811  16.466  0.00  0.00    +0.000 OA
ATOM     14  N   UNL     1       5.349   6.159  18.005  0.00  0.00    +0.000 N 
ATOM     15  H   UNL     1       5.424   6.443  18.976  0.00  0.00    +0.000 HD
BRANCH  14  16
ATOM     16  C   UNL     1       6.130   6.890  17.023  0.00  0.00    +0.000 C 
BRANCH  16  17
ATOM     17  C   UNL     1       7.584   7.123  17.465  0.00  0.00    +0.000 C 
ATOM     18  C   UNL     1       7.884   8.608  17.678  0.00  0.00    +0.000 C 
ATOM     19  C   UNL     1       7.865   6.350  18.756  0.00  0.00    +0.000 C 
ENDBRANCH  16  17
ENDBRANCH  14  16
ENDBRANCH   7  12
TORSDOF 3
ENDMDL
MODEL 3
REMARK VINA RESULT:      -6.8      3.789      5.204
REMARK  Name = 
REMARK  6 active torsions:
REMARK  status: ('A' for Active; 'I' for Inactive)
REMARK    1  A    between atoms: C_1  and  C_2
REMARK    2  A    between atoms: C_7  and  C_8
REMARK    3  A    between atoms: N_10  and  C_11
REMARK    4  A    between atoms: C_11  and  C_12
REMARK    5  A    between atoms: C_12  and  C_13
REMARK    6  A    between atoms: C_12  and  C_14
REMARK                            x       y       z     vdW  Elec       q    Type
REMARK                         _______ _______ _______ _____ _____    ______ ____
ROOT
ATOM      1  C   UNL     1       2.379   5.767  19.359  0.00  0.00    +0.000 C 
ATOM      2  C   UNL     1       3.342   5.444  18.262  0.00  0.00    +0.000 A 
ATOM      3  C   UNL     1       3.959   6.444  17.514  0.00  0.00    +0.000 A 
ATOM      4  F   UNL     1       3.686   7.730  17.779  0.00  0.00    +0.000 F 
ATOM      5  C   UNL     1       4.860   6.137  16.494  0.00  0.00    +0.000 A 
ATOM      6  F   UNL     1       5.408   7.162  15.824  0.00  0.00    +0.000 F 
ATOM      7  C   UNL     1       5.172   4.810  16.186  0.00  0.00    +0.000 A 
ATOM      8  C   UNL     1       4.553   3.804  16.931  0.00  0.00    +0.000 A 
ATOM      9  F   UNL     1       4.805   2.507  16.688  0.00  0.00    +0.000 F 
ATOM     10  C   UNL     1       3.653   4.120  17.951  0.00  0.00    +0.000 A 
ATOM     11  F   UNL     1       3.077   3.128  18.646  0.00  0.00    +0.000 F 
ENDROOT
BRANCH   7  12
ATOM     12  C   UNL     1       6.139   4.521  15.094  0.00  0.00    +0.000 C 
ATOM     13  O   UNL     1       7.329   4.775  15.237  0.00  0.00    +0.000 OA
ATOM     14  N   UNL     1       5.652   3.967  13.928  0.00  0.00    +0.000 N 
ATOM     15  H   UNL     1       4.668   3.736  13.840  0.00  0.00    +0.000 HD
BRANCH  14  16
ATOM     16  C   UNL     1       6.526   3.641  12.816  0.00  0.00    +0.000 C 
BRANCH  16  17
ATOM     17  C   UNL     1       5.769   3.079  11.602  0.00  0.00    +0.000 C 
ATOM     18  C   UNL     1       5.991   1.574  11.439  0.00  0.00    +0.000 C 
ATOM     19  C   UNL     1       4.272   3.366  11.745  0.00  0.00    +0.000 C 
ENDBRANCH  16  17
ENDBRANCH  14  16
ENDBRANCH   7  12
TORSDOF 3
ENDMDL
MODEL 4
REMARK VINA RESULT:      -6.8      3.121      3.791
REMARK  Name = 
REMARK  6 active torsions:
REMARK  status: ('A' for Active; 'I' for Inactive)
REMARK    1  A    between atoms: C_1  and  C_2
REMARK    2  A    between atoms: C_7  and  C_8
REMARK    3  A    between atoms: N_10  and  C_11
REMARK    4  A    between atoms: C_11  and  C_12
REMARK    5  A    between atoms: C_12  and  C_13
REMARK    6  A    between atoms: C_12  and  C_14
REMARK                            x       y       z     vdW  Elec       q    Type
REMARK                         _______ _______ _______ _____ _____    ______ ____
ROOT
ATOM      1  C   UNL     1       0.998   3.995  19.995  0.00  0.00    +0.000 C 
ATOM      2  C   UNL     1       2.136   4.058  19.027  0.00  0.00    +0.000 A 
ATOM      3  C   UNL     1       2.744   2.904  18.537  0.00  0.00    +0.000 A 
ATOM      4  F   UNL     1       2.303   1.704  18.941  0.00  0.00    +0.000 F 
ATOM      5  C   UNL     1       3.803   2.969  17.632  0.00  0.00    +0.000 A 
ATOM      6  F   UNL     1       4.330   1.809  17.212  0.00  0.00    +0.000 F 
ATOM      7  C   UNL     1       4.293   4.201  17.186  0.00  0.00    +0.000 A 
ATOM      8  C   UNL     1       3.690   5.359  17.678  0.00  0.00    +0.000 A 
ATOM      9  F   UNL     1       4.110   6.576  17.294  0.00  0.00    +0.000 F 
ATOM     10  C   UNL     1       2.629   5.285  18.583  0.00  0.00    +0.000 A 
ATOM     11  F   UNL     1       2.073   6.419  19.035  0.00  0.00    +0.000 F 
ENDROOT
BRANCH   7  12
ATOM     12  C   UNL     1       5.422   4.231  16.219  0.00  0.00    +0.000 C 
ATOM     13  O   UNL     1       6.579   4.150  16.615  0.00  0.00    +0.000 OA
ATOM     14  N   UNL     1       5.123   4.354  14.878  0.00  0.00    +0.000 N 
ATOM     15  H   UNL     1       4.157   4.389  14.568  0.00  0.00    +0.000 HD
BRANCH  14  16
ATOM     16  C   UNL     1       6.162   4.379  13.864  0.00  0.00    +0.000 C 
BRANCH  16  17
ATOM     17  C   UNL     1       5.956   3.322  12.768  0.00  0.00    +0.000 C 
ATOM     18  C   UNL     1       4.647   3.538  12.006  0.00  0.00    +0.000 C 
ATOM     19  C   UNL     1       7.133   3.353  11.789  0.00  0.00    +0.000 C 
ENDBRANCH  16  17
ENDBRANCH  14  16
ENDBRANCH   7  12
TORSDOF 3
ENDMDL
MODEL 5
REMARK VINA RESULT:      -6.7      3.838      4.918
REMARK  Name = 
REMARK  6 active torsions:
REMARK  status: ('A' for Active; 'I' for Inactive)
REMARK    1  A    between atoms: C_1  and  C_2
REMARK    2  A    between atoms: C_7  and  C_8
REMARK    3  A    between atoms: N_10  and  C_11
REMARK    4  A    between atoms: C_11  and  C_12
REMARK    5  A    between atoms: C_12  and  C_13
REMARK    6  A    between atoms: C_12  and  C_14
REMARK                            x       y       z     vdW  Elec       q    Type
REMARK                         _______ _______ _______ _____ _____    ______ ____
ROOT
ATOM      1  C   UNL     1       2.518   6.032  19.545  0.00  0.00    +0.000 C 
ATOM      2  C   UNL     1       3.418   5.649  18.413  0.00  0.00    +0.000 A 
ATOM      3  C   UNL     1       3.731   4.318  18.147  0.00  0.00    +0.000 A 
ATOM      4  F   UNL     1       3.217   3.351  18.922  0.00  0.00    +0.000 F 
ATOM      5  C   UNL     1       4.568   3.966  17.088  0.00  0.00    +0.000 A 
ATOM      6  F   UNL     1       4.817   2.661  16.904  0.00  0.00    +0.000 F 
ATOM      7  C   UNL     1       5.124   4.943  16.257  0.00  0.00    +0.000 A 
ATOM      8  C   UNL     1       4.816   6.279  16.522  0.00  0.00    +0.000 A 
ATOM      9  F   UNL     1       5.317   7.269  15.765  0.00  0.00    +0.000 F 
ATOM     10  C   UNL     1       3.977   6.622  17.584  0.00  0.00    +0.000 A 
ATOM     11  F   UNL     1       3.703   7.915  17.810  0.00  0.00    +0.000 F 
ENDROOT
BRANCH   7  12
ATOM     12  C   UNL     1       6.010   4.530  15.136  0.00  0.00    +0.000 C 
ATOM     13  O   UNL     1       7.227   4.645  15.234  0.00  0.00    +0.000 OA
ATOM     14  N   UNL     1       5.421   4.023  13.997  0.00  0.00    +0.000 N 
ATOM     15  H   UNL     1       4.413   3.908  13.947  0.00  0.00    +0.000 HD
BRANCH  14  16
ATOM     16  C   UNL     1       6.209   3.584  12.861  0.00  0.00    +0.000 C 
BRANCH  16  17
ATOM     17  C   UNL     1       5.477   2.559  11.981  0.00  0.00    +0.000 C 
ATOM     18  C   UNL     1       4.356   3.206  11.165  0.00  0.00    +0.000 C 
ATOM     19  C   UNL     1       6.473   1.877  11.039  0.00  0.00    +0.000 C 
ENDBRANCH  16  17
ENDBRANCH  14  16
ENDBRANCH   7  12
TORSDOF 3
ENDMDL
MODEL 6
REMARK VINA RESULT:      -6.7      1.768      3.259
REMARK  Name = 
REMARK  6 active torsions:
REMARK  status: ('A' for Active; 'I' for Inactive)
REMARK    1  A    between atoms: C_1  and  C_2
REMARK    2  A    between atoms: C_7  and  C_8
REMARK    3  A    between atoms: N_10  and  C_11
REMARK    4  A    between atoms: C_11  and  C_12
REMARK    5  A    between atoms: C_12  and  C_13
REMARK    6  A    between atoms: C_12  and  C_14
REMARK                            x       y       z     vdW  Elec       q    Type
REMARK                         _______ _______ _______ _____ _____    ______ ____
ROOT
ATOM      1  C   UNL     1       1.666   2.543  21.684  0.00  0.00    +0.000 C 
ATOM      2  C   UNL     1       2.338   3.342  20.612  0.00  0.00    +0.000 A 
ATOM      3  C   UNL     1       1.681   4.380  19.956  0.00  0.00    +0.000 A 
ATOM      4  F   UNL     1       0.415   4.674  20.287  0.00  0.00    +0.000 F 
ATOM      5  C   UNL     1       2.312   5.124  18.958  0.00  0.00    +0.000 A 
ATOM      6  F   UNL     1       1.606   6.105  18.378  0.00  0.00    +0.000 F 
ATOM      7  C   UNL     1       3.631   4.849  18.584  0.00  0.00    +0.000 A 
ATOM      8  C   UNL     1       4.291   3.806  19.237  0.00  0.00    +0.000 A 
ATOM      9  F   UNL     1       5.559   3.486  18.926  0.00  0.00    +0.000 F 
ATOM     10  C   UNL     1       3.651   3.067  20.234  0.00  0.00    +0.000 A 
ATOM     11  F   UNL     1       4.317   2.073  20.841  0.00  0.00    +0.000 F 
ENDROOT
BRANCH   7  12
ATOM     12  C   UNL     1       4.273   5.664  17.519  0.00  0.00    +0.000 C 
ATOM     13  O   UNL     1       4.428   6.871  17.672  0.00  0.00    +0.000 OA
ATOM     14  N   UNL     1       4.679   5.023  16.367  0.00  0.00    +0.000 N 
ATOM     15  H   UNL     1       4.569   4.018  16.273  0.00  0.00    +0.000 HD
BRANCH  14  16
ATOM     16  C   UNL     1       5.326   5.738  15.283  0.00  0.00    +0.000 C 
BRANCH  16  17
ATOM     17  C   UNL     1       6.627   5.070  14.813  0.00  0.00    +0.000 C 
ATOM     18  C   UNL     1       7.398   4.444  15.977  0.00  0.00    +0.000 C 
ATOM     19  C   UNL     1       6.311   3.996  13.768  0.00  0.00    +0.000 C 
ENDBRANCH  16  17
ENDBRANCH  14  16
ENDBRANCH   7  12
TORSDOF 3
ENDMDL
MODEL 7
REMARK VINA RESULT:      -6.6      3.184      4.267
REMARK  Name = 
REMARK  6 active torsions:
REMARK  status: ('A' for Active; 'I' for Inactive)
REMARK    1  A    between atoms: C_1  and  C_2
REMARK    2  A    between atoms: C_7  and  C_8
REMARK    3  A    between atoms: N_10  and  C_11
REMARK    4  A    between atoms: C_11  and  C_12
REMARK    5  A    between atoms: C_12  and  C_13
REMARK    6  A    between atoms: C_12  and  C_14
REMARK                            x       y       z     vdW  Elec       q    Type
REMARK                         _______ _______ _______ _____ _____    ______ ____
ROOT
ATOM      1  C   UNL     1       1.391   4.656  20.187  0.00  0.00    +0.000 C 
ATOM      2  C   UNL     1       2.479   4.569  19.164  0.00  0.00    +0.000 A 
ATOM      3  C   UNL     1       3.128   5.706  18.691  0.00  0.00    +0.000 A 
ATOM      4  F   UNL     1       2.773   6.913  19.157  0.00  0.00    +0.000 F 
ATOM      5  C   UNL     1       4.145   5.619  17.739  0.00  0.00    +0.000 A 
ATOM      6  F   UNL     1       4.716   6.764  17.337  0.00  0.00    +0.000 F 
ATOM      7  C   UNL     1       4.545   4.381  17.227  0.00  0.00    +0.000 A 
ATOM      8  C   UNL     1       3.894   3.239  17.696  0.00  0.00    +0.000 A 
ATOM      9  F   UNL     1       4.226   2.018  17.246  0.00  0.00    +0.000 F 
ATOM     10  C   UNL     1       2.878   3.336  18.649  0.00  0.00    +0.000 A 
ATOM     11  F   UNL     1       2.274   2.217  19.078  0.00  0.00    +0.000 F 
ENDROOT
BRANCH   7  12
ATOM     12  C   UNL     1       5.634   4.327  16.215  0.00  0.00    +0.000 C 
ATOM     13  O   UNL     1       6.806   4.273  16.570  0.00  0.00    +0.000 OA
ATOM     14  N   UNL     1       5.281   4.342  14.882  0.00  0.00    +0.000 N 
ATOM     15  H   UNL     1       4.304   4.356  14.609  0.00  0.00    +0.000 HD
BRANCH  14  16
ATOM     16  C   UNL     1       6.278   4.279  13.828  0.00  0.00    +0.000 C 
BRANCH  16  17
ATOM     17  C   UNL     1       5.938   3.248  12.741  0.00  0.00    +0.000 C 
ATOM     18  C   UNL     1       4.622   3.579  12.033  0.00  0.00    +0.000 C 
ATOM     19  C   UNL     1       7.073   3.181  11.715  0.00  0.00    +0.000 C 
ENDBRANCH  16  17
ENDBRANCH  14  16
ENDBRANCH   7  12
TORSDOF 3
ENDMDL
MODEL 8
REMARK VINA RESULT:      -6.6      2.615      5.833
REMARK  Name = 
REMARK  6 active torsions:
REMARK  status: ('A' for Active; 'I' for Inactive)
REMARK    1  A    between atoms: C_1  and  C_2
REMARK    2  A    between atoms: C_7  and  C_8
REMARK    3  A    between atoms: N_10  and  C_11
REMARK    4  A    between atoms: C_11  and  C_12
REMARK    5  A    between atoms: C_12  and  C_13
REMARK    6  A    between atoms: C_12  and  C_14
REMARK                            x       y       z     vdW  Elec       q    Type
REMARK                         _______ _______ _______ _____ _____    ______ ____
ROOT
ATOM      1  C   UNL     1       7.148   5.370  14.413  0.00  0.00    +0.000 C 
ATOM      2  C   UNL     1       6.409   5.061  15.676  0.00  0.00    +0.000 A 
ATOM      3  C   UNL     1       6.824   5.564  16.907  0.00  0.00    +0.000 A 
ATOM      4  F   UNL     1       7.914   6.344  16.968  0.00  0.00    +0.000 F 
ATOM      5  C   UNL     1       6.130   5.275  18.082  0.00  0.00    +0.000 A 
ATOM      6  F   UNL     1       6.599   5.801  19.223  0.00  0.00    +0.000 F 
ATOM      7  C   UNL     1       4.989   4.466  18.062  0.00  0.00    +0.000 A 
ATOM      8  C   UNL     1       4.572   3.956  16.831  0.00  0.00    +0.000 A 
ATOM      9  F   UNL     1       3.486   3.170  16.738  0.00  0.00    +0.000 F 
ATOM     10  C   UNL     1       5.274   4.251  15.660  0.00  0.00    +0.000 A 
ATOM     11  F   UNL     1       4.844   3.744  14.495  0.00  0.00    +0.000 F 
ENDROOT
BRANCH   7  12
ATOM     12  C   UNL     1       4.273   4.182  19.334  0.00  0.00    +0.000 C 
ATOM     13  O   UNL     1       4.673   3.300  20.086  0.00  0.00    +0.000 OA
ATOM     14  N   UNL     1       3.156   4.934  19.630  0.00  0.00    +0.000 N 
ATOM     15  H   UNL     1       2.859   5.680  19.009  0.00  0.00    +0.000 HD
BRANCH  14  16
ATOM     16  C   UNL     1       2.404   4.734  20.856  0.00  0.00    +0.000 C 
BRANCH  16  17
ATOM     17  C   UNL     1       1.213   3.779  20.681  0.00  0.00    +0.000 C 
ATOM     18  C   UNL     1       1.030   3.357  19.221  0.00  0.00    +0.000 C 
ATOM     19  C   UNL     1       1.409   2.538  21.555  0.00  0.00    +0.000 C 
ENDBRANCH  16  17
ENDBRANCH  14  16
ENDBRANCH   7  12
TORSDOF 3
ENDMDL
MODEL 9
REMARK VINA RESULT:      -6.6      3.409      4.964
REMARK  Name = 
REMARK  6 active torsions:
REMARK  status: ('A' for Active; 'I' for Inactive)
REMARK    1  A    between atoms: C_1  and  C_2
REMARK    2  A    between atoms: C_7  and  C_8
REMARK    3  A    between atoms: N_10  and  C_11
REMARK    4  A    between atoms: C_11  and  C_12
REMARK    5  A    between atoms: C_12  and  C_13
REMARK    6  A    between atoms: C_12  and  C_14
REMARK                            x       y       z     vdW  Elec       q    Type
REMARK                         _______ _______ _______ _____ _____    ______ ____
ROOT
ATOM      1  C   UNL     1       3.557   1.561  18.328  0.00  0.00    +0.000 C 
ATOM      2  C   UNL     1       3.194   2.963  18.702  0.00  0.00    +0.000 A 
ATOM      3  C   UNL     1       3.980   4.047  18.320  0.00  0.00    +0.000 A 
ATOM      4  F   UNL     1       5.093   3.835  17.601  0.00  0.00    +0.000 F 
ATOM      5  C   UNL     1       3.635   5.353  18.668  0.00  0.00    +0.000 A 
ATOM      6  F   UNL     1       4.449   6.338  18.260  0.00  0.00    +0.000 F 
ATOM      7  C   UNL     1       2.484   5.617  19.417  0.00  0.00    +0.000 A 
ATOM      8  C   UNL     1       1.695   4.532  19.805  0.00  0.00    +0.000 A 
ATOM      9  F   UNL     1       0.577   4.712  20.527  0.00  0.00    +0.000 F 
ATOM     10  C   UNL     1       2.049   3.228  19.451  0.00  0.00    +0.000 A 
ATOM     11  F   UNL     1       1.267   2.210  19.841  0.00  0.00    +0.000 F 
ENDROOT
BRANCH   7  12
ATOM     12  C   UNL     1       2.147   7.022  19.767  0.00  0.00    +0.000 C 
ATOM     13  O   UNL     1       2.120   7.887  18.899  0.00  0.00    +0.000 OA
ATOM     14  N   UNL     1       1.871   7.312  21.087  0.00  0.00    +0.000 N 
ATOM     15  H   UNL     1       1.869   6.576  21.786  0.00  0.00    +0.000 HD
BRANCH  14  16
ATOM     16  C   UNL     1       1.519   8.654  21.516  0.00  0.00    +0.000 C 
BRANCH  16  17
ATOM     17  C   UNL     1       0.002   8.880  21.595  0.00  0.00    +0.000 C 
ATOM     18  C   UNL     1      -0.415   9.482  22.939  0.00  0.00    +0.000 C 
ATOM     19  C   UNL     1      -0.446   9.801  20.457  0.00  0.00    +0.000 C 
ENDBRANCH  16  17
ENDBRANCH  14  16
ENDBRANCH   7  12
TORSDOF 3
ENDMDL
