MODEL 1
REMARK VINA RESULT:      -6.9      0.000      0.000
REMARK  Name = 
REMARK  5 active torsions:
REMARK  status: ('A' for Active; 'I' for Inactive)
REMARK    1  A    between atoms: C_1  and  C_2
REMARK    2  A    between atoms: C_5  and  O_6
REMARK    3  A    between atoms: O_6  and  C_7
REMARK    4  A    between atoms: C_7  and  C_8
REMARK    5  A    between atoms: C_17  and  N_18
REMARK                            x       y       z     vdW  Elec       q    Type
REMARK                         _______ _______ _______ _____ _____    ______ ____
ROOT
ATOM      1  C   UNL     1       6.261   3.530  12.492  0.00  0.00    +0.000 C 
ATOM      2  C   UNL     1       6.198   4.087  13.860  0.00  0.00    +0.000 A 
ATOM      3  N   UNL     1       5.180   3.737  14.720  0.00  0.00    +0.000 NA
ATOM      4  C   UNL     1       5.406   4.399  15.840  0.00  0.00    +0.000 A 
ATOM      5  C   UNL     1       4.689   4.465  17.085  0.00  0.00    +0.000 A 
ATOM      6  C   UNL     1       5.168   5.257  18.075  0.00  0.00    +0.000 A 
ATOM      7  C   UNL     1       6.376   6.050  17.920  0.00  0.00    +0.000 A 
ATOM      8  C   UNL     1       7.040   5.998  16.757  0.00  0.00    +0.000 A 
ATOM      9  N   UNL     1       6.561   5.184  15.730  0.00  0.00    +0.000 N 
ATOM     10  C   UNL     1       7.067   4.982  14.456  0.00  0.00    +0.000 A 
ENDROOT
BRANCH  10  11
ATOM     11  N   UNL     1       8.182   5.580  13.984  0.00  0.00    +0.000 N 
ATOM     12  H   UNL     1       8.321   5.848  13.015  0.00  0.00    +0.000 HD
ATOM     13  H   UNL     1       8.977   5.771  14.591  0.00  0.00    +0.000 HD
ENDBRANCH  10  11
BRANCH   5  14
ATOM     14  O   UNL     1       3.534   3.697  17.136  0.00  0.00    +0.000 OA
BRANCH  14  15
ATOM     15  C   UNL     1       3.646   2.499  17.910  0.00  0.00    +0.000 C 
BRANCH  15  16
ATOM     16  C   UNL     1       2.935   2.645  19.226  0.00  0.00    +0.000 A 
ATOM     17  C   UNL     1       3.396   2.608  20.527  0.00  0.00    +0.000 A 
ATOM     18  C   UNL     1       2.352   2.820  21.480  0.00  0.00    +0.000 A 
ATOM     19  C   UNL     1       1.130   3.013  20.879  0.00  0.00    +0.000 A 
ATOM     20  S   UNL     1       1.237   2.942  19.179  0.00  0.00    +0.000 S 
ENDBRANCH  15  16
ENDBRANCH  14  15
ENDBRANCH   5  14
TORSDOF 4
ENDMDL
MODEL 2
REMARK VINA RESULT:      -6.8      0.802      1.019
REMARK  Name = 
REMARK  5 active torsions:
REMARK  status: ('A' for Active; 'I' for Inactive)
REMARK    1  A    between atoms: C_1  and  C_2
REMARK    2  A    between atoms: C_5  and  O_6
REMARK    3  A    between atoms: O_6  and  C_7
REMARK    4  A    between atoms: C_7  and  C_8
REMARK    5  A    between atoms: C_17  and  N_18
REMARK                            x       y       z     vdW  Elec       q    Type
REMARK                         _______ _______ _______ _____ _____    ______ ____
ROOT
ATOM      1  C   UNL     1       6.391   3.529  12.362  0.00  0.00    +0.000 C 
ATOM      2  C   UNL     1       6.295   4.095  13.724  0.00  0.00    +0.000 A 
ATOM      3  N   UNL     1       5.265   3.738  14.567  0.00  0.00    +0.000 NA
ATOM      4  C   UNL     1       5.461   4.411  15.687  0.00  0.00    +0.000 A 
ATOM      5  C   UNL     1       4.718   4.476  16.917  0.00  0.00    +0.000 A 
ATOM      6  C   UNL     1       5.168   5.281  17.911  0.00  0.00    +0.000 A 
ATOM      7  C   UNL     1       6.370   6.087  17.774  0.00  0.00    +0.000 A 
ATOM      8  C   UNL     1       7.057   6.036  16.624  0.00  0.00    +0.000 A 
ATOM      9  N   UNL     1       6.608   5.209  15.593  0.00  0.00    +0.000 N 
ATOM     10  C   UNL     1       7.141   5.005  14.331  0.00  0.00    +0.000 A 
ENDROOT
BRANCH  10  11
ATOM     11  N   UNL     1       8.257   5.613  13.876  0.00  0.00    +0.000 N 
ATOM     12  H   UNL     1       8.539   6.555  14.128  0.00  0.00    +0.000 HD
ATOM     13  H   UNL     1       8.877   5.152  13.212  0.00  0.00    +0.000 HD
ENDBRANCH  10  11
BRANCH   5  14
ATOM     14  O   UNL     1       3.572   3.694  16.951  0.00  0.00    +0.000 OA
BRANCH  14  15
ATOM     15  C   UNL     1       3.568   2.682  17.963  0.00  0.00    +0.000 C 
BRANCH  15  16
ATOM     16  C   UNL     1       2.651   3.060  19.092  0.00  0.00    +0.000 A 
ATOM     17  C   UNL     1       1.421   3.688  19.104  0.00  0.00    +0.000 A 
ATOM     18  C   UNL     1       0.893   3.826  20.425  0.00  0.00    +0.000 A 
ATOM     19  C   UNL     1       1.734   3.299  21.378  0.00  0.00    +0.000 A 
ATOM     20  S   UNL     1       3.148   2.642  20.689  0.00  0.00    +0.000 S 
ENDBRANCH  15  16
ENDBRANCH  14  15
ENDBRANCH   5  14
TORSDOF 4
ENDMDL
MODEL 3
REMARK VINA RESULT:      -6.5      1.775      2.450
REMARK  Name = 
REMARK  5 active torsions:
REMARK  status: ('A' for Active; 'I' for Inactive)
REMARK    1  A    between atoms: C_1  and  C_2
REMARK    2  A    between atoms: C_5  and  O_6
REMARK    3  A    between atoms: O_6  and  C_7
REMARK    4  A    between atoms: C_7  and  C_8
REMARK    5  A    between atoms: C_17  and  N_18
REMARK                            x       y       z     vdW  Elec       q    Type
REMARK                         _______ _______ _______ _____ _____    ______ ____
ROOT
ATOM      1  C   UNL     1       7.096   4.477  15.126  0.00  0.00    +0.000 C 
ATOM      2  C   UNL     1       5.935   4.916  15.930  0.00  0.00    +0.000 A 
ATOM      3  N   UNL     1       4.847   4.089  16.110  0.00  0.00    +0.000 NA
ATOM      4  C   UNL     1       3.995   4.767  16.858  0.00  0.00    +0.000 A 
ATOM      5  C   UNL     1       2.685   4.449  17.360  0.00  0.00    +0.000 A 
ATOM      6  C   UNL     1       2.031   5.369  18.111  0.00  0.00    +0.000 A 
ATOM      7  C   UNL     1       2.604   6.668  18.421  0.00  0.00    +0.000 A 
ATOM      8  C   UNL     1       3.820   6.970  17.945  0.00  0.00    +0.000 A 
ATOM      9  N   UNL     1       4.506   6.032  17.173  0.00  0.00    +0.000 N 
ATOM     10  C   UNL     1       5.752   6.125  16.574  0.00  0.00    +0.000 A 
ENDROOT
BRANCH  10  11
ATOM     11  N   UNL     1       6.550   7.211  16.657  0.00  0.00    +0.000 N 
ATOM     12  H   UNL     1       7.498   7.200  17.020  0.00  0.00    +0.000 HD
ATOM     13  H   UNL     1       6.218   8.133  16.377  0.00  0.00    +0.000 HD
ENDBRANCH  10  11
BRANCH   5  14
ATOM     14  O   UNL     1       2.206   3.199  16.995  0.00  0.00    +0.000 OA
BRANCH  14  15
ATOM     15  C   UNL     1       2.647   2.122  17.828  0.00  0.00    +0.000 C 
BRANCH  15  16
ATOM     16  C   UNL     1       2.309   2.388  19.268  0.00  0.00    +0.000 A 
ATOM     17  C   UNL     1       1.096   2.516  19.917  0.00  0.00    +0.000 A 
ATOM     18  C   UNL     1       1.250   2.747  21.318  0.00  0.00    +0.000 A 
ATOM     19  C   UNL     1       2.573   2.787  21.697  0.00  0.00    +0.000 A 
ATOM     20  S   UNL     1       3.622   2.546  20.374  0.00  0.00    +0.000 S 
ENDBRANCH  15  16
ENDBRANCH  14  15
ENDBRANCH   5  14
TORSDOF 4
ENDMDL
MODEL 4
REMARK VINA RESULT:      -6.4      1.290      1.545
REMARK  Name = 
REMARK  5 active torsions:
REMARK  status: ('A' for Active; 'I' for Inactive)
REMARK    1  A    between atoms: C_1  and  C_2
REMARK    2  A    between atoms: C_5  and  O_6
REMARK    3  A    between atoms: O_6  and  C_7
REMARK    4  A    between atoms: C_7  and  C_8
REMARK    5  A    between atoms: C_17  and  N_18
REMARK                            x       y       z     vdW  Elec       q    Type
REMARK                         _______ _______ _______ _____ _____    ______ ____
ROOT
ATOM      1  C   UNL     1       5.888   3.310  13.397  0.00  0.00    +0.000 C 
ATOM      2  C   UNL     1       6.211   3.992  14.668  0.00  0.00    +0.000 A 
ATOM      3  N   UNL     1       5.598   3.621  15.845  0.00  0.00    +0.000 NA
ATOM      4  C   UNL     1       6.093   4.413  16.779  0.00  0.00    +0.000 A 
ATOM      5  C   UNL     1       5.832   4.525  18.189  0.00  0.00    +0.000 A 
ATOM      6  C   UNL     1       6.502   5.460  18.906  0.00  0.00    +0.000 A 
ATOM      7  C   UNL     1       7.469   6.359  18.299  0.00  0.00    +0.000 A 
ATOM      8  C   UNL     1       7.705   6.264  16.983  0.00  0.00    +0.000 A 
ATOM      9  N   UNL     1       7.026   5.304  16.232  0.00  0.00    +0.000 N 
ATOM     10  C   UNL     1       7.099   5.031  14.876  0.00  0.00    +0.000 A 
ENDROOT
BRANCH  10  11
ATOM     11  N   UNL     1       7.898   5.697  14.015  0.00  0.00    +0.000 N 
ATOM     12  H   UNL     1       7.877   6.702  13.873  0.00  0.00    +0.000 HD
ATOM     13  H   UNL     1       8.564   5.203  13.423  0.00  0.00    +0.000 HD
ENDBRANCH  10  11
BRANCH   5  14
ATOM     14  O   UNL     1       4.878   3.645  18.679  0.00  0.00    +0.000 OA
BRANCH  14  15
ATOM     15  C   UNL     1       4.041   4.181  19.708  0.00  0.00    +0.000 C 
BRANCH  15  16
ATOM     16  C   UNL     1       2.650   3.622  19.609  0.00  0.00    +0.000 A 
ATOM     17  C   UNL     1       1.488   3.927  20.291  0.00  0.00    +0.000 A 
ATOM     18  C   UNL     1       0.376   3.146  19.848  0.00  0.00    +0.000 A 
ATOM     19  C   UNL     1       0.721   2.272  18.843  0.00  0.00    +0.000 A 
ATOM     20  S   UNL     1       2.372   2.392  18.433  0.00  0.00    +0.000 S 
ENDBRANCH  15  16
ENDBRANCH  14  15
ENDBRANCH   5  14
TORSDOF 4
ENDMDL
MODEL 5
REMARK VINA RESULT:      -6.4      4.130      5.619
REMARK  Name = 
REMARK  5 active torsions:
REMARK  status: ('A' for Active; 'I' for Inactive)
REMARK    1  A    between atoms: C_1  and  C_2
REMARK    2  A    between atoms: C_5  and  O_6
REMARK    3  A    between atoms: O_6  and  C_7
REMARK    4  A    between atoms: C_7  and  C_8
REMARK    5  A    between atoms: C_17  and  N_18
REMARK                            x       y       z     vdW  Elec       q    Type
REMARK                         _______ _______ _______ _____ _____    ______ ____
ROOT
ATOM      1  C   UNL     1       1.791   2.511  20.690  0.00  0.00    +0.000 C 
ATOM      2  C   UNL     1       2.692   3.386  19.909  0.00  0.00    +0.000 A 
ATOM      3  N   UNL     1       2.231   4.561  19.356  0.00  0.00    +0.000 NA
ATOM      4  C   UNL     1       3.262   5.097  18.728  0.00  0.00    +0.000 A 
ATOM      5  C   UNL     1       3.402   6.299  17.952  0.00  0.00    +0.000 A 
ATOM      6  C   UNL     1       4.610   6.592  17.410  0.00  0.00    +0.000 A 
ATOM      7  C   UNL     1       5.767   5.728  17.579  0.00  0.00    +0.000 A 
ATOM      8  C   UNL     1       5.636   4.602  18.293  0.00  0.00    +0.000 A 
ATOM      9  N   UNL     1       4.399   4.289  18.860  0.00  0.00    +0.000 N 
ATOM     10  C   UNL     1       4.029   3.191  19.618  0.00  0.00    +0.000 A 
ENDROOT
BRANCH  10  11
ATOM     11  N   UNL     1       4.869   2.187  19.952  0.00  0.00    +0.000 N 
ATOM     12  H   UNL     1       4.644   1.446  20.608  0.00  0.00    +0.000 HD
ATOM     13  H   UNL     1       5.813   2.139  19.571  0.00  0.00    +0.000 HD
ENDBRANCH  10  11
BRANCH   5  14
ATOM     14  O   UNL     1       2.242   7.050  17.821  0.00  0.00    +0.000 OA
BRANCH  14  15
ATOM     15  C   UNL     1       2.369   8.421  18.212  0.00  0.00    +0.000 C 
BRANCH  15  16
ATOM     16  C   UNL     1       1.553   8.702  19.442  0.00  0.00    +0.000 A 
ATOM     17  C   UNL     1       1.494   8.071  20.669  0.00  0.00    +0.000 A 
ATOM     18  C   UNL     1       0.578   8.704  21.564  0.00  0.00    +0.000 A 
ATOM     19  C   UNL     1      -0.032   9.799  20.996  0.00  0.00    +0.000 A 
ATOM     20  S   UNL     1       0.496  10.064  19.396  0.00  0.00    +0.000 S 
ENDBRANCH  15  16
ENDBRANCH  14  15
ENDBRANCH   5  14
TORSDOF 4
ENDMDL
MODEL 6
REMARK VINA RESULT:      -6.3      1.881      1.980
REMARK  Name = 
REMARK  5 active torsions:
REMARK  status: ('A' for Active; 'I' for Inactive)
REMARK    1  A    between atoms: C_1  and  C_2
REMARK    2  A    between atoms: C_5  and  O_6
REMARK    3  A    between atoms: O_6  and  C_7
REMARK    4  A    between atoms: C_7  and  C_8
REMARK    5  A    between atoms: C_17  and  N_18
REMARK                            x       y       z     vdW  Elec       q    Type
REMARK                         _______ _______ _______ _____ _____    ______ ____
ROOT
ATOM      1  C   UNL     1       5.843   3.618  12.798  0.00  0.00    +0.000 C 
ATOM      2  C   UNL     1       6.039   4.080  14.189  0.00  0.00    +0.000 A 
ATOM      3  N   UNL     1       5.183   3.681  15.193  0.00  0.00    +0.000 NA
ATOM      4  C   UNL     1       5.620   4.262  16.296  0.00  0.00    +0.000 A 
ATOM      5  C   UNL     1       5.138   4.248  17.651  0.00  0.00    +0.000 A 
ATOM      6  C   UNL     1       5.804   4.965  18.590  0.00  0.00    +0.000 A 
ATOM      7  C   UNL     1       6.983   5.754  18.273  0.00  0.00    +0.000 A 
ATOM      8  C   UNL     1       7.427   5.777  17.009  0.00  0.00    +0.000 A 
ATOM      9  N   UNL     1       6.753   5.041  16.032  0.00  0.00    +0.000 N 
ATOM     10  C   UNL     1       7.020   4.922  14.678  0.00  0.00    +0.000 A 
ENDROOT
BRANCH  10  11
ATOM     11  N   UNL     1       8.045   5.540  14.054  0.00  0.00    +0.000 N 
ATOM     12  H   UNL     1       8.451   5.232  13.176  0.00  0.00    +0.000 HD
ATOM     13  H   UNL     1       8.497   6.357  14.462  0.00  0.00    +0.000 HD
ENDBRANCH  10  11
BRANCH   5  14
ATOM     14  O   UNL     1       3.994   3.490  17.858  0.00  0.00    +0.000 OA
BRANCH  14  15
ATOM     15  C   UNL     1       2.767   4.168  17.573  0.00  0.00    +0.000 C 
BRANCH  15  16
ATOM     16  C   UNL     1       2.409   5.114  18.685  0.00  0.00    +0.000 A 
ATOM     17  C   UNL     1       1.949   4.890  19.968  0.00  0.00    +0.000 A 
ATOM     18  C   UNL     1       1.760   6.103  20.698  0.00  0.00    +0.000 A 
ATOM     19  C   UNL     1       2.081   7.214  19.952  0.00  0.00    +0.000 A 
ATOM     20  S   UNL     1       2.609   6.800  18.385  0.00  0.00    +0.000 S 
ENDBRANCH  15  16
ENDBRANCH  14  15
ENDBRANCH   5  14
TORSDOF 4
ENDMDL
MODEL 7
REMARK VINA RESULT:      -6.3      2.765      4.290
REMARK  Name = 
REMARK  5 active torsions:
REMARK  status: ('A' for Active; 'I' for Inactive)
REMARK    1  A    between atoms: C_1  and  C_2
REMARK    2  A    between atoms: C_5  and  O_6
REMARK    3  A    between atoms: O_6  and  C_7
REMARK    4  A    between atoms: C_7  and  C_8
REMARK    5  A    between atoms: C_17  and  N_18
REMARK                            x       y       z     vdW  Elec       q    Type
REMARK                         _______ _______ _______ _____ _____    ______ ____
ROOT
ATOM      1  C   UNL     1       1.647   7.599  20.415  0.00  0.00    +0.000 C 
ATOM      2  C   UNL     1       2.622   7.026  19.461  0.00  0.00    +0.000 A 
ATOM      3  N   UNL     1       3.329   5.886  19.774  0.00  0.00    +0.000 NA
ATOM      4  C   UNL     1       4.105   5.642  18.733  0.00  0.00    +0.000 A 
ATOM      5  C   UNL     1       5.078   4.616  18.473  0.00  0.00    +0.000 A 
ATOM      6  C   UNL     1       5.742   4.627  17.291  0.00  0.00    +0.000 A 
ATOM      7  C   UNL     1       5.512   5.646  16.281  0.00  0.00    +0.000 A 
ATOM      8  C   UNL     1       4.614   6.611  16.526  0.00  0.00    +0.000 A 
ATOM      9  N   UNL     1       3.920   6.609  17.738  0.00  0.00    +0.000 N 
ATOM     10  C   UNL     1       2.967   7.497  18.208  0.00  0.00    +0.000 A 
ENDROOT
BRANCH  10  11
ATOM     11  N   UNL     1       2.529   8.571  17.517  0.00  0.00    +0.000 N 
ATOM     12  H   UNL     1       1.573   8.699  17.201  0.00  0.00    +0.000 HD
ATOM     13  H   UNL     1       3.166   9.318  17.242  0.00  0.00    +0.000 HD
ENDBRANCH  10  11
BRANCH   5  14
ATOM     14  O   UNL     1       5.252   3.700  19.501  0.00  0.00    +0.000 OA
BRANCH  14  15
ATOM     15  C   UNL     1       4.532   2.474  19.339  0.00  0.00    +0.000 C 
BRANCH  15  16
ATOM     16  C   UNL     1       3.144   2.591  19.902  0.00  0.00    +0.000 A 
ATOM     17  C   UNL     1       2.688   2.731  21.198  0.00  0.00    +0.000 A 
ATOM     18  C   UNL     1       1.264   2.829  21.266  0.00  0.00    +0.000 A 
ATOM     19  C   UNL     1       0.677   2.764  20.023  0.00  0.00    +0.000 A 
ATOM     20  S   UNL     1       1.833   2.587  18.782  0.00  0.00    +0.000 S 
ENDBRANCH  15  16
ENDBRANCH  14  15
ENDBRANCH   5  14
TORSDOF 4
ENDMDL
MODEL 8
REMARK VINA RESULT:      -6.3      3.417      6.011
REMARK  Name = 
REMARK  5 active torsions:
REMARK  status: ('A' for Active; 'I' for Inactive)
REMARK    1  A    between atoms: C_1  and  C_2
REMARK    2  A    between atoms: C_5  and  O_6
REMARK    3  A    between atoms: O_6  and  C_7
REMARK    4  A    between atoms: C_7  and  C_8
REMARK    5  A    between atoms: C_17  and  N_18
REMARK                            x       y       z     vdW  Elec       q    Type
REMARK                         _______ _______ _______ _____ _____    ______ ____
ROOT
ATOM      1  C   UNL     1       2.547   8.623  17.938  0.00  0.00    +0.000 C 
ATOM      2  C   UNL     1       2.441   7.308  18.606  0.00  0.00    +0.000 A 
ATOM      3  N   UNL     1       2.674   6.142  17.911  0.00  0.00    +0.000 NA
ATOM      4  C   UNL     1       2.495   5.160  18.777  0.00  0.00    +0.000 A 
ATOM      5  C   UNL     1       2.572   3.730  18.645  0.00  0.00    +0.000 A 
ATOM      6  C   UNL     1       2.323   2.958  19.732  0.00  0.00    +0.000 A 
ATOM      7  C   UNL     1       1.970   3.525  21.022  0.00  0.00    +0.000 A 
ATOM      8  C   UNL     1       1.887   4.857  21.144  0.00  0.00    +0.000 A 
ATOM      9  N   UNL     1       2.145   5.664  20.035  0.00  0.00    +0.000 N 
ATOM     10  C   UNL     1       2.110   7.044  19.922  0.00  0.00    +0.000 A 
ENDROOT
BRANCH  10  11
ATOM     11  N   UNL     1       1.804   7.877  20.940  0.00  0.00    +0.000 N 
ATOM     12  H   UNL     1       1.242   7.617  21.744  0.00  0.00    +0.000 HD
ATOM     13  H   UNL     1       2.108   8.850  20.937  0.00  0.00    +0.000 HD
ENDBRANCH  10  11
BRANCH   5  14
ATOM     14  O   UNL     1       2.890   3.275  17.373  0.00  0.00    +0.000 OA
BRANCH  14  15
ATOM     15  C   UNL     1       4.227   2.786  17.228  0.00  0.00    +0.000 C 
BRANCH  15  16
ATOM     16  C   UNL     1       5.118   3.839  16.632  0.00  0.00    +0.000 A 
ATOM     17  C   UNL     1       5.240   4.316  15.342  0.00  0.00    +0.000 A 
ATOM     18  C   UNL     1       6.217   5.353  15.235  0.00  0.00    +0.000 A 
ATOM     19  C   UNL     1       6.810   5.636  16.444  0.00  0.00    +0.000 A 
ATOM     20  S   UNL     1       6.192   4.662  17.700  0.00  0.00    +0.000 S 
ENDBRANCH  15  16
ENDBRANCH  14  15
ENDBRANCH   5  14
TORSDOF 4
ENDMDL
MODEL 9
REMARK VINA RESULT:      -6.2      5.667      7.446
REMARK  Name = 
REMARK  5 active torsions:
REMARK  status: ('A' for Active; 'I' for Inactive)
REMARK    1  A    between atoms: C_1  and  C_2
REMARK    2  A    between atoms: C_5  and  O_6
REMARK    3  A    between atoms: O_6  and  C_7
REMARK    4  A    between atoms: C_7  and  C_8
REMARK    5  A    between atoms: C_17  and  N_18
REMARK                            x       y       z     vdW  Elec       q    Type
REMARK                         _______ _______ _______ _____ _____    ______ ____
ROOT
ATOM      1  C   UNL     1      -0.298   9.619  23.269  0.00  0.00    +0.000 C 
ATOM      2  C   UNL     1       0.273   9.451  21.916  0.00  0.00    +0.000 A 
ATOM      3  N   UNL     1       0.992   8.322  21.588  0.00  0.00    +0.000 NA
ATOM      4  C   UNL     1       1.362   8.479  20.330  0.00  0.00    +0.000 A 
ATOM      5  C   UNL     1       2.143   7.659  19.444  0.00  0.00    +0.000 A 
ATOM      6  C   UNL     1       2.372   8.095  18.180  0.00  0.00    +0.000 A 
ATOM      7  C   UNL     1       1.862   9.365  17.692  0.00  0.00    +0.000 A 
ATOM      8  C   UNL     1       1.143  10.136  18.520  0.00  0.00    +0.000 A 
ATOM      9  N   UNL     1       0.897   9.699  19.823  0.00  0.00    +0.000 N 
ATOM     10  C   UNL     1       0.198  10.321  20.844  0.00  0.00    +0.000 A 
ENDROOT
BRANCH  10  11
ATOM     11  N   UNL     1      -0.397  11.527  20.726  0.00  0.00    +0.000 N 
ATOM     12  H   UNL     1      -0.946  11.819  19.923  0.00  0.00    +0.000 HD
ATOM     13  H   UNL     1      -0.296  12.240  21.447  0.00  0.00    +0.000 HD
ENDBRANCH  10  11
BRANCH   5  14
ATOM     14  O   UNL     1       2.611   6.476  19.999  0.00  0.00    +0.000 OA
BRANCH  14  15
ATOM     15  C   UNL     1       3.469   5.713  19.147  0.00  0.00    +0.000 C 
BRANCH  15  16
ATOM     16  C   UNL     1       2.848   4.386  18.813  0.00  0.00    +0.000 A 
ATOM     17  C   UNL     1       1.540   3.945  18.871  0.00  0.00    +0.000 A 
ATOM     18  C   UNL     1       1.401   2.593  18.431  0.00  0.00    +0.000 A 
ATOM     19  C   UNL     1       2.604   2.044  18.049  0.00  0.00    +0.000 A 
ATOM     20  S   UNL     1       3.891   3.150  18.218  0.00  0.00    +0.000 S 
ENDBRANCH  15  16
ENDBRANCH  14  15
ENDBRANCH   5  14
TORSDOF 4
ENDMDL
