MODEL 1
REMARK VINA RESULT:      -6.3      0.000      0.000
REMARK  Name = 
REMARK  2 active torsions:
REMARK  status: ('A' for Active; 'I' for Inactive)
REMARK    1  A    between atoms: C_5  and  O_6
REMARK    2  A    between atoms: O_6  and  C_7
REMARK                            x       y       z     vdW  Elec       q    Type
REMARK                         _______ _______ _______ _____ _____    ______ ____
ROOT
ATOM      1 CL   UNL     1       7.819   8.106  17.538  0.00  0.00    +0.000 Cl
ATOM      2  C   UNL     1       6.725   6.770  17.519  0.00  0.00    +0.000 A 
ATOM      3  C   UNL     1       5.697   6.778  16.569  0.00  0.00    +0.000 A 
ATOM      4  C   UNL     1       4.802   5.708  16.488  0.00  0.00    +0.000 A 
ATOM      5  C   UNL     1       4.946   4.615  17.342  0.00  0.00    +0.000 A 
ATOM      6  C   UNL     1       5.945   4.627  18.318  0.00  0.00    +0.000 A 
ATOM      7  C   UNL     1       6.842   5.692  18.404  0.00  0.00    +0.000 A 
ATOM      8 CL   UNL     1       8.074   5.612  19.613  0.00  0.00    +0.000 Cl
ENDROOT
BRANCH   5   9
ATOM      9  O   UNL     1       4.176   3.491  17.334  0.00  0.00    +0.000 OA
BRANCH   9  10
ATOM     10  C   UNL     1       3.218   3.321  18.379  0.00  0.00    +0.000 C 
ATOM     11  C   UNL     1       1.811   3.763  17.991  0.00  0.00    +0.000 C 
ATOM     12  C   UNL     1       0.926   2.809  18.762  0.00  0.00    +0.000 C 
ATOM     13  N   UNL     1       1.597   1.514  18.629  0.00  0.00    +0.000 NA
ATOM     14  C   UNL     1       3.042   1.814  18.641  0.00  0.00    +0.000 C 
ATOM     15  H   UNL     1       1.365   1.126  17.713  0.00  0.00    +0.000 HD
ENDBRANCH   9  10
ENDBRANCH   5   9
TORSDOF 2
ENDMDL
MODEL 2
REMARK VINA RESULT:      -6.2      3.789      5.742
REMARK  Name = 
REMARK  2 active torsions:
REMARK  status: ('A' for Active; 'I' for Inactive)
REMARK    1  A    between atoms: C_5  and  O_6
REMARK    2  A    between atoms: O_6  and  C_7
REMARK                            x       y       z     vdW  Elec       q    Type
REMARK                         _______ _______ _______ _____ _____    ______ ____
ROOT
ATOM      1 CL   UNL     1       0.409   2.487  18.909  0.00  0.00    +0.000 Cl
ATOM      2  C   UNL     1       2.074   2.938  18.808  0.00  0.00    +0.000 A 
ATOM      3  C   UNL     1       2.699   2.854  17.557  0.00  0.00    +0.000 A 
ATOM      4  C   UNL     1       4.035   3.237  17.410  0.00  0.00    +0.000 A 
ATOM      5  C   UNL     1       4.744   3.723  18.508  0.00  0.00    +0.000 A 
ATOM      6  C   UNL     1       4.132   3.765  19.762  0.00  0.00    +0.000 A 
ATOM      7  C   UNL     1       2.799   3.386  19.916  0.00  0.00    +0.000 A 
ATOM      8 CL   UNL     1       2.105   3.505  21.494  0.00  0.00    +0.000 Cl
ENDROOT
BRANCH   5   9
ATOM      9  O   UNL     1       6.030   4.173  18.489  0.00  0.00    +0.000 OA
BRANCH   9  10
ATOM     10  C   UNL     1       6.252   5.583  18.446  0.00  0.00    +0.000 C 
ATOM     11  C   UNL     1       7.621   5.999  18.971  0.00  0.00    +0.000 C 
ATOM     12  C   UNL     1       7.960   7.208  18.129  0.00  0.00    +0.000 C 
ATOM     13  N   UNL     1       7.519   6.839  16.782  0.00  0.00    +0.000 NA
ATOM     14  C   UNL     1       6.302   6.027  16.973  0.00  0.00    +0.000 C 
ATOM     15  H   UNL     1       8.233   6.240  16.363  0.00  0.00    +0.000 HD
ENDBRANCH   9  10
ENDBRANCH   5   9
TORSDOF 2
ENDMDL
MODEL 3
REMARK VINA RESULT:      -6.2      3.579      5.315
REMARK  Name = 
REMARK  2 active torsions:
REMARK  status: ('A' for Active; 'I' for Inactive)
REMARK    1  A    between atoms: C_5  and  O_6
REMARK    2  A    between atoms: O_6  and  C_7
REMARK                            x       y       z     vdW  Elec       q    Type
REMARK                         _______ _______ _______ _____ _____    ______ ____
ROOT
ATOM      1 CL   UNL     1       1.447   2.864  21.121  0.00  0.00    +0.000 Cl
ATOM      2  C   UNL     1       2.317   3.587  19.815  0.00  0.00    +0.000 A 
ATOM      3  C   UNL     1       1.656   4.548  19.041  0.00  0.00    +0.000 A 
ATOM      4  C   UNL     1       2.321   5.188  17.992  0.00  0.00    +0.000 A 
ATOM      5  C   UNL     1       3.657   4.885  17.728  0.00  0.00    +0.000 A 
ATOM      6  C   UNL     1       4.301   3.896  18.473  0.00  0.00    +0.000 A 
ATOM      7  C   UNL     1       3.643   3.253  19.522  0.00  0.00    +0.000 A 
ATOM      8 CL   UNL     1       4.524   2.069  20.421  0.00  0.00    +0.000 Cl
ENDROOT
BRANCH   5   9
ATOM      9  O   UNL     1       4.432   5.470  16.771  0.00  0.00    +0.000 OA
BRANCH   9  10
ATOM     10  C   UNL     1       5.510   4.713  16.221  0.00  0.00    +0.000 C 
ATOM     11  C   UNL     1       5.392   4.493  14.716  0.00  0.00    +0.000 C 
ATOM     12  C   UNL     1       6.833   4.482  14.256  0.00  0.00    +0.000 C 
ATOM     13  N   UNL     1       7.460   5.560  15.023  0.00  0.00    +0.000 NA
ATOM     14  C   UNL     1       6.802   5.541  16.344  0.00  0.00    +0.000 C 
ATOM     15  H   UNL     1       7.233   6.449  14.573  0.00  0.00    +0.000 HD
ENDBRANCH   9  10
ENDBRANCH   5   9
TORSDOF 2
ENDMDL
MODEL 4
REMARK VINA RESULT:      -6.2      3.711      5.539
REMARK  Name = 
REMARK  2 active torsions:
REMARK  status: ('A' for Active; 'I' for Inactive)
REMARK    1  A    between atoms: C_5  and  O_6
REMARK    2  A    between atoms: O_6  and  C_7
REMARK                            x       y       z     vdW  Elec       q    Type
REMARK                         _______ _______ _______ _____ _____    ______ ____
ROOT
ATOM      1 CL   UNL     1       1.611   2.489  21.376  0.00  0.00    +0.000 Cl
ATOM      2  C   UNL     1       2.403   3.154  19.993  0.00  0.00    +0.000 A 
ATOM      3  C   UNL     1       3.044   2.270  19.117  0.00  0.00    +0.000 A 
ATOM      4  C   UNL     1       3.674   2.750  17.966  0.00  0.00    +0.000 A 
ATOM      5  C   UNL     1       3.647   4.114  17.675  0.00  0.00    +0.000 A 
ATOM      6  C   UNL     1       3.044   4.999  18.571  0.00  0.00    +0.000 A 
ATOM      7  C   UNL     1       2.414   4.527  19.722  0.00  0.00    +0.000 A 
ATOM      8 CL   UNL     1       1.658   5.684  20.759  0.00  0.00    +0.000 Cl
ENDROOT
BRANCH   5   9
ATOM      9  O   UNL     1       4.176   4.702  16.566  0.00  0.00    +0.000 OA
BRANCH   9  10
ATOM     10  C   UNL     1       5.403   4.187  16.049  0.00  0.00    +0.000 C 
ATOM     11  C   UNL     1       5.570   4.407  14.550  0.00  0.00    +0.000 C 
ATOM     12  C   UNL     1       7.063   4.594  14.393  0.00  0.00    +0.000 C 
ATOM     13  N   UNL     1       7.438   5.431  15.535  0.00  0.00    +0.000 NA
ATOM     14  C   UNL     1       6.566   5.001  16.645  0.00  0.00    +0.000 C 
ATOM     15  H   UNL     1       7.207   6.400  15.312  0.00  0.00    +0.000 HD
ENDBRANCH   9  10
ENDBRANCH   5   9
TORSDOF 2
ENDMDL
MODEL 5
REMARK VINA RESULT:      -6.1      3.829      5.493
REMARK  Name = 
REMARK  2 active torsions:
REMARK  status: ('A' for Active; 'I' for Inactive)
REMARK    1  A    between atoms: C_5  and  O_6
REMARK    2  A    between atoms: O_6  and  C_7
REMARK                            x       y       z     vdW  Elec       q    Type
REMARK                         _______ _______ _______ _____ _____    ______ ____
ROOT
ATOM      1 CL   UNL     1       1.294   2.857  21.444  0.00  0.00    +0.000 Cl
ATOM      2  C   UNL     1       2.602   3.520  20.531  0.00  0.00    +0.000 A 
ATOM      3  C   UNL     1       3.579   2.639  20.052  0.00  0.00    +0.000 A 
ATOM      4  C   UNL     1       4.643   3.117  19.281  0.00  0.00    +0.000 A 
ATOM      5  C   UNL     1       4.721   4.473  18.969  0.00  0.00    +0.000 A 
ATOM      6  C   UNL     1       3.770   5.357  19.483  0.00  0.00    +0.000 A 
ATOM      7  C   UNL     1       2.706   4.887  20.253  0.00  0.00    +0.000 A 
ATOM      8 CL   UNL     1       1.550   6.041  20.818  0.00  0.00    +0.000 Cl
ENDROOT
BRANCH   5   9
ATOM      9  O   UNL     1       5.674   5.057  18.189  0.00  0.00    +0.000 OA
BRANCH   9  10
ATOM     10  C   UNL     1       6.012   4.429  16.952  0.00  0.00    +0.000 C 
ATOM     11  C   UNL     1       5.242   4.985  15.759  0.00  0.00    +0.000 C 
ATOM     12  C   UNL     1       6.233   4.864  14.623  0.00  0.00    +0.000 C 
ATOM     13  N   UNL     1       7.508   5.271  15.218  0.00  0.00    +0.000 NA
ATOM     14  C   UNL     1       7.471   4.777  16.608  0.00  0.00    +0.000 C 
ATOM     15  H   UNL     1       7.537   6.291  15.249  0.00  0.00    +0.000 HD
ENDBRANCH   9  10
ENDBRANCH   5   9
TORSDOF 2
ENDMDL
MODEL 6
REMARK VINA RESULT:      -6.0      3.452      5.418
REMARK  Name = 
REMARK  2 active torsions:
REMARK  status: ('A' for Active; 'I' for Inactive)
REMARK    1  A    between atoms: C_5  and  O_6
REMARK    2  A    between atoms: O_6  and  C_7
REMARK                            x       y       z     vdW  Elec       q    Type
REMARK                         _______ _______ _______ _____ _____    ______ ____
ROOT
ATOM      1 CL   UNL     1       1.428   2.677  21.665  0.00  0.00    +0.000 Cl
ATOM      2  C   UNL     1       2.107   2.971  20.105  0.00  0.00    +0.000 A 
ATOM      3  C   UNL     1       1.291   3.569  19.138  0.00  0.00    +0.000 A 
ATOM      4  C   UNL     1       1.798   3.859  17.868  0.00  0.00    +0.000 A 
ATOM      5  C   UNL     1       3.129   3.571  17.568  0.00  0.00    +0.000 A 
ATOM      6  C   UNL     1       3.929   2.935  18.519  0.00  0.00    +0.000 A 
ATOM      7  C   UNL     1       3.430   2.643  19.789  0.00  0.00    +0.000 A 
ATOM      8 CL   UNL     1       4.497   1.891  20.921  0.00  0.00    +0.000 Cl
ENDROOT
BRANCH   5   9
ATOM      9  O   UNL     1       3.758   3.846  16.391  0.00  0.00    +0.000 OA
BRANCH   9  10
ATOM     10  C   UNL     1       5.136   4.213  16.432  0.00  0.00    +0.000 C 
ATOM     11  C   UNL     1       5.943   3.678  15.254  0.00  0.00    +0.000 C 
ATOM     12  C   UNL     1       6.980   4.756  15.028  0.00  0.00    +0.000 C 
ATOM     13  N   UNL     1       6.235   6.006  15.194  0.00  0.00    +0.000 NA
ATOM     14  C   UNL     1       5.243   5.738  16.253  0.00  0.00    +0.000 C 
ATOM     15  H   UNL     1       5.726   6.194  14.329  0.00  0.00    +0.000 HD
ENDBRANCH   9  10
ENDBRANCH   5   9
TORSDOF 2
ENDMDL
MODEL 7
REMARK VINA RESULT:      -5.9      2.113      2.560
REMARK  Name = 
REMARK  2 active torsions:
REMARK  status: ('A' for Active; 'I' for Inactive)
REMARK    1  A    between atoms: C_5  and  O_6
REMARK    2  A    between atoms: O_6  and  C_7
REMARK                            x       y       z     vdW  Elec       q    Type
REMARK                         _______ _______ _______ _____ _____    ______ ____
ROOT
ATOM      1 CL   UNL     1       7.176   5.012  14.747  0.00  0.00    +0.000 Cl
ATOM      2  C   UNL     1       6.197   4.899  16.165  0.00  0.00    +0.000 A 
ATOM      3  C   UNL     1       5.220   3.896  16.208  0.00  0.00    +0.000 A 
ATOM      4  C   UNL     1       4.421   3.738  17.344  0.00  0.00    +0.000 A 
ATOM      5  C   UNL     1       4.609   4.568  18.448  0.00  0.00    +0.000 A 
ATOM      6  C   UNL     1       5.554   5.594  18.388  0.00  0.00    +0.000 A 
ATOM      7  C   UNL     1       6.356   5.758  17.258  0.00  0.00    +0.000 A 
ATOM      8 CL   UNL     1       7.528   7.027  17.279  0.00  0.00    +0.000 Cl
ENDROOT
BRANCH   5   9
ATOM      9  O   UNL     1       3.934   4.487  19.629  0.00  0.00    +0.000 OA
BRANCH   9  10
ATOM     10  C   UNL     1       2.955   3.459  19.778  0.00  0.00    +0.000 C 
ATOM     11  C   UNL     1       2.731   3.040  21.227  0.00  0.00    +0.000 C 
ATOM     12  C   UNL     1       1.263   2.676  21.256  0.00  0.00    +0.000 C 
ATOM     13  N   UNL     1       0.622   3.714  20.446  0.00  0.00    +0.000 NA
ATOM     14  C   UNL     1       1.584   4.026  19.370  0.00  0.00    +0.000 C 
ATOM     15  H   UNL     1       0.515   4.550  21.022  0.00  0.00    +0.000 HD
ENDBRANCH   9  10
ENDBRANCH   5   9
TORSDOF 2
ENDMDL
MODEL 8
REMARK VINA RESULT:      -5.9      1.160      1.165
REMARK  Name = 
REMARK  2 active torsions:
REMARK  status: ('A' for Active; 'I' for Inactive)
REMARK    1  A    between atoms: C_5  and  O_6
REMARK    2  A    between atoms: O_6  and  C_7
REMARK                            x       y       z     vdW  Elec       q    Type
REMARK                         _______ _______ _______ _____ _____    ______ ____
ROOT
ATOM      1 CL   UNL     1       7.732   7.888  17.445  0.00  0.00    +0.000 Cl
ATOM      2  C   UNL     1       6.518   6.686  17.697  0.00  0.00    +0.000 A 
ATOM      3  C   UNL     1       5.381   6.722  16.880  0.00  0.00    +0.000 A 
ATOM      4  C   UNL     1       4.381   5.755  17.019  0.00  0.00    +0.000 A 
ATOM      5  C   UNL     1       4.526   4.736  17.960  0.00  0.00    +0.000 A 
ATOM      6  C   UNL     1       5.639   4.726  18.802  0.00  0.00    +0.000 A 
ATOM      7  C   UNL     1       6.640   5.688  18.669  0.00  0.00    +0.000 A 
ATOM      8 CL   UNL     1       8.004   5.581  19.725  0.00  0.00    +0.000 Cl
ENDROOT
BRANCH   5   9
ATOM      9  O   UNL     1       3.653   3.709  18.161  0.00  0.00    +0.000 OA
BRANCH   9  10
ATOM     10  C   UNL     1       2.988   3.625  19.421  0.00  0.00    +0.000 C 
ATOM     11  C   UNL     1       2.044   4.792  19.689  0.00  0.00    +0.000 C 
ATOM     12  C   UNL     1       0.937   4.160  20.503  0.00  0.00    +0.000 C 
ATOM     13  N   UNL     1       0.708   2.869  19.850  0.00  0.00    +0.000 NA
ATOM     14  C   UNL     1       2.035   2.416  19.392  0.00  0.00    +0.000 C 
ATOM     15  H   UNL     1       0.128   3.026  19.024  0.00  0.00    +0.000 HD
ENDBRANCH   9  10
ENDBRANCH   5   9
TORSDOF 2
ENDMDL
MODEL 9
REMARK VINA RESULT:      -5.8      3.865      5.382
REMARK  Name = 
REMARK  2 active torsions:
REMARK  status: ('A' for Active; 'I' for Inactive)
REMARK    1  A    between atoms: C_5  and  O_6
REMARK    2  A    between atoms: O_6  and  C_7
REMARK                            x       y       z     vdW  Elec       q    Type
REMARK                         _______ _______ _______ _____ _____    ______ ____
ROOT
ATOM      1 CL   UNL     1       2.032   3.584  21.615  0.00  0.00    +0.000 Cl
ATOM      2  C   UNL     1       2.658   4.178  20.119  0.00  0.00    +0.000 A 
ATOM      3  C   UNL     1       3.057   5.519  20.063  0.00  0.00    +0.000 A 
ATOM      4  C   UNL     1       3.601   6.045  18.888  0.00  0.00    +0.000 A 
ATOM      5  C   UNL     1       3.767   5.226  17.772  0.00  0.00    +0.000 A 
ATOM      6  C   UNL     1       3.330   3.901  17.815  0.00  0.00    +0.000 A 
ATOM      7  C   UNL     1       2.787   3.369  18.985  0.00  0.00    +0.000 A 
ATOM      8 CL   UNL     1       2.306   1.710  18.968  0.00  0.00    +0.000 Cl
ENDROOT
BRANCH   5   9
ATOM      9  O   UNL     1       4.328   5.600  16.587  0.00  0.00    +0.000 OA
BRANCH   9  10
ATOM     10  C   UNL     1       5.354   4.775  16.036  0.00  0.00    +0.000 C 
ATOM     11  C   UNL     1       5.478   4.889  14.520  0.00  0.00    +0.000 C 
ATOM     12  C   UNL     1       6.958   4.691  14.279  0.00  0.00    +0.000 C 
ATOM     13  N   UNL     1       7.598   5.451  15.355  0.00  0.00    +0.000 NA
ATOM     14  C   UNL     1       6.717   5.294  16.529  0.00  0.00    +0.000 C 
ATOM     15  H   UNL     1       7.600   6.438  15.094  0.00  0.00    +0.000 HD
ENDBRANCH   9  10
ENDBRANCH   5   9
TORSDOF 2
ENDMDL
