MODEL 1
REMARK VINA RESULT:      -8.8      0.000      0.000
REMARK  Name = 
REMARK  5 active torsions:
REMARK  status: ('A' for Active; 'I' for Inactive)
REMARK    1  A    between atoms: C_2  and  C_19
REMARK    2  A    between atoms: N_3  and  C_4
REMARK    3  A    between atoms: N_9  and  C_10
REMARK    4  A    between atoms: C_10  and  C_11
REMARK    5  A    between atoms: C_25  and  C_26
REMARK                            x       y       z     vdW  Elec       q    Type
REMARK                         _______ _______ _______ _____ _____    ______ ____
ROOT
ATOM      1  O   UNL     1       2.138  10.725  17.444  0.00  0.00    +0.000 OA
ATOM      2  C   UNL     1       1.537  10.517  18.489  0.00  0.00    +0.000 C 
ATOM      3  N   UNL     1       0.779  11.447  19.151  0.00  0.00    +0.000 N 
ATOM      4  H   UNL     1       0.514  11.291  20.119  0.00  0.00    +0.000 HD
ENDROOT
BRANCH   2   5
ATOM      5  C   UNL     1       1.629   9.198  19.166  0.00  0.00    +0.000 A 
ATOM      6  C   UNL     1       0.998   8.972  20.394  0.00  0.00    +0.000 A 
ATOM      7  C   UNL     1       1.114   7.741  21.047  0.00  0.00    +0.000 A 
ATOM      8  C   UNL     1       1.905   6.766  20.429  0.00  0.00    +0.000 A 
ATOM      9  N   UNL     1       2.230   5.491  20.801  0.00  0.00    +0.000 N 
ATOM     10  N   UNL     1       3.044   4.854  19.946  0.00  0.00    +0.000 NA
ATOM     11  C   UNL     1       3.279   5.752  18.974  0.00  0.00    +0.000 A 
ATOM     12  C   UNL     1       2.549   6.961  19.212  0.00  0.00    +0.000 A 
ATOM     13  C   UNL     1       2.374   8.189  18.543  0.00  0.00    +0.000 A 
ATOM     14  H   UNL     1       1.933   4.999  21.636  0.00  0.00    +0.000 HD
BRANCH  11  15
ATOM     15  C   UNL     1       4.193   5.454  17.870  0.00  0.00    +0.000 A 
ATOM     16  C   UNL     1       4.052   4.285  17.124  0.00  0.00    +0.000 A 
ATOM     17  C   UNL     1       4.937   4.054  16.084  0.00  0.00    +0.000 A 
ATOM     18  N   UNL     1       5.937   4.898  15.744  0.00  0.00    +0.000 NA
ATOM     19  C   UNL     1       6.065   6.013  16.490  0.00  0.00    +0.000 A 
ATOM     20  C   UNL     1       5.239   6.324  17.555  0.00  0.00    +0.000 A 
ENDBRANCH  11  15
ENDBRANCH   2   5
BRANCH   3  21
ATOM     21  C   UNL     1       0.556  12.814  18.685  0.00  0.00    +0.000 C 
ATOM     22  C   UNL     1       1.221  13.853  19.589  0.00  0.00    +0.000 C 
ATOM     23  C   UNL     1       0.683  13.932  21.016  0.00  0.00    +0.000 C 
ATOM     24  C   UNL     1      -0.758  14.420  21.091  0.00  0.00    +0.000 C 
ATOM     25  C   UNL     1      -1.854  13.386  20.802  0.00  0.00    +0.000 C 
ATOM     26  N   UNL     1      -1.720  12.471  19.654  0.00  0.00    +0.000 NA
ATOM     27  C   UNL     1      -0.967  13.037  18.516  0.00  0.00    +0.000 C 
BRANCH  26  28
ATOM     28  C   UNL     1      -3.052  11.980  19.220  0.00  0.00    +0.000 C 
BRANCH  28  29
ATOM     29  C   UNL     1      -3.007  11.227  17.909  0.00  0.00    +0.000 A 
ATOM     30  C   UNL     1      -2.028  10.251  17.675  0.00  0.00    +0.000 A 
ATOM     31  C   UNL     1      -2.026   9.515  16.488  0.00  0.00    +0.000 A 
ATOM     32  C   UNL     1      -2.995   9.754  15.515  0.00  0.00    +0.000 A 
ATOM     33  C   UNL     1      -3.953  10.746  15.720  0.00  0.00    +0.000 A 
ATOM     34  C   UNL     1      -3.947  11.477  16.905  0.00  0.00    +0.000 A 
ATOM     35  F   UNL     1      -4.878  12.427  17.078  0.00  0.00    +0.000 F 
ENDBRANCH  28  29
ENDBRANCH  26  28
ENDBRANCH   3  21
TORSDOF 5
ENDMDL
MODEL 2
REMARK VINA RESULT:      -8.7      0.861      1.424
REMARK  Name = 
REMARK  5 active torsions:
REMARK  status: ('A' for Active; 'I' for Inactive)
REMARK    1  A    between atoms: C_2  and  C_19
REMARK    2  A    between atoms: N_3  and  C_4
REMARK    3  A    between atoms: N_9  and  C_10
REMARK    4  A    between atoms: C_10  and  C_11
REMARK    5  A    between atoms: C_25  and  C_26
REMARK                            x       y       z     vdW  Elec       q    Type
REMARK                         _______ _______ _______ _____ _____    ______ ____
ROOT
ATOM      1  O   UNL     1       2.217  10.930  17.649  0.00  0.00    +0.000 OA
ATOM      2  C   UNL     1       1.484  10.645  18.587  0.00  0.00    +0.000 C 
ATOM      3  N   UNL     1       0.565  11.495  19.145  0.00  0.00    +0.000 N 
ATOM      4  H   UNL     1       0.172  11.288  20.057  0.00  0.00    +0.000 HD
ENDROOT
BRANCH   2   5
ATOM      5  C   UNL     1       1.577   9.316  19.242  0.00  0.00    +0.000 A 
ATOM      6  C   UNL     1       1.018   9.094  20.506  0.00  0.00    +0.000 A 
ATOM      7  C   UNL     1       1.135   7.852  21.138  0.00  0.00    +0.000 A 
ATOM      8  C   UNL     1       1.854   6.861  20.461  0.00  0.00    +0.000 A 
ATOM      9  N   UNL     1       2.161   5.571  20.798  0.00  0.00    +0.000 N 
ATOM     10  N   UNL     1       2.899   4.920  19.886  0.00  0.00    +0.000 NA
ATOM     11  C   UNL     1       3.100   5.821  18.911  0.00  0.00    +0.000 A 
ATOM     12  C   UNL     1       2.425   7.050  19.207  0.00  0.00    +0.000 A 
ATOM     13  C   UNL     1       2.248   8.291  18.563  0.00  0.00    +0.000 A 
ATOM     14  H   UNL     1       1.902   5.079  21.645  0.00  0.00    +0.000 HD
BRANCH  11  15
ATOM     15  C   UNL     1       3.931   5.509  17.748  0.00  0.00    +0.000 A 
ATOM     16  C   UNL     1       4.552   6.525  17.022  0.00  0.00    +0.000 A 
ATOM     17  C   UNL     1       5.335   6.176  15.934  0.00  0.00    +0.000 A 
ATOM     18  N   UNL     1       5.538   4.903  15.528  0.00  0.00    +0.000 NA
ATOM     19  C   UNL     1       4.914   3.939  16.234  0.00  0.00    +0.000 A 
ATOM     20  C   UNL     1       4.103   4.188  17.326  0.00  0.00    +0.000 A 
ENDBRANCH  11  15
ENDBRANCH   2   5
BRANCH   3  21
ATOM     21  C   UNL     1       0.309  12.855  18.677  0.00  0.00    +0.000 C 
ATOM     22  C   UNL     1       0.955  13.910  19.577  0.00  0.00    +0.000 C 
ATOM     23  C   UNL     1       0.423  13.980  21.006  0.00  0.00    +0.000 C 
ATOM     24  C   UNL     1      -1.028  14.434  21.089  0.00  0.00    +0.000 C 
ATOM     25  C   UNL     1      -2.102  13.376  20.807  0.00  0.00    +0.000 C 
ATOM     26  N   UNL     1      -1.954  12.462  19.660  0.00  0.00    +0.000 NA
ATOM     27  C   UNL     1      -1.220  13.044  18.517  0.00  0.00    +0.000 C 
BRANCH  26  28
ATOM     28  C   UNL     1      -3.277  11.940  19.234  0.00  0.00    +0.000 C 
BRANCH  28  29
ATOM     29  C   UNL     1      -3.223  11.194  17.919  0.00  0.00    +0.000 A 
ATOM     30  C   UNL     1      -3.978  11.623  16.818  0.00  0.00    +0.000 A 
ATOM     31  C   UNL     1      -3.880  10.967  15.589  0.00  0.00    +0.000 A 
ATOM     32  C   UNL     1      -3.034   9.868  15.448  0.00  0.00    +0.000 A 
ATOM     33  C   UNL     1      -2.304   9.410  16.544  0.00  0.00    +0.000 A 
ATOM     34  C   UNL     1      -2.409  10.068  17.767  0.00  0.00    +0.000 A 
ATOM     35  F   UNL     1      -1.698   9.606  18.806  0.00  0.00    +0.000 F 
ENDBRANCH  28  29
ENDBRANCH  26  28
ENDBRANCH   3  21
TORSDOF 5
ENDMDL
MODEL 3
REMARK VINA RESULT:      -8.4      3.847      9.019
REMARK  Name = 
REMARK  5 active torsions:
REMARK  status: ('A' for Active; 'I' for Inactive)
REMARK    1  A    between atoms: C_2  and  C_19
REMARK    2  A    between atoms: N_3  and  C_4
REMARK    3  A    between atoms: N_9  and  C_10
REMARK    4  A    between atoms: C_10  and  C_11
REMARK    5  A    between atoms: C_25  and  C_26
REMARK                            x       y       z     vdW  Elec       q    Type
REMARK                         _______ _______ _______ _____ _____    ______ ____
ROOT
ATOM      1  O   UNL     1       2.939   5.529  20.397  0.00  0.00    +0.000 OA
ATOM      2  C   UNL     1       3.449   6.257  19.556  0.00  0.00    +0.000 C 
ATOM      3  N   UNL     1       4.737   6.139  19.102  0.00  0.00    +0.000 N 
ATOM      4  H   UNL     1       5.170   6.907  18.599  0.00  0.00    +0.000 HD
ENDROOT
BRANCH   2   5
ATOM      5  C   UNL     1       2.691   7.396  18.980  0.00  0.00    +0.000 A 
ATOM      6  C   UNL     1       2.872   7.783  17.647  0.00  0.00    +0.000 A 
ATOM      7  C   UNL     1       2.183   8.877  17.114  0.00  0.00    +0.000 A 
ATOM      8  C   UNL     1       1.332   9.573  17.979  0.00  0.00    +0.000 A 
ATOM      9  N   UNL     1       0.541  10.671  17.785  0.00  0.00    +0.000 N 
ATOM     10  N   UNL     1      -0.131  11.071  18.875  0.00  0.00    +0.000 NA
ATOM     11  C   UNL     1       0.242  10.208  19.835  0.00  0.00    +0.000 A 
ATOM     12  C   UNL     1       1.133   9.217  19.309  0.00  0.00    +0.000 A 
ATOM     13  C   UNL     1       1.794   8.078  19.811  0.00  0.00    +0.000 A 
ATOM     14  H   UNL     1       0.423  11.202  16.929  0.00  0.00    +0.000 HD
BRANCH  11  15
ATOM     15  C   UNL     1      -0.232  10.353  21.212  0.00  0.00    +0.000 A 
ATOM     16  C   UNL     1       0.062   9.385  22.172  0.00  0.00    +0.000 A 
ATOM     17  C   UNL     1      -0.402   9.574  23.463  0.00  0.00    +0.000 A 
ATOM     18  N   UNL     1      -1.128  10.644  23.854  0.00  0.00    +0.000 NA
ATOM     19  C   UNL     1      -1.416  11.557  22.906  0.00  0.00    +0.000 A 
ATOM     20  C   UNL     1      -1.008  11.452  21.589  0.00  0.00    +0.000 A 
ENDBRANCH  11  15
ENDBRANCH   2   5
BRANCH   3  21
ATOM     21  C   UNL     1       5.674   5.105  19.536  0.00  0.00    +0.000 C 
ATOM     22  C   UNL     1       7.129   5.567  19.451  0.00  0.00    +0.000 C 
ATOM     23  C   UNL     1       7.649   5.872  18.049  0.00  0.00    +0.000 C 
ATOM     24  C   UNL     1       7.724   4.643  17.152  0.00  0.00    +0.000 C 
ATOM     25  C   UNL     1       6.414   4.181  16.500  0.00  0.00    +0.000 C 
ATOM     26  N   UNL     1       5.177   4.114  17.297  0.00  0.00    +0.000 NA
ATOM     27  C   UNL     1       5.396   3.813  18.727  0.00  0.00    +0.000 C 
BRANCH  26  28
ATOM     28  C   UNL     1       4.217   3.156  16.692  0.00  0.00    +0.000 C 
BRANCH  28  29
ATOM     29  C   UNL     1       2.971   2.961  17.527  0.00  0.00    +0.000 A 
ATOM     30  C   UNL     1       1.943   3.916  17.515  0.00  0.00    +0.000 A 
ATOM     31  C   UNL     1       0.767   3.703  18.240  0.00  0.00    +0.000 A 
ATOM     32  C   UNL     1       0.609   2.541  18.992  0.00  0.00    +0.000 A 
ATOM     33  C   UNL     1       1.637   1.600  19.040  0.00  0.00    +0.000 A 
ATOM     34  C   UNL     1       2.807   1.820  18.316  0.00  0.00    +0.000 A 
ATOM     35  F   UNL     1       3.783   0.901  18.380  0.00  0.00    +0.000 F 
ENDBRANCH  28  29
ENDBRANCH  26  28
ENDBRANCH   3  21
TORSDOF 5
ENDMDL
MODEL 4
REMARK VINA RESULT:      -8.2      4.204      9.321
REMARK  Name = 
REMARK  5 active torsions:
REMARK  status: ('A' for Active; 'I' for Inactive)
REMARK    1  A    between atoms: C_2  and  C_19
REMARK    2  A    between atoms: N_3  and  C_4
REMARK    3  A    between atoms: N_9  and  C_10
REMARK    4  A    between atoms: C_10  and  C_11
REMARK    5  A    between atoms: C_25  and  C_26
REMARK                            x       y       z     vdW  Elec       q    Type
REMARK                         _______ _______ _______ _____ _____    ______ ____
ROOT
ATOM      1  O   UNL     1      -0.462  12.560  18.480  0.00  0.00    +0.000 OA
ATOM      2  C   UNL     1      -1.197  11.609  18.708  0.00  0.00    +0.000 C 
ATOM      3  N   UNL     1      -0.829  10.488  19.404  0.00  0.00    +0.000 N 
ATOM      4  H   UNL     1      -1.394   9.647  19.348  0.00  0.00    +0.000 HD
ENDROOT
BRANCH   2   5
ATOM      5  C   UNL     1      -2.586  11.584  18.183  0.00  0.00    +0.000 A 
ATOM      6  C   UNL     1      -2.855  11.167  16.874  0.00  0.00    +0.000 A 
ATOM      7  C   UNL     1      -4.159  11.176  16.369  0.00  0.00    +0.000 A 
ATOM      8  C   UNL     1      -5.167  11.643  17.221  0.00  0.00    +0.000 A 
ATOM      9  N   UNL     1      -6.514  11.792  17.038  0.00  0.00    +0.000 N 
ATOM     10  N   UNL     1      -7.165  12.297  18.096  0.00  0.00    +0.000 NA
ATOM     11  C   UNL     1      -6.206  12.504  19.014  0.00  0.00    +0.000 A 
ATOM     12  C   UNL     1      -4.932  12.068  18.524  0.00  0.00    +0.000 A 
ATOM     13  C   UNL     1      -3.619  11.998  19.032  0.00  0.00    +0.000 A 
ATOM     14  H   UNL     1      -7.049  11.574  16.206  0.00  0.00    +0.000 HD
BRANCH  11  15
ATOM     15  C   UNL     1      -6.511  13.120  20.306  0.00  0.00    +0.000 A 
ATOM     16  C   UNL     1      -6.127  14.433  20.577  0.00  0.00    +0.000 A 
ATOM     17  C   UNL     1      -6.447  14.972  21.813  0.00  0.00    +0.000 A 
ATOM     18  N   UNL     1      -7.112  14.301  22.779  0.00  0.00    +0.000 NA
ATOM     19  C   UNL     1      -7.457  13.028  22.500  0.00  0.00    +0.000 A 
ATOM     20  C   UNL     1      -7.172  12.399  21.303  0.00  0.00    +0.000 A 
ENDBRANCH  11  15
ENDBRANCH   2   5
BRANCH   3  21
ATOM     21  C   UNL     1       0.489  10.283  20.001  0.00  0.00    +0.000 C 
ATOM     22  C   UNL     1       0.667   8.864  20.542  0.00  0.00    +0.000 C 
ATOM     23  C   UNL     1      -0.249   8.474  21.699  0.00  0.00    +0.000 C 
ATOM     24  C   UNL     1       0.020   9.264  22.974  0.00  0.00    +0.000 C 
ATOM     25  C   UNL     1      -0.581  10.673  23.054  0.00  0.00    +0.000 C 
ATOM     26  N   UNL     1      -0.482  11.584  21.899  0.00  0.00    +0.000 NA
ATOM     27  C   UNL     1       0.724  11.378  21.071  0.00  0.00    +0.000 C 
BRANCH  26  28
ATOM     28  C   UNL     1      -0.591  12.998  22.339  0.00  0.00    +0.000 C 
BRANCH  28  29
ATOM     29  C   UNL     1      -1.851  13.277  23.128  0.00  0.00    +0.000 A 
ATOM     30  C   UNL     1      -3.006  12.505  22.931  0.00  0.00    +0.000 A 
ATOM     31  C   UNL     1      -4.148  12.727  23.704  0.00  0.00    +0.000 A 
ATOM     32  C   UNL     1      -4.154  13.727  24.675  0.00  0.00    +0.000 A 
ATOM     33  C   UNL     1      -3.024  14.523  24.856  0.00  0.00    +0.000 A 
ATOM     34  C   UNL     1      -1.889  14.299  24.081  0.00  0.00    +0.000 A 
ATOM     35  F   UNL     1      -0.816  15.079  24.273  0.00  0.00    +0.000 F 
ENDBRANCH  28  29
ENDBRANCH  26  28
ENDBRANCH   3  21
TORSDOF 5
ENDMDL
MODEL 5
REMARK VINA RESULT:      -8.2      4.211      8.614
REMARK  Name = 
REMARK  5 active torsions:
REMARK  status: ('A' for Active; 'I' for Inactive)
REMARK    1  A    between atoms: C_2  and  C_19
REMARK    2  A    between atoms: N_3  and  C_4
REMARK    3  A    between atoms: N_9  and  C_10
REMARK    4  A    between atoms: C_10  and  C_11
REMARK    5  A    between atoms: C_25  and  C_26
REMARK                            x       y       z     vdW  Elec       q    Type
REMARK                         _______ _______ _______ _____ _____    ______ ____
ROOT
ATOM      1  O   UNL     1      -0.141   9.552  17.454  0.00  0.00    +0.000 OA
ATOM      2  C   UNL     1      -0.908  10.203  18.151  0.00  0.00    +0.000 C 
ATOM      3  N   UNL     1      -0.659  10.576  19.446  0.00  0.00    +0.000 N 
ATOM      4  H   UNL     1      -1.419  10.893  20.038  0.00  0.00    +0.000 HD
ENDROOT
BRANCH   2   5
ATOM      5  C   UNL     1      -2.239  10.610  17.635  0.00  0.00    +0.000 A 
ATOM      6  C   UNL     1      -2.486  10.688  16.259  0.00  0.00    +0.000 A 
ATOM      7  C   UNL     1      -3.730  11.105  15.773  0.00  0.00    +0.000 A 
ATOM      8  C   UNL     1      -4.695  11.461  16.721  0.00  0.00    +0.000 A 
ATOM      9  N   UNL     1      -5.978  11.914  16.585  0.00  0.00    +0.000 N 
ATOM     10  N   UNL     1      -6.601  12.174  17.744  0.00  0.00    +0.000 NA
ATOM     11  C   UNL     1      -5.687  11.893  18.687  0.00  0.00    +0.000 A 
ATOM     12  C   UNL     1      -4.480  11.399  18.094  0.00  0.00    +0.000 A 
ATOM     13  C   UNL     1      -3.239  10.923  18.563  0.00  0.00    +0.000 A 
ATOM     14  H   UNL     1      -6.484  12.077  15.722  0.00  0.00    +0.000 HD
BRANCH  11  15
ATOM     15  C   UNL     1      -5.967  12.114  20.106  0.00  0.00    +0.000 A 
ATOM     16  C   UNL     1      -7.188  11.731  20.660  0.00  0.00    +0.000 A 
ATOM     17  C   UNL     1      -7.399  11.956  22.011  0.00  0.00    +0.000 A 
ATOM     18  N   UNL     1      -6.491  12.528  22.832  0.00  0.00    +0.000 NA
ATOM     19  C   UNL     1      -5.325  12.906  22.271  0.00  0.00    +0.000 A 
ATOM     20  C   UNL     1      -5.026  12.736  20.931  0.00  0.00    +0.000 A 
ENDBRANCH  11  15
ENDBRANCH   2   5
BRANCH   3  21
ATOM     21  C   UNL     1       0.575  10.275  20.168  0.00  0.00    +0.000 C 
ATOM     22  C   UNL     1       0.552   8.885  20.805  0.00  0.00    +0.000 C 
ATOM     23  C   UNL     1      -0.493   8.672  21.897  0.00  0.00    +0.000 C 
ATOM     24  C   UNL     1      -0.246   9.514  23.142  0.00  0.00    +0.000 C 
ATOM     25  C   UNL     1      -0.693  10.980  23.086  0.00  0.00    +0.000 C 
ATOM     26  N   UNL     1      -0.400  11.795  21.894  0.00  0.00    +0.000 NA
ATOM     27  C   UNL     1       0.840  11.410  21.190  0.00  0.00    +0.000 C 
BRANCH  26  28
ATOM     28  C   UNL     1      -0.389  13.239  22.239  0.00  0.00    +0.000 C 
BRANCH  28  29
ATOM     29  C   UNL     1       0.020  14.121  21.081  0.00  0.00    +0.000 A 
ATOM     30  C   UNL     1      -0.796  14.239  19.945  0.00  0.00    +0.000 A 
ATOM     31  C   UNL     1      -0.444  15.101  18.904  0.00  0.00    +0.000 A 
ATOM     32  C   UNL     1       0.730  15.847  18.979  0.00  0.00    +0.000 A 
ATOM     33  C   UNL     1       1.567  15.714  20.086  0.00  0.00    +0.000 A 
ATOM     34  C   UNL     1       1.212  14.851  21.120  0.00  0.00    +0.000 A 
ATOM     35  F   UNL     1       2.034  14.738  22.173  0.00  0.00    +0.000 F 
ENDBRANCH  28  29
ENDBRANCH  26  28
ENDBRANCH   3  21
TORSDOF 5
ENDMDL
MODEL 6
REMARK VINA RESULT:      -8.2      1.190      1.343
REMARK  Name = 
REMARK  5 active torsions:
REMARK  status: ('A' for Active; 'I' for Inactive)
REMARK    1  A    between atoms: C_2  and  C_19
REMARK    2  A    between atoms: N_3  and  C_4
REMARK    3  A    between atoms: N_9  and  C_10
REMARK    4  A    between atoms: C_10  and  C_11
REMARK    5  A    between atoms: C_25  and  C_26
REMARK                            x       y       z     vdW  Elec       q    Type
REMARK                         _______ _______ _______ _____ _____    ______ ____
ROOT
ATOM      1  O   UNL     1       2.321   9.441  17.093  0.00  0.00    +0.000 OA
ATOM      2  C   UNL     1       1.929   9.259  18.238  0.00  0.00    +0.000 C 
ATOM      3  N   UNL     1       1.346  10.218  19.024  0.00  0.00    +0.000 N 
ATOM      4  H   UNL     1       1.270  10.076  20.026  0.00  0.00    +0.000 HD
ENDROOT
BRANCH   2   5
ATOM      5  C   UNL     1       2.108   7.941  18.899  0.00  0.00    +0.000 A 
ATOM      6  C   UNL     1       1.384   7.607  20.049  0.00  0.00    +0.000 A 
ATOM      7  C   UNL     1       1.578   6.379  20.691  0.00  0.00    +0.000 A 
ATOM      8  C   UNL     1       2.542   5.523  20.146  0.00  0.00    +0.000 A 
ATOM      9  N   UNL     1       2.976   4.285  20.529  0.00  0.00    +0.000 N 
ATOM     10  N   UNL     1       3.947   3.774  19.757  0.00  0.00    +0.000 NA
ATOM     11  C   UNL     1       4.172   4.720  18.830  0.00  0.00    +0.000 A 
ATOM     12  C   UNL     1       3.281   5.827  19.008  0.00  0.00    +0.000 A 
ATOM     13  C   UNL     1       3.030   7.045  18.344  0.00  0.00    +0.000 A 
ATOM     14  H   UNL     1       2.656   3.738  21.319  0.00  0.00    +0.000 HD
BRANCH  11  15
ATOM     15  C   UNL     1       5.225   4.565  17.826  0.00  0.00    +0.000 A 
ATOM     16  C   UNL     1       4.910   4.229  16.509  0.00  0.00    +0.000 A 
ATOM     17  C   UNL     1       5.943   4.102  15.595  0.00  0.00    +0.000 A 
ATOM     18  N   UNL     1       7.247   4.284  15.901  0.00  0.00    +0.000 NA
ATOM     19  C   UNL     1       7.529   4.590  17.183  0.00  0.00    +0.000 A 
ATOM     20  C   UNL     1       6.570   4.726  18.169  0.00  0.00    +0.000 A 
ENDBRANCH  11  15
ENDBRANCH   2   5
BRANCH   3  21
ATOM     21  C   UNL     1       1.081  11.589  18.593  0.00  0.00    +0.000 C 
ATOM     22  C   UNL     1       1.855  12.617  19.419  0.00  0.00    +0.000 C 
ATOM     23  C   UNL     1       1.489  12.693  20.898  0.00  0.00    +0.000 C 
ATOM     24  C   UNL     1       0.071  13.191  21.145  0.00  0.00    +0.000 C 
ATOM     25  C   UNL     1      -1.060  12.167  20.981  0.00  0.00    +0.000 C 
ATOM     26  N   UNL     1      -1.069  11.258  19.821  0.00  0.00    +0.000 NA
ATOM     27  C   UNL     1      -0.450  11.825  18.605  0.00  0.00    +0.000 C 
BRANCH  26  28
ATOM     28  C   UNL     1      -2.447  10.780  19.543  0.00  0.00    +0.000 C 
BRANCH  28  29
ATOM     29  C   UNL     1      -2.761  10.707  18.065  0.00  0.00    +0.000 A 
ATOM     30  C   UNL     1      -2.011   9.884  17.212  0.00  0.00    +0.000 A 
ATOM     31  C   UNL     1      -2.343   9.773  15.859  0.00  0.00    +0.000 A 
ATOM     32  C   UNL     1      -3.420  10.490  15.342  0.00  0.00    +0.000 A 
ATOM     33  C   UNL     1      -4.152  11.338  16.172  0.00  0.00    +0.000 A 
ATOM     34  C   UNL     1      -3.815  11.445  17.519  0.00  0.00    +0.000 A 
ATOM     35  F   UNL     1      -4.533  12.269  18.296  0.00  0.00    +0.000 F 
ENDBRANCH  28  29
ENDBRANCH  26  28
ENDBRANCH   3  21
TORSDOF 5
ENDMDL
MODEL 7
REMARK VINA RESULT:      -8.1      1.486      2.259
REMARK  Name = 
REMARK  5 active torsions:
REMARK  status: ('A' for Active; 'I' for Inactive)
REMARK    1  A    between atoms: C_2  and  C_19
REMARK    2  A    between atoms: N_3  and  C_4
REMARK    3  A    between atoms: N_9  and  C_10
REMARK    4  A    between atoms: C_10  and  C_11
REMARK    5  A    between atoms: C_25  and  C_26
REMARK                            x       y       z     vdW  Elec       q    Type
REMARK                         _______ _______ _______ _____ _____    ______ ____
ROOT
ATOM      1  O   UNL     1       2.150  11.018  18.000  0.00  0.00    +0.000 OA
ATOM      2  C   UNL     1       1.247  10.454  18.604  0.00  0.00    +0.000 C 
ATOM      3  N   UNL     1      -0.012  10.966  18.780  0.00  0.00    +0.000 N 
ATOM      4  H   UNL     1      -0.627  10.571  19.485  0.00  0.00    +0.000 HD
ENDROOT
BRANCH   2   5
ATOM      5  C   UNL     1       1.478   9.139  19.254  0.00  0.00    +0.000 A 
ATOM      6  C   UNL     1       0.999   8.878  20.543  0.00  0.00    +0.000 A 
ATOM      7  C   UNL     1       1.247   7.652  21.168  0.00  0.00    +0.000 A 
ATOM      8  C   UNL     1       2.010   6.719  20.457  0.00  0.00    +0.000 A 
ATOM      9  N   UNL     1       2.435   5.460  20.779  0.00  0.00    +0.000 N 
ATOM     10  N   UNL     1       3.179   4.867  19.833  0.00  0.00    +0.000 NA
ATOM     11  C   UNL     1       3.260   5.778  18.849  0.00  0.00    +0.000 A 
ATOM     12  C   UNL     1       2.504   6.949  19.178  0.00  0.00    +0.000 A 
ATOM     13  C   UNL     1       2.196   8.170  18.543  0.00  0.00    +0.000 A 
ATOM     14  H   UNL     1       2.258   4.951  21.637  0.00  0.00    +0.000 HD
BRANCH  11  15
ATOM     15  C   UNL     1       4.058   5.529  17.648  0.00  0.00    +0.000 A 
ATOM     16  C   UNL     1       4.672   6.582  16.970  0.00  0.00    +0.000 A 
ATOM     17  C   UNL     1       5.423   6.292  15.842  0.00  0.00    +0.000 A 
ATOM     18  N   UNL     1       5.599   5.044  15.354  0.00  0.00    +0.000 NA
ATOM     19  C   UNL     1       4.982   4.045  16.015  0.00  0.00    +0.000 A 
ATOM     20  C   UNL     1       4.202   4.235  17.141  0.00  0.00    +0.000 A 
ENDBRANCH  11  15
ENDBRANCH   2   5
BRANCH   3  21
ATOM     21  C   UNL     1      -0.464  12.248  18.245  0.00  0.00    +0.000 C 
ATOM     22  C   UNL     1      -0.222  13.402  19.218  0.00  0.00    +0.000 C 
ATOM     23  C   UNL     1      -0.997  13.337  20.531  0.00  0.00    +0.000 C 
ATOM     24  C   UNL     1      -2.503  13.473  20.351  0.00  0.00    +0.000 C 
ATOM     25  C   UNL     1      -3.264  12.215  19.912  0.00  0.00    +0.000 C 
ATOM     26  N   UNL     1      -2.729  11.371  18.829  0.00  0.00    +0.000 NA
ATOM     27  C   UNL     1      -1.947  12.111  17.817  0.00  0.00    +0.000 C 
BRANCH  26  28
ATOM     28  C   UNL     1      -3.817  10.587  18.192  0.00  0.00    +0.000 C 
BRANCH  28  29
ATOM     29  C   UNL     1      -5.142  11.317  18.179  0.00  0.00    +0.000 A 
ATOM     30  C   UNL     1      -6.045  11.185  19.245  0.00  0.00    +0.000 A 
ATOM     31  C   UNL     1      -7.240  11.907  19.258  0.00  0.00    +0.000 A 
ATOM     32  C   UNL     1      -7.553  12.761  18.202  0.00  0.00    +0.000 A 
ATOM     33  C   UNL     1      -6.681  12.875  17.120  0.00  0.00    +0.000 A 
ATOM     34  C   UNL     1      -5.492  12.150  17.113  0.00  0.00    +0.000 A 
ATOM     35  F   UNL     1      -4.670  12.276  16.060  0.00  0.00    +0.000 F 
ENDBRANCH  28  29
ENDBRANCH  26  28
ENDBRANCH   3  21
TORSDOF 5
ENDMDL
MODEL 8
REMARK VINA RESULT:      -8.1      4.010      8.633
REMARK  Name = 
REMARK  5 active torsions:
REMARK  status: ('A' for Active; 'I' for Inactive)
REMARK    1  A    between atoms: C_2  and  C_19
REMARK    2  A    between atoms: N_3  and  C_4
REMARK    3  A    between atoms: N_9  and  C_10
REMARK    4  A    between atoms: C_10  and  C_11
REMARK    5  A    between atoms: C_25  and  C_26
REMARK                            x       y       z     vdW  Elec       q    Type
REMARK                         _______ _______ _______ _____ _____    ______ ____
ROOT
ATOM      1  O   UNL     1      -0.270   9.635  17.464  0.00  0.00    +0.000 OA
ATOM      2  C   UNL     1      -1.014  10.309  18.163  0.00  0.00    +0.000 C 
ATOM      3  N   UNL     1      -0.723  10.724  19.437  0.00  0.00    +0.000 N 
ATOM      4  H   UNL     1      -1.465  11.062  20.042  0.00  0.00    +0.000 HD
ENDROOT
BRANCH   2   5
ATOM      5  C   UNL     1      -2.360  10.702  17.676  0.00  0.00    +0.000 A 
ATOM      6  C   UNL     1      -2.709  10.562  16.327  0.00  0.00    +0.000 A 
ATOM      7  C   UNL     1      -3.965  10.964  15.863  0.00  0.00    +0.000 A 
ATOM      8  C   UNL     1      -4.836  11.531  16.799  0.00  0.00    +0.000 A 
ATOM      9  N   UNL     1      -6.103  12.030  16.673  0.00  0.00    +0.000 N 
ATOM     10  N   UNL     1      -6.622  12.518  17.810  0.00  0.00    +0.000 NA
ATOM     11  C   UNL     1      -5.652  12.346  18.724  0.00  0.00    +0.000 A 
ATOM     12  C   UNL     1      -4.519  11.689  18.143  0.00  0.00    +0.000 A 
ATOM     13  C   UNL     1      -3.270  11.226  18.603  0.00  0.00    +0.000 A 
ATOM     14  H   UNL     1      -6.667  12.076  15.832  0.00  0.00    +0.000 HD
BRANCH  11  15
ATOM     15  C   UNL     1      -5.811  12.820  20.099  0.00  0.00    +0.000 A 
ATOM     16  C   UNL     1      -6.639  12.144  20.994  0.00  0.00    +0.000 A 
ATOM     17  C   UNL     1      -6.748  12.629  22.288  0.00  0.00    +0.000 A 
ATOM     18  N   UNL     1      -6.099  13.724  22.739  0.00  0.00    +0.000 NA
ATOM     19  C   UNL     1      -5.318  14.372  21.851  0.00  0.00    +0.000 A 
ATOM     20  C   UNL     1      -5.155  13.973  20.538  0.00  0.00    +0.000 A 
ENDBRANCH  11  15
ENDBRANCH   2   5
BRANCH   3  21
ATOM     21  C   UNL     1       0.532  10.445  20.129  0.00  0.00    +0.000 C 
ATOM     22  C   UNL     1       0.600   9.010  20.655  0.00  0.00    +0.000 C 
ATOM     23  C   UNL     1      -0.422   8.648  21.730  0.00  0.00    +0.000 C 
ATOM     24  C   UNL     1      -0.216   9.404  23.037  0.00  0.00    +0.000 C 
ATOM     25  C   UNL     1      -0.753  10.840  23.097  0.00  0.00    +0.000 C 
ATOM     26  N   UNL     1      -0.520  11.762  21.972  0.00  0.00    +0.000 NA
ATOM     27  C   UNL     1       0.736  11.510  21.235  0.00  0.00    +0.000 C 
BRANCH  26  28
ATOM     28  C   UNL     1      -0.595  13.173  22.429  0.00  0.00    +0.000 C 
BRANCH  28  29
ATOM     29  C   UNL     1      -0.100  14.158  21.392  0.00  0.00    +0.000 A 
ATOM     30  C   UNL     1       1.100  14.858  21.583  0.00  0.00    +0.000 A 
ATOM     31  C   UNL     1       1.584  15.721  20.596  0.00  0.00    +0.000 A 
ATOM     32  C   UNL     1       0.869  15.903  19.414  0.00  0.00    +0.000 A 
ATOM     33  C   UNL     1      -0.343  15.239  19.227  0.00  0.00    +0.000 A 
ATOM     34  C   UNL     1      -0.820  14.382  20.215  0.00  0.00    +0.000 A 
ATOM     35  F   UNL     1      -1.989  13.757  20.013  0.00  0.00    +0.000 F 
ENDBRANCH  28  29
ENDBRANCH  26  28
ENDBRANCH   3  21
TORSDOF 5
ENDMDL
MODEL 9
REMARK VINA RESULT:      -8.1      3.161      4.931
REMARK  Name = 
REMARK  5 active torsions:
REMARK  status: ('A' for Active; 'I' for Inactive)
REMARK    1  A    between atoms: C_2  and  C_19
REMARK    2  A    between atoms: N_3  and  C_4
REMARK    3  A    between atoms: N_9  and  C_10
REMARK    4  A    between atoms: C_10  and  C_11
REMARK    5  A    between atoms: C_25  and  C_26
REMARK                            x       y       z     vdW  Elec       q    Type
REMARK                         _______ _______ _______ _____ _____    ______ ____
ROOT
ATOM      1  O   UNL     1      -0.428   9.201  22.152  0.00  0.00    +0.000 OA
ATOM      2  C   UNL     1       0.065   9.981  21.349  0.00  0.00    +0.000 C 
ATOM      3  N   UNL     1      -0.128  11.339  21.362  0.00  0.00    +0.000 N 
ATOM      4  H   UNL     1       0.100  11.891  20.542  0.00  0.00    +0.000 HD
ENDROOT
BRANCH   2   5
ATOM      5  C   UNL     1       0.904   9.486  20.229  0.00  0.00    +0.000 A 
ATOM      6  C   UNL     1       1.139  10.277  19.098  0.00  0.00    +0.000 A 
ATOM      7  C   UNL     1       1.901   9.796  18.029  0.00  0.00    +0.000 A 
ATOM      8  C   UNL     1       2.389   8.489  18.134  0.00  0.00    +0.000 A 
ATOM      9  N   UNL     1       3.138   7.729  17.279  0.00  0.00    +0.000 N 
ATOM     10  N   UNL     1       3.401   6.491  17.723  0.00  0.00    +0.000 NA
ATOM     11  C   UNL     1       2.788   6.425  18.917  0.00  0.00    +0.000 A 
ATOM     12  C   UNL     1       2.170   7.676  19.240  0.00  0.00    +0.000 A 
ATOM     13  C   UNL     1       1.447   8.199  20.331  0.00  0.00    +0.000 A 
ATOM     14  H   UNL     1       3.495   7.996  16.369  0.00  0.00    +0.000 HD
BRANCH  11  15
ATOM     15  C   UNL     1       2.786   5.190  19.703  0.00  0.00    +0.000 A 
ATOM     16  C   UNL     1       1.862   5.002  20.730  0.00  0.00    +0.000 A 
ATOM     17  C   UNL     1       1.896   3.811  21.439  0.00  0.00    +0.000 A 
ATOM     18  N   UNL     1       2.775   2.814  21.195  0.00  0.00    +0.000 NA
ATOM     19  C   UNL     1       3.669   3.026  20.209  0.00  0.00    +0.000 A 
ATOM     20  C   UNL     1       3.723   4.184  19.456  0.00  0.00    +0.000 A 
ENDBRANCH  11  15
ENDBRANCH   2   5
BRANCH   3  21
ATOM     21  C   UNL     1      -0.926  12.049  22.358  0.00  0.00    +0.000 C 
ATOM     22  C   UNL     1      -2.422  12.000  22.047  0.00  0.00    +0.000 C 
ATOM     23  C   UNL     1      -2.857  12.700  20.762  0.00  0.00    +0.000 C 
ATOM     24  C   UNL     1      -2.658  14.210  20.800  0.00  0.00    +0.000 C 
ATOM     25  C   UNL     1      -1.239  14.728  20.529  0.00  0.00    +0.000 C 
ATOM     26  N   UNL     1      -0.083  14.079  21.171  0.00  0.00    +0.000 NA
ATOM     27  C   UNL     1      -0.378  13.492  22.495  0.00  0.00    +0.000 C 
BRANCH  26  28
ATOM     28  C   UNL     1       1.065  15.017  21.249  0.00  0.00    +0.000 C 
BRANCH  28  29
ATOM     29  C   UNL     1       1.844  15.108  19.955  0.00  0.00    +0.000 A 
ATOM     30  C   UNL     1       1.820  16.280  19.184  0.00  0.00    +0.000 A 
ATOM     31  C   UNL     1       2.587  16.382  18.022  0.00  0.00    +0.000 A 
ATOM     32  C   UNL     1       3.379  15.312  17.609  0.00  0.00    +0.000 A 
ATOM     33  C   UNL     1       3.385  14.129  18.347  0.00  0.00    +0.000 A 
ATOM     34  C   UNL     1       2.615  14.034  19.505  0.00  0.00    +0.000 A 
ATOM     35  F   UNL     1       2.636  12.885  20.196  0.00  0.00    +0.000 F 
ENDBRANCH  28  29
ENDBRANCH  26  28
ENDBRANCH   3  21
TORSDOF 5
ENDMDL
