MODEL 1
REMARK VINA RESULT:      -5.6      0.000      0.000
REMARK  Name = 
REMARK  9 active torsions:
REMARK  status: ('A' for Active; 'I' for Inactive)
REMARK    1  A    between atoms: C_1  and  O_2
REMARK    2  A    between atoms: O_2  and  C_3
REMARK    3  A    between atoms: C_3  and  C_4
REMARK    4  A    between atoms: C_5  and  C_6
REMARK    5  A    between atoms: C_6  and  O_8
REMARK    6  A    between atoms: C_9  and  CA_10
REMARK    7  A    between atoms: CA_10  and  N_11
REMARK    8  A    between atoms: CA_10  and  C_12
REMARK    9  A    between atoms: C_12  and  OXT_14
REMARK                            x       y       z     vdW  Elec       q    Type
REMARK                         _______ _______ _______ _____ _____    ______ ____
ROOT
ATOM      1  C   UNL     1       5.670   4.096  16.437  0.00  0.00    +0.000 C 
ATOM      2  C   UNL     1       6.144   5.147  15.457  0.00  0.00    +0.000 C 
ATOM      3  C   UNL     1       6.817   5.030  16.814  0.00  0.00    +0.000 C 
ENDROOT
BRANCH   2   4
ATOM      4  C   UNL     1       6.870   4.737  14.229  0.00  0.00    +0.000 C 
ATOM      5  O   UNL     1       7.784   5.394  13.757  0.00  0.00    +0.000 OA
BRANCH   4   6
ATOM      6  O   UNL     1       6.448   3.562  13.714  0.00  0.00    +0.000 OA
ATOM      7  H   UNL     1       7.118   3.133  13.148  0.00  0.00    +0.000 HD
ENDBRANCH   4   6
ENDBRANCH   2   4
BRANCH   1   8
ATOM      8  C   UNL     1       4.268   4.186  16.950  0.00  0.00    +0.000 C 
BRANCH   8  10
ATOM      9  C   UNL     1       4.422   3.312  19.135  0.00  0.00    +0.000 C 
ATOM     10  O   UNL     1       4.038   3.057  17.789  0.00  0.00    +0.000 OA
ENDBRANCH   8  10
ENDBRANCH   1   8
BRANCH   3  11
ATOM     11  CA  UNL     1       6.721   6.206  17.751  0.00  0.00    +0.000 C 
BRANCH  11  12
ATOM     12  N   UNL     1       7.204   7.373  16.984  0.00  0.00    +0.000 NA
ATOM     13  H1  UNL     1       8.224   7.410  17.056  0.00  0.00    +0.000 HD
ATOM     14  H2  UNL     1       6.902   8.214  17.487  0.00  0.00    +0.000 HD
ENDBRANCH  11  12
BRANCH  11  15
ATOM     15  C   UNL     1       7.526   6.074  19.061  0.00  0.00    +0.000 C 
ATOM     16  O   UNL     1       7.296   5.220  19.906  0.00  0.00    +0.000 OA
BRANCH  15  17
ATOM     17  OXT UNL     1       8.560   6.938  19.188  0.00  0.00    +0.000 OA
ATOM     18  HXT UNL     1       9.284   6.625  19.762  0.00  0.00    +0.000 HD
ENDBRANCH  15  17
ENDBRANCH  11  15
ENDBRANCH   3  11
TORSDOF 8
ENDMDL
MODEL 2
REMARK VINA RESULT:      -5.5      2.866      4.541
REMARK  Name = 
REMARK  9 active torsions:
REMARK  status: ('A' for Active; 'I' for Inactive)
REMARK    1  A    between atoms: C_1  and  O_2
REMARK    2  A    between atoms: O_2  and  C_3
REMARK    3  A    between atoms: C_3  and  C_4
REMARK    4  A    between atoms: C_5  and  C_6
REMARK    5  A    between atoms: C_6  and  O_8
REMARK    6  A    between atoms: C_9  and  CA_10
REMARK    7  A    between atoms: CA_10  and  N_11
REMARK    8  A    between atoms: CA_10  and  C_12
REMARK    9  A    between atoms: C_12  and  OXT_14
REMARK                            x       y       z     vdW  Elec       q    Type
REMARK                         _______ _______ _______ _____ _____    ______ ____
ROOT
ATOM      1  C   UNL     1       4.482   5.463  17.179  0.00  0.00    +0.000 C 
ATOM      2  C   UNL     1       5.788   5.041  17.817  0.00  0.00    +0.000 C 
ATOM      3  C   UNL     1       4.761   3.986  17.443  0.00  0.00    +0.000 C 
ENDROOT
BRANCH   2   4
ATOM      4  C   UNL     1       7.054   5.152  17.051  0.00  0.00    +0.000 C 
ATOM      5  O   UNL     1       7.304   6.106  16.332  0.00  0.00    +0.000 OA
BRANCH   4   6
ATOM      6  O   UNL     1       7.905   4.123  17.253  0.00  0.00    +0.000 OA
ATOM      7  H   UNL     1       8.162   4.022  18.189  0.00  0.00    +0.000 HD
ENDBRANCH   4   6
ENDBRANCH   2   4
BRANCH   1   8
ATOM      8  C   UNL     1       3.554   6.331  17.969  0.00  0.00    +0.000 C 
BRANCH   8  10
ATOM      9  C   UNL     1       2.463   8.410  17.748  0.00  0.00    +0.000 C 
ATOM     10  O   UNL     1       3.621   7.647  17.428  0.00  0.00    +0.000 OA
ENDBRANCH   8  10
ENDBRANCH   1   8
BRANCH   3  11
ATOM     11  CA  UNL     1       4.161   3.163  18.553  0.00  0.00    +0.000 C 
BRANCH  11  12
ATOM     12  N   UNL     1       5.291   2.766  19.417  0.00  0.00    +0.000 NA
ATOM     13  H1  UNL     1       6.143   2.746  18.850  0.00  0.00    +0.000 HD
ATOM     14  H2  UNL     1       5.152   1.781  19.668  0.00  0.00    +0.000 HD
ENDBRANCH  11  12
BRANCH  11  15
ATOM     15  C   UNL     1       3.386   1.908  18.099  0.00  0.00    +0.000 C 
ATOM     16  O   UNL     1       2.283   1.954  17.571  0.00  0.00    +0.000 OA
BRANCH  15  17
ATOM     17  OXT UNL     1       4.042   0.736  18.268  0.00  0.00    +0.000 OA
ATOM     18  HXT UNL     1       3.525  -0.058  18.039  0.00  0.00    +0.000 HD
ENDBRANCH  15  17
ENDBRANCH  11  15
ENDBRANCH   3  11
TORSDOF 8
ENDMDL
MODEL 3
REMARK VINA RESULT:      -5.4      2.744      4.694
REMARK  Name = 
REMARK  9 active torsions:
REMARK  status: ('A' for Active; 'I' for Inactive)
REMARK    1  A    between atoms: C_1  and  O_2
REMARK    2  A    between atoms: O_2  and  C_3
REMARK    3  A    between atoms: C_3  and  C_4
REMARK    4  A    between atoms: C_5  and  C_6
REMARK    5  A    between atoms: C_6  and  O_8
REMARK    6  A    between atoms: C_9  and  CA_10
REMARK    7  A    between atoms: CA_10  and  N_11
REMARK    8  A    between atoms: CA_10  and  C_12
REMARK    9  A    between atoms: C_12  and  OXT_14
REMARK                            x       y       z     vdW  Elec       q    Type
REMARK                         _______ _______ _______ _____ _____    ______ ____
ROOT
ATOM      1  C   UNL     1       3.963   5.087  18.973  0.00  0.00    +0.000 C 
ATOM      2  C   UNL     1       4.059   3.595  18.737  0.00  0.00    +0.000 C 
ATOM      3  C   UNL     1       5.248   4.483  18.413  0.00  0.00    +0.000 C 
ENDROOT
BRANCH   2   4
ATOM      4  C   UNL     1       4.117   2.667  19.893  0.00  0.00    +0.000 C 
ATOM      5  O   UNL     1       3.224   2.594  20.721  0.00  0.00    +0.000 OA
BRANCH   4   6
ATOM      6  O   UNL     1       5.225   1.895  19.917  0.00  0.00    +0.000 OA
ATOM      7  H   UNL     1       5.780   2.004  19.121  0.00  0.00    +0.000 HD
ENDBRANCH   4   6
ENDBRANCH   2   4
BRANCH   1   8
ATOM      8  C   UNL     1       2.952   5.865  18.193  0.00  0.00    +0.000 C 
BRANCH   8  10
ATOM      9  C   UNL     1       2.507   8.166  17.923  0.00  0.00    +0.000 C 
ATOM     10  O   UNL     1       2.764   7.116  18.849  0.00  0.00    +0.000 OA
ENDBRANCH   8  10
ENDBRANCH   1   8
BRANCH   3  11
ATOM     11  CA  UNL     1       5.702   4.558  16.978  0.00  0.00    +0.000 C 
BRANCH  11  12
ATOM     12  N   UNL     1       5.481   3.210  16.416  0.00  0.00    +0.000 NA
ATOM     13  H1  UNL     1       4.692   2.779  16.904  0.00  0.00    +0.000 HD
ATOM     14  H2  UNL     1       6.278   2.629  16.697  0.00  0.00    +0.000 HD
ENDBRANCH  11  12
BRANCH  11  15
ATOM     15  C   UNL     1       7.173   4.975  16.772  0.00  0.00    +0.000 C 
ATOM     16  O   UNL     1       7.505   6.002  16.196  0.00  0.00    +0.000 OA
BRANCH  15  17
ATOM     17  OXT UNL     1       8.087   4.150  17.334  0.00  0.00    +0.000 OA
ATOM     18  HXT UNL     1       7.871   3.200  17.274  0.00  0.00    +0.000 HD
ENDBRANCH  15  17
ENDBRANCH  11  15
ENDBRANCH   3  11
TORSDOF 8
ENDMDL
MODEL 4
REMARK VINA RESULT:      -5.4      3.007      4.323
REMARK  Name = 
REMARK  9 active torsions:
REMARK  status: ('A' for Active; 'I' for Inactive)
REMARK    1  A    between atoms: C_1  and  O_2
REMARK    2  A    between atoms: O_2  and  C_3
REMARK    3  A    between atoms: C_3  and  C_4
REMARK    4  A    between atoms: C_5  and  C_6
REMARK    5  A    between atoms: C_6  and  O_8
REMARK    6  A    between atoms: C_9  and  CA_10
REMARK    7  A    between atoms: CA_10  and  N_11
REMARK    8  A    between atoms: CA_10  and  C_12
REMARK    9  A    between atoms: C_12  and  OXT_14
REMARK                            x       y       z     vdW  Elec       q    Type
REMARK                         _______ _______ _______ _____ _____    ______ ____
ROOT
ATOM      1  C   UNL     1       4.108   5.303  19.164  0.00  0.00    +0.000 C 
ATOM      2  C   UNL     1       4.536   3.921  18.721  0.00  0.00    +0.000 C 
ATOM      3  C   UNL     1       5.571   4.883  19.276  0.00  0.00    +0.000 C 
ENDROOT
BRANCH   2   4
ATOM      4  C   UNL     1       4.126   2.733  19.510  0.00  0.00    +0.000 C 
ATOM      5  O   UNL     1       2.956   2.437  19.691  0.00  0.00    +0.000 OA
BRANCH   4   6
ATOM      6  O   UNL     1       5.163   2.002  19.973  0.00  0.00    +0.000 OA
ATOM      7  H   UNL     1       5.593   2.404  20.751  0.00  0.00    +0.000 HD
ENDBRANCH   4   6
ENDBRANCH   2   4
BRANCH   1   8
ATOM      8  C   UNL     1       3.544   6.234  18.138  0.00  0.00    +0.000 C 
BRANCH   8  10
ATOM      9  C   UNL     1       2.318   8.240  17.952  0.00  0.00    +0.000 C 
ATOM     10  O   UNL     1       2.726   7.184  18.814  0.00  0.00    +0.000 OA
ENDBRANCH   8  10
ENDBRANCH   1   8
BRANCH   3  11
ATOM     11  CA  UNL     1       6.685   5.324  18.362  0.00  0.00    +0.000 C 
BRANCH  11  12
ATOM     12  N   UNL     1       7.195   4.093  17.725  0.00  0.00    +0.000 NA
ATOM     13  H1  UNL     1       7.214   3.348  18.426  0.00  0.00    +0.000 HD
ATOM     14  H2  UNL     1       8.187   4.246  17.517  0.00  0.00    +0.000 HD
ENDBRANCH  11  12
BRANCH  11  15
ATOM     15  C   UNL     1       7.845   6.074  19.050  0.00  0.00    +0.000 C 
ATOM     16  O   UNL     1       8.255   7.165  18.676  0.00  0.00    +0.000 OA
BRANCH  15  17
ATOM     17  OXT UNL     1       8.348   5.467  20.150  0.00  0.00    +0.000 OA
ATOM     18  HXT UNL     1       8.778   6.069  20.787  0.00  0.00    +0.000 HD
ENDBRANCH  15  17
ENDBRANCH  11  15
ENDBRANCH   3  11
TORSDOF 8
ENDMDL
MODEL 5
REMARK VINA RESULT:      -5.3      1.382      3.493
REMARK  Name = 
REMARK  9 active torsions:
REMARK  status: ('A' for Active; 'I' for Inactive)
REMARK    1  A    between atoms: C_1  and  O_2
REMARK    2  A    between atoms: O_2  and  C_3
REMARK    3  A    between atoms: C_3  and  C_4
REMARK    4  A    between atoms: C_5  and  C_6
REMARK    5  A    between atoms: C_6  and  O_8
REMARK    6  A    between atoms: C_9  and  CA_10
REMARK    7  A    between atoms: CA_10  and  N_11
REMARK    8  A    between atoms: CA_10  and  C_12
REMARK    9  A    between atoms: C_12  and  OXT_14
REMARK                            x       y       z     vdW  Elec       q    Type
REMARK                         _______ _______ _______ _____ _____    ______ ____
ROOT
ATOM      1  C   UNL     1       5.236   5.217  16.045  0.00  0.00    +0.000 C 
ATOM      2  C   UNL     1       5.353   4.016  16.959  0.00  0.00    +0.000 C 
ATOM      3  C   UNL     1       5.901   5.359  17.413  0.00  0.00    +0.000 C 
ENDROOT
BRANCH   2   4
ATOM      4  C   UNL     1       4.137   3.454  17.598  0.00  0.00    +0.000 C 
ATOM      5  O   UNL     1       3.129   4.115  17.783  0.00  0.00    +0.000 OA
BRANCH   4   6
ATOM      6  O   UNL     1       4.245   2.147  17.918  0.00  0.00    +0.000 OA
ATOM      7  H   UNL     1       5.004   1.961  18.503  0.00  0.00    +0.000 HD
ENDBRANCH   4   6
ENDBRANCH   2   4
BRANCH   1   8
ATOM      8  C   UNL     1       5.947   5.180  14.730  0.00  0.00    +0.000 C 
BRANCH   8  10
ATOM      9  C   UNL     1       6.185   3.610  12.986  0.00  0.00    +0.000 C 
ATOM     10  O   UNL     1       6.172   3.813  14.394  0.00  0.00    +0.000 OA
ENDBRANCH   8  10
ENDBRANCH   1   8
BRANCH   3  11
ATOM     11  CA  UNL     1       7.382   5.466  17.663  0.00  0.00    +0.000 C 
BRANCH  11  12
ATOM     12  N   UNL     1       7.917   4.097  17.515  0.00  0.00    +0.000 NA
ATOM     13  H1  UNL     1       8.577   3.922  18.276  0.00  0.00    +0.000 HD
ATOM     14  H2  UNL     1       8.512   4.092  16.680  0.00  0.00    +0.000 HD
ENDBRANCH  11  12
BRANCH  11  15
ATOM     15  C   UNL     1       7.779   6.035  19.041  0.00  0.00    +0.000 C 
ATOM     16  O   UNL     1       7.524   5.474  20.098  0.00  0.00    +0.000 OA
BRANCH  15  17
ATOM     17  OXT UNL     1       8.496   7.183  19.003  0.00  0.00    +0.000 OA
ATOM     18  HXT UNL     1       8.537   7.666  19.849  0.00  0.00    +0.000 HD
ENDBRANCH  15  17
ENDBRANCH  11  15
ENDBRANCH   3  11
TORSDOF 8
ENDMDL
MODEL 6
REMARK VINA RESULT:      -5.3      0.608      1.008
REMARK  Name = 
REMARK  9 active torsions:
REMARK  status: ('A' for Active; 'I' for Inactive)
REMARK    1  A    between atoms: C_1  and  O_2
REMARK    2  A    between atoms: O_2  and  C_3
REMARK    3  A    between atoms: C_3  and  C_4
REMARK    4  A    between atoms: C_5  and  C_6
REMARK    5  A    between atoms: C_6  and  O_8
REMARK    6  A    between atoms: C_9  and  CA_10
REMARK    7  A    between atoms: CA_10  and  N_11
REMARK    8  A    between atoms: CA_10  and  C_12
REMARK    9  A    between atoms: C_12  and  OXT_14
REMARK                            x       y       z     vdW  Elec       q    Type
REMARK                         _______ _______ _______ _____ _____    ______ ____
ROOT
ATOM      1  C   UNL     1       5.653   3.924  16.208  0.00  0.00    +0.000 C 
ATOM      2  C   UNL     1       6.065   4.986  15.212  0.00  0.00    +0.000 C 
ATOM      3  C   UNL     1       6.814   4.862  16.528  0.00  0.00    +0.000 C 
ENDROOT
BRANCH   2   4
ATOM      4  C   UNL     1       6.723   4.592  13.942  0.00  0.00    +0.000 C 
ATOM      5  O   UNL     1       7.561   5.288  13.393  0.00  0.00    +0.000 OA
BRANCH   4   6
ATOM      6  O   UNL     1       6.332   3.385  13.478  0.00  0.00    +0.000 OA
ATOM      7  H   UNL     1       6.169   2.739  14.192  0.00  0.00    +0.000 HD
ENDBRANCH   4   6
ENDBRANCH   2   4
BRANCH   1   8
ATOM      8  C   UNL     1       4.281   4.000  16.800  0.00  0.00    +0.000 C 
BRANCH   8  10
ATOM      9  C   UNL     1       3.185   3.687  18.864  0.00  0.00    +0.000 C 
ATOM     10  O   UNL     1       4.319   3.357  18.071  0.00  0.00    +0.000 OA
ENDBRANCH   8  10
ENDBRANCH   1   8
BRANCH   3  11
ATOM     11  CA  UNL     1       6.764   6.029  17.479  0.00  0.00    +0.000 C 
BRANCH  11  12
ATOM     12  N   UNL     1       7.630   7.069  16.887  0.00  0.00    +0.000 NA
ATOM     13  H1  UNL     1       7.256   7.987  17.141  0.00  0.00    +0.000 HD
ATOM     14  H2  UNL     1       7.497   7.033  15.871  0.00  0.00    +0.000 HD
ENDBRANCH  11  12
BRANCH  11  15
ATOM     15  C   UNL     1       7.225   5.726  18.921  0.00  0.00    +0.000 C 
ATOM     16  O   UNL     1       8.287   6.120  19.383  0.00  0.00    +0.000 OA
BRANCH  15  17
ATOM     17  OXT UNL     1       6.335   5.038  19.674  0.00  0.00    +0.000 OA
ATOM     18  HXT UNL     1       6.016   4.208  19.272  0.00  0.00    +0.000 HD
ENDBRANCH  15  17
ENDBRANCH  11  15
ENDBRANCH   3  11
TORSDOF 8
ENDMDL
MODEL 7
REMARK VINA RESULT:      -5.3      2.873      4.819
REMARK  Name = 
REMARK  9 active torsions:
REMARK  status: ('A' for Active; 'I' for Inactive)
REMARK    1  A    between atoms: C_1  and  O_2
REMARK    2  A    between atoms: O_2  and  C_3
REMARK    3  A    between atoms: C_3  and  C_4
REMARK    4  A    between atoms: C_5  and  C_6
REMARK    5  A    between atoms: C_6  and  O_8
REMARK    6  A    between atoms: C_9  and  CA_10
REMARK    7  A    between atoms: CA_10  and  N_11
REMARK    8  A    between atoms: CA_10  and  C_12
REMARK    9  A    between atoms: C_12  and  OXT_14
REMARK                            x       y       z     vdW  Elec       q    Type
REMARK                         _______ _______ _______ _____ _____    ______ ____
ROOT
ATOM      1  C   UNL     1       4.582   5.423  17.484  0.00  0.00    +0.000 C 
ATOM      2  C   UNL     1       5.716   5.096  18.432  0.00  0.00    +0.000 C 
ATOM      3  C   UNL     1       4.888   3.970  17.837  0.00  0.00    +0.000 C 
ENDROOT
BRANCH   2   4
ATOM      4  C   UNL     1       7.121   5.296  17.998  0.00  0.00    +0.000 C 
ATOM      5  O   UNL     1       7.971   4.428  18.111  0.00  0.00    +0.000 OA
BRANCH   4   6
ATOM      6  O   UNL     1       7.352   6.504  17.441  0.00  0.00    +0.000 OA
ATOM      7  H   UNL     1       8.278   6.797  17.541  0.00  0.00    +0.000 HD
ENDBRANCH   4   6
ENDBRANCH   2   4
BRANCH   1   8
ATOM      8  C   UNL     1       3.430   6.223  18.005  0.00  0.00    +0.000 C 
BRANCH   8  10
ATOM      9  C   UNL     1       2.462   8.368  17.851  0.00  0.00    +0.000 C 
ATOM     10  O   UNL     1       3.611   7.573  17.584  0.00  0.00    +0.000 OA
ENDBRANCH   8  10
ENDBRANCH   1   8
BRANCH   3  11
ATOM     11  CA  UNL     1       4.090   3.108  18.781  0.00  0.00    +0.000 C 
BRANCH  11  12
ATOM     12  N   UNL     1       5.064   2.566  19.751  0.00  0.00    +0.000 NA
ATOM     13  H1  UNL     1       5.899   3.156  19.737  0.00  0.00    +0.000 HD
ATOM     14  H2  UNL     1       5.400   1.672  19.378  0.00  0.00    +0.000 HD
ENDBRANCH  11  12
BRANCH  11  15
ATOM     15  C   UNL     1       3.313   1.950  18.120  0.00  0.00    +0.000 C 
ATOM     16  O   UNL     1       2.302   2.115  17.451  0.00  0.00    +0.000 OA
BRANCH  15  17
ATOM     17  OXT UNL     1       3.866   0.724  18.278  0.00  0.00    +0.000 OA
ATOM     18  HXT UNL     1       3.875   0.174  17.472  0.00  0.00    +0.000 HD
ENDBRANCH  15  17
ENDBRANCH  11  15
ENDBRANCH   3  11
TORSDOF 8
ENDMDL
MODEL 8
REMARK VINA RESULT:      -5.2      2.570      4.030
REMARK  Name = 
REMARK  9 active torsions:
REMARK  status: ('A' for Active; 'I' for Inactive)
REMARK    1  A    between atoms: C_1  and  O_2
REMARK    2  A    between atoms: O_2  and  C_3
REMARK    3  A    between atoms: C_3  and  C_4
REMARK    4  A    between atoms: C_5  and  C_6
REMARK    5  A    between atoms: C_6  and  O_8
REMARK    6  A    between atoms: C_9  and  CA_10
REMARK    7  A    between atoms: CA_10  and  N_11
REMARK    8  A    between atoms: CA_10  and  C_12
REMARK    9  A    between atoms: C_12  and  OXT_14
REMARK                            x       y       z     vdW  Elec       q    Type
REMARK                         _______ _______ _______ _____ _____    ______ ____
ROOT
ATOM      1  C   UNL     1       4.360   5.483  18.692  0.00  0.00    +0.000 C 
ATOM      2  C   UNL     1       4.638   4.061  18.257  0.00  0.00    +0.000 C 
ATOM      3  C   UNL     1       5.787   4.941  18.720  0.00  0.00    +0.000 C 
ENDROOT
BRANCH   2   4
ATOM      4  C   UNL     1       4.182   2.928  19.100  0.00  0.00    +0.000 C 
ATOM      5  O   UNL     1       3.049   2.480  19.038  0.00  0.00    +0.000 OA
BRANCH   4   6
ATOM      6  O   UNL     1       5.142   2.428  19.907  0.00  0.00    +0.000 OA
ATOM      7  H   UNL     1       5.840   3.078  20.113  0.00  0.00    +0.000 HD
ENDBRANCH   4   6
ENDBRANCH   2   4
BRANCH   1   8
ATOM      8  C   UNL     1       3.811   6.440  17.681  0.00  0.00    +0.000 C 
BRANCH   8  10
ATOM      9  C   UNL     1       2.418   6.745  19.559  0.00  0.00    +0.000 C 
ATOM     10  O   UNL     1       2.914   7.318  18.355  0.00  0.00    +0.000 OA
ENDBRANCH   8  10
ENDBRANCH   1   8
BRANCH   3  11
ATOM     11  CA  UNL     1       6.871   5.266  17.726  0.00  0.00    +0.000 C 
BRANCH  11  12
ATOM     12  N   UNL     1       7.836   4.150  17.803  0.00  0.00    +0.000 NA
ATOM     13  H1  UNL     1       8.770   4.512  17.595  0.00  0.00    +0.000 HD
ATOM     14  H2  UNL     1       7.644   3.526  17.012  0.00  0.00    +0.000 HD
ENDBRANCH  11  12
BRANCH  11  15
ATOM     15  C   UNL     1       7.602   6.605  17.960  0.00  0.00    +0.000 C 
ATOM     16  O   UNL     1       7.488   7.570  17.217  0.00  0.00    +0.000 OA
BRANCH  15  17
ATOM     17  OXT UNL     1       8.339   6.665  19.093  0.00  0.00    +0.000 OA
ATOM     18  HXT UNL     1       9.188   7.136  19.003  0.00  0.00    +0.000 HD
ENDBRANCH  15  17
ENDBRANCH  11  15
ENDBRANCH   3  11
TORSDOF 8
ENDMDL
MODEL 9
REMARK VINA RESULT:      -5.2      1.848      3.802
REMARK  Name = 
REMARK  9 active torsions:
REMARK  status: ('A' for Active; 'I' for Inactive)
REMARK    1  A    between atoms: C_1  and  O_2
REMARK    2  A    between atoms: O_2  and  C_3
REMARK    3  A    between atoms: C_3  and  C_4
REMARK    4  A    between atoms: C_5  and  C_6
REMARK    5  A    between atoms: C_6  and  O_8
REMARK    6  A    between atoms: C_9  and  CA_10
REMARK    7  A    between atoms: CA_10  and  N_11
REMARK    8  A    between atoms: CA_10  and  C_12
REMARK    9  A    between atoms: C_12  and  OXT_14
REMARK                            x       y       z     vdW  Elec       q    Type
REMARK                         _______ _______ _______ _____ _____    ______ ____
ROOT
ATOM      1  C   UNL     1       5.158   5.473  17.113  0.00  0.00    +0.000 C 
ATOM      2  C   UNL     1       5.596   4.286  17.943  0.00  0.00    +0.000 C 
ATOM      3  C   UNL     1       6.051   5.682  18.334  0.00  0.00    +0.000 C 
ENDROOT
BRANCH   2   4
ATOM      4  C   UNL     1       4.606   3.564  18.780  0.00  0.00    +0.000 C 
ATOM      5  O   UNL     1       3.402   3.700  18.635  0.00  0.00    +0.000 OA
BRANCH   4   6
ATOM      6  O   UNL     1       5.163   2.726  19.681  0.00  0.00    +0.000 OA
ATOM      7  H   UNL     1       5.164   1.796  19.384  0.00  0.00    +0.000 HD
ENDBRANCH   4   6
ENDBRANCH   2   4
BRANCH   1   8
ATOM      8  C   UNL     1       5.601   5.544  15.686  0.00  0.00    +0.000 C 
BRANCH   8  10
ATOM      9  C   UNL     1       6.266   4.019  14.015  0.00  0.00    +0.000 C 
ATOM     10  O   UNL     1       5.375   4.267  15.096  0.00  0.00    +0.000 OA
ENDBRANCH   8  10
ENDBRANCH   1   8
BRANCH   3  11
ATOM     11  CA  UNL     1       7.528   5.976  18.303  0.00  0.00    +0.000 C 
BRANCH  11  12
ATOM     12  N   UNL     1       8.052   5.544  19.614  0.00  0.00    +0.000 NA
ATOM     13  H1  UNL     1       9.042   5.308  19.507  0.00  0.00    +0.000 HD
ATOM     14  H2  UNL     1       7.617   4.642  19.834  0.00  0.00    +0.000 HD
ENDBRANCH  11  12
BRANCH  11  15
ATOM     15  C   UNL     1       7.901   7.453  18.052  0.00  0.00    +0.000 C 
ATOM     16  O   UNL     1       7.450   8.111  17.124  0.00  0.00    +0.000 OA
BRANCH  15  17
ATOM     17  OXT UNL     1       8.724   8.001  18.977  0.00  0.00    +0.000 OA
ATOM     18  HXT UNL     1       9.663   7.754  18.884  0.00  0.00    +0.000 HD
ENDBRANCH  15  17
ENDBRANCH  11  15
ENDBRANCH   3  11
TORSDOF 8
ENDMDL
