MODEL 1
REMARK VINA RESULT:      -7.2      0.000      0.000
REMARK  Name = 
REMARK  2 active torsions:
REMARK  status: ('A' for Active; 'I' for Inactive)
REMARK    1  A    between atoms: C_1  and  C_2
REMARK    2  A    between atoms: C_12  and  N_13
REMARK                            x       y       z     vdW  Elec       q    Type
REMARK                         _______ _______ _______ _____ _____    ______ ____
ROOT
ATOM      1  C   UNL     1      -1.162  12.196  22.548  0.00  0.00    +0.000 C 
ATOM      2  C   UNL     1      -0.638  11.388  21.420  0.00  0.00    +0.000 A 
ATOM      3  C   UNL     1      -0.825  11.537  20.063  0.00  0.00    +0.000 A 
ATOM      4  N   UNL     1      -0.101  10.674  19.263  0.00  0.00    +0.000 NA
ATOM      5  C   UNL     1       0.559   9.814  20.008  0.00  0.00    +0.000 A 
ATOM      6  N   UNL     1       1.403   8.829  19.553  0.00  0.00    +0.000 N 
ATOM      7  C   UNL     1       2.012   8.894  18.326  0.00  0.00    +0.000 C 
ATOM      8  O   UNL     1       2.026   9.743  17.454  0.00  0.00    +0.000 OA
ATOM      9  C   UNL     1       2.805   7.668  18.208  0.00  0.00    +0.000 A 
ATOM     10  C   UNL     1       3.655   7.242  17.206  0.00  0.00    +0.000 A 
ATOM     11  C   UNL     1       4.270   5.991  17.368  0.00  0.00    +0.000 A 
ATOM     12  C   UNL     1       4.007   5.206  18.518  0.00  0.00    +0.000 A 
ATOM     13  C   UNL     1       3.153   5.665  19.531  0.00  0.00    +0.000 A 
ATOM     14  C   UNL     1       2.582   6.911  19.344  0.00  0.00    +0.000 A 
ATOM     15  C   UNL     1       1.680   7.662  20.214  0.00  0.00    +0.000 C 
ATOM     16  O   UNL     1       1.289   7.194  21.265  0.00  0.00    +0.000 OA
ATOM     17  S   UNL     1       0.379  10.042  21.701  0.00  0.00    +0.000 S 
ENDROOT
BRANCH  12  18
ATOM     18  N   UNL     1       4.640   3.887  18.656  0.00  0.00    +0.000 N 
ATOM     19  O   UNL     1       5.653   3.807  19.363  0.00  0.00    +0.000 OA
ATOM     20  O   UNL     1       4.121   2.938  18.054  0.00  0.00    +0.000 OA
ENDBRANCH  12  18
TORSDOF 1
ENDMDL
MODEL 2
REMARK VINA RESULT:      -7.2      2.350      3.542
REMARK  Name = 
REMARK  2 active torsions:
REMARK  status: ('A' for Active; 'I' for Inactive)
REMARK    1  A    between atoms: C_1  and  C_2
REMARK    2  A    between atoms: C_12  and  N_13
REMARK                            x       y       z     vdW  Elec       q    Type
REMARK                         _______ _______ _______ _____ _____    ______ ____
ROOT
ATOM      1  C   UNL     1      -0.653  10.787  20.608  0.00  0.00    +0.000 C 
ATOM      2  C   UNL     1       0.295   9.652  20.490  0.00  0.00    +0.000 A 
ATOM      3  C   UNL     1       0.675   8.716  21.427  0.00  0.00    +0.000 A 
ATOM      4  N   UNL     1       1.503   7.712  20.963  0.00  0.00    +0.000 NA
ATOM      5  C   UNL     1       1.825   7.935  19.708  0.00  0.00    +0.000 A 
ATOM      6  N   UNL     1       2.610   7.130  18.917  0.00  0.00    +0.000 N 
ATOM      7  C   UNL     1       2.786   5.795  19.176  0.00  0.00    +0.000 C 
ATOM      8  O   UNL     1       2.318   5.047  20.015  0.00  0.00    +0.000 OA
ATOM      9  C   UNL     1       3.688   5.300  18.134  0.00  0.00    +0.000 A 
ATOM     10  C   UNL     1       4.156   4.025  17.882  0.00  0.00    +0.000 A 
ATOM     11  C   UNL     1       5.037   3.860  16.803  0.00  0.00    +0.000 A 
ATOM     12  C   UNL     1       5.428   4.975  16.019  0.00  0.00    +0.000 A 
ATOM     13  C   UNL     1       4.928   6.259  16.282  0.00  0.00    +0.000 A 
ATOM     14  C   UNL     1       4.046   6.376  17.342  0.00  0.00    +0.000 A 
ATOM     15  C   UNL     1       3.348   7.556  17.845  0.00  0.00    +0.000 C 
ATOM     16  O   UNL     1       3.527   8.650  17.347  0.00  0.00    +0.000 OA
ATOM     17  S   UNL     1       1.103   9.333  19.017  0.00  0.00    +0.000 S 
ENDROOT
BRANCH  12  18
ATOM     18  N   UNL     1       6.374   4.786  14.910  0.00  0.00    +0.000 N 
ATOM     19  O   UNL     1       6.076   3.963  14.036  0.00  0.00    +0.000 OA
ATOM     20  O   UNL     1       7.411   5.461  14.922  0.00  0.00    +0.000 OA
ENDBRANCH  12  18
TORSDOF 1
ENDMDL
MODEL 3
REMARK VINA RESULT:      -7.1      4.925      6.350
REMARK  Name = 
REMARK  2 active torsions:
REMARK  status: ('A' for Active; 'I' for Inactive)
REMARK    1  A    between atoms: C_1  and  C_2
REMARK    2  A    between atoms: C_12  and  N_13
REMARK                            x       y       z     vdW  Elec       q    Type
REMARK                         _______ _______ _______ _____ _____    ______ ____
ROOT
ATOM      1  C   UNL     1       1.114   2.525  21.952  0.00  0.00    +0.000 C 
ATOM      2  C   UNL     1       1.963   3.348  21.056  0.00  0.00    +0.000 A 
ATOM      3  C   UNL     1       2.451   4.625  21.226  0.00  0.00    +0.000 A 
ATOM      4  N   UNL     1       3.313   5.070  20.243  0.00  0.00    +0.000 NA
ATOM      5  C   UNL     1       3.406   4.173  19.285  0.00  0.00    +0.000 A 
ATOM      6  N   UNL     1       4.195   4.266  18.162  0.00  0.00    +0.000 N 
ATOM      7  C   UNL     1       5.304   5.071  18.109  0.00  0.00    +0.000 C 
ATOM      8  O   UNL     1       5.855   5.774  18.936  0.00  0.00    +0.000 OA
ATOM      9  C   UNL     1       5.853   4.908  16.761  0.00  0.00    +0.000 A 
ATOM     10  C   UNL     1       6.989   5.441  16.183  0.00  0.00    +0.000 A 
ATOM     11  C   UNL     1       7.250   5.111  14.845  0.00  0.00    +0.000 A 
ATOM     12  C   UNL     1       6.363   4.270  14.127  0.00  0.00    +0.000 A 
ATOM     13  C   UNL     1       5.223   3.727  14.738  0.00  0.00    +0.000 A 
ATOM     14  C   UNL     1       5.012   4.059  16.064  0.00  0.00    +0.000 A 
ATOM     15  C   UNL     1       3.944   3.642  16.970  0.00  0.00    +0.000 C 
ATOM     16  O   UNL     1       3.042   2.924  16.585  0.00  0.00    +0.000 OA
ATOM     17  S   UNL     1       2.504   2.736  19.553  0.00  0.00    +0.000 S 
ENDROOT
BRANCH  12  18
ATOM     18  N   UNL     1       6.639   3.960  12.717  0.00  0.00    +0.000 N 
ATOM     19  O   UNL     1       7.505   4.630  12.141  0.00  0.00    +0.000 OA
ATOM     20  O   UNL     1       5.986   3.047  12.194  0.00  0.00    +0.000 OA
ENDBRANCH  12  18
TORSDOF 1
ENDMDL
MODEL 4
REMARK VINA RESULT:      -7.0      1.166      1.474
REMARK  Name = 
REMARK  2 active torsions:
REMARK  status: ('A' for Active; 'I' for Inactive)
REMARK    1  A    between atoms: C_1  and  C_2
REMARK    2  A    between atoms: C_12  and  N_13
REMARK                            x       y       z     vdW  Elec       q    Type
REMARK                         _______ _______ _______ _____ _____    ______ ____
ROOT
ATOM      1  C   UNL     1      -0.148  12.189  21.584  0.00  0.00    +0.000 C 
ATOM      2  C   UNL     1       0.290  11.155  20.615  0.00  0.00    +0.000 A 
ATOM      3  C   UNL     1       0.247  11.158  19.238  0.00  0.00    +0.000 A 
ATOM      4  N   UNL     1       0.842  10.075  18.621  0.00  0.00    +0.000 NA
ATOM      5  C   UNL     1       1.252   9.210  19.522  0.00  0.00    +0.000 A 
ATOM      6  N   UNL     1       1.913   8.031  19.272  0.00  0.00    +0.000 N 
ATOM      7  C   UNL     1       2.619   7.817  18.117  0.00  0.00    +0.000 C 
ATOM      8  O   UNL     1       2.875   8.525  17.161  0.00  0.00    +0.000 OA
ATOM      9  C   UNL     1       3.154   6.457  18.221  0.00  0.00    +0.000 A 
ATOM     10  C   UNL     1       3.977   5.748  17.367  0.00  0.00    +0.000 A 
ATOM     11  C   UNL     1       4.311   4.435  17.733  0.00  0.00    +0.000 A 
ATOM     12  C   UNL     1       3.803   3.872  18.931  0.00  0.00    +0.000 A 
ATOM     13  C   UNL     1       2.981   4.615  19.790  0.00  0.00    +0.000 A 
ATOM     14  C   UNL     1       2.692   5.912  19.405  0.00  0.00    +0.000 A 
ATOM     15  C   UNL     1       1.894   6.929  20.086  0.00  0.00    +0.000 C 
ATOM     16  O   UNL     1       1.333   6.686  21.136  0.00  0.00    +0.000 OA
ATOM     17  S   UNL     1       0.987   9.688  21.151  0.00  0.00    +0.000 S 
ENDROOT
BRANCH  12  18
ATOM     18  N   UNL     1       4.142   2.486  19.281  0.00  0.00    +0.000 N 
ATOM     19  O   UNL     1       3.580   1.581  18.651  0.00  0.00    +0.000 OA
ATOM     20  O   UNL     1       4.967   2.310  20.187  0.00  0.00    +0.000 OA
ENDBRANCH  12  18
TORSDOF 1
ENDMDL
MODEL 5
REMARK VINA RESULT:      -7.0      2.010      2.980
REMARK  Name = 
REMARK  2 active torsions:
REMARK  status: ('A' for Active; 'I' for Inactive)
REMARK    1  A    between atoms: C_1  and  C_2
REMARK    2  A    between atoms: C_12  and  N_13
REMARK                            x       y       z     vdW  Elec       q    Type
REMARK                         _______ _______ _______ _____ _____    ______ ____
ROOT
ATOM      1  C   UNL     1      -1.382  11.622  20.156  0.00  0.00    +0.000 C 
ATOM      2  C   UNL     1      -0.380  10.534  20.257  0.00  0.00    +0.000 A 
ATOM      3  C   UNL     1       0.030   9.808  21.355  0.00  0.00    +0.000 A 
ATOM      4  N   UNL     1       0.912   8.777  21.091  0.00  0.00    +0.000 NA
ATOM      5  C   UNL     1       1.242   8.779  19.818  0.00  0.00    +0.000 A 
ATOM      6  N   UNL     1       2.076   7.880  19.196  0.00  0.00    +0.000 N 
ATOM      7  C   UNL     1       2.312   6.627  19.702  0.00  0.00    +0.000 C 
ATOM      8  O   UNL     1       1.867   6.026  20.662  0.00  0.00    +0.000 OA
ATOM      9  C   UNL     1       3.251   5.992  18.775  0.00  0.00    +0.000 A 
ATOM     10  C   UNL     1       3.784   4.717  18.769  0.00  0.00    +0.000 A 
ATOM     11  C   UNL     1       4.688   4.398  17.745  0.00  0.00    +0.000 A 
ATOM     12  C   UNL     1       5.037   5.365  16.769  0.00  0.00    +0.000 A 
ATOM     13  C   UNL     1       4.472   6.649  16.785  0.00  0.00    +0.000 A 
ATOM     14  C   UNL     1       3.570   6.918  17.799  0.00  0.00    +0.000 A 
ATOM     15  C   UNL     1       2.809   8.135  18.068  0.00  0.00    +0.000 C 
ATOM     16  O   UNL     1       2.943   9.125  17.376  0.00  0.00    +0.000 OA
ATOM     17  S   UNL     1       0.464   9.985  18.874  0.00  0.00    +0.000 S 
ENDROOT
BRANCH  12  18
ATOM     18  N   UNL     1       6.008   5.020  15.721  0.00  0.00    +0.000 N 
ATOM     19  O   UNL     1       5.701   4.120  14.929  0.00  0.00    +0.000 OA
ATOM     20  O   UNL     1       7.072   5.651  15.697  0.00  0.00    +0.000 OA
ENDBRANCH  12  18
TORSDOF 1
ENDMDL
MODEL 6
REMARK VINA RESULT:      -6.9      1.612      2.634
REMARK  Name = 
REMARK  2 active torsions:
REMARK  status: ('A' for Active; 'I' for Inactive)
REMARK    1  A    between atoms: C_1  and  C_2
REMARK    2  A    between atoms: C_12  and  N_13
REMARK                            x       y       z     vdW  Elec       q    Type
REMARK                         _______ _______ _______ _____ _____    ______ ____
ROOT
ATOM      1  C   UNL     1      -2.093  12.330  19.909  0.00  0.00    +0.000 C 
ATOM      2  C   UNL     1      -1.028  11.322  20.132  0.00  0.00    +0.000 A 
ATOM      3  C   UNL     1      -0.515  10.823  21.310  0.00  0.00    +0.000 A 
ATOM      4  N   UNL     1       0.406   9.802  21.173  0.00  0.00    +0.000 NA
ATOM      5  C   UNL     1       0.661   9.591  19.900  0.00  0.00    +0.000 A 
ATOM      6  N   UNL     1       1.506   8.633  19.391  0.00  0.00    +0.000 N 
ATOM      7  C   UNL     1       1.839   7.502  20.091  0.00  0.00    +0.000 C 
ATOM      8  O   UNL     1       1.485   7.063  21.170  0.00  0.00    +0.000 OA
ATOM      9  C   UNL     1       2.758   6.755  19.230  0.00  0.00    +0.000 A 
ATOM     10  C   UNL     1       3.359   5.524  19.411  0.00  0.00    +0.000 A 
ATOM     11  C   UNL     1       4.218   5.068  18.401  0.00  0.00    +0.000 A 
ATOM     12  C   UNL     1       4.456   5.860  17.250  0.00  0.00    +0.000 A 
ATOM     13  C   UNL     1       3.823   7.100  17.078  0.00  0.00    +0.000 A 
ATOM     14  C   UNL     1       2.968   7.505  18.087  0.00  0.00    +0.000 A 
ATOM     15  C   UNL     1       2.157   8.716  18.189  0.00  0.00    +0.000 C 
ATOM     16  O   UNL     1       2.196   9.571  17.327  0.00  0.00    +0.000 OA
ATOM     17  S   UNL     1      -0.236  10.574  18.813  0.00  0.00    +0.000 S 
ENDROOT
BRANCH  12  18
ATOM     18  N   UNL     1       5.382   5.377  16.216  0.00  0.00    +0.000 N 
ATOM     19  O   UNL     1       6.312   6.124  15.884  0.00  0.00    +0.000 OA
ATOM     20  O   UNL     1       5.173   4.254  15.740  0.00  0.00    +0.000 OA
ENDBRANCH  12  18
TORSDOF 1
ENDMDL
MODEL 7
REMARK VINA RESULT:      -6.9      2.728      7.146
REMARK  Name = 
REMARK  2 active torsions:
REMARK  status: ('A' for Active; 'I' for Inactive)
REMARK    1  A    between atoms: C_1  and  C_2
REMARK    2  A    between atoms: C_12  and  N_13
REMARK                            x       y       z     vdW  Elec       q    Type
REMARK                         _______ _______ _______ _____ _____    ______ ____
ROOT
ATOM      1  C   UNL     1       6.767   4.733  15.382  0.00  0.00    +0.000 C 
ATOM      2  C   UNL     1       5.619   4.934  16.301  0.00  0.00    +0.000 A 
ATOM      3  C   UNL     1       4.881   4.011  17.009  0.00  0.00    +0.000 A 
ATOM      4  N   UNL     1       3.937   4.537  17.870  0.00  0.00    +0.000 NA
ATOM      5  C   UNL     1       3.894   5.845  17.748  0.00  0.00    +0.000 A 
ATOM      6  N   UNL     1       3.093   6.700  18.468  0.00  0.00    +0.000 N 
ATOM      7  C   UNL     1       2.575   6.364  19.692  0.00  0.00    +0.000 C 
ATOM      8  O   UNL     1       2.710   5.387  20.407  0.00  0.00    +0.000 OA
ATOM      9  C   UNL     1       1.776   7.514  20.118  0.00  0.00    +0.000 A 
ATOM     10  C   UNL     1       1.078   7.739  21.290  0.00  0.00    +0.000 A 
ATOM     11  C   UNL     1       0.381   8.951  21.405  0.00  0.00    +0.000 A 
ATOM     12  C   UNL     1       0.394   9.891  20.344  0.00  0.00    +0.000 A 
ATOM     13  C   UNL     1       1.122   9.649  19.170  0.00  0.00    +0.000 A 
ATOM     14  C   UNL     1       1.813   8.453  19.103  0.00  0.00    +0.000 A 
ATOM     15  C   UNL     1       2.666   7.929  18.039  0.00  0.00    +0.000 C 
ATOM     16  O   UNL     1       2.829   8.547  17.005  0.00  0.00    +0.000 OA
ATOM     17  S   UNL     1       5.024   6.503  16.633  0.00  0.00    +0.000 S 
ENDROOT
BRANCH  12  18
ATOM     18  N   UNL     1      -0.366  11.142  20.473  0.00  0.00    +0.000 N 
ATOM     19  O   UNL     1      -1.194  11.404  19.591  0.00  0.00    +0.000 OA
ATOM     20  O   UNL     1      -0.130  11.856  21.456  0.00  0.00    +0.000 OA
ENDBRANCH  12  18
TORSDOF 1
ENDMDL
MODEL 8
REMARK VINA RESULT:      -6.8      2.713      6.709
REMARK  Name = 
REMARK  2 active torsions:
REMARK  status: ('A' for Active; 'I' for Inactive)
REMARK    1  A    between atoms: C_1  and  C_2
REMARK    2  A    between atoms: C_12  and  N_13
REMARK                            x       y       z     vdW  Elec       q    Type
REMARK                         _______ _______ _______ _____ _____    ______ ____
ROOT
ATOM      1  C   UNL     1       3.490   1.849  17.824  0.00  0.00    +0.000 C 
ATOM      2  C   UNL     1       3.466   3.327  17.938  0.00  0.00    +0.000 A 
ATOM      3  C   UNL     1       4.166   4.281  17.231  0.00  0.00    +0.000 A 
ATOM      4  N   UNL     1       3.832   5.592  17.508  0.00  0.00    +0.000 NA
ATOM      5  C   UNL     1       2.952   5.638  18.484  0.00  0.00    +0.000 A 
ATOM      6  N   UNL     1       2.374   6.774  19.002  0.00  0.00    +0.000 N 
ATOM      7  C   UNL     1       2.292   7.944  18.291  0.00  0.00    +0.000 C 
ATOM      8  O   UNL     1       2.603   8.244  17.153  0.00  0.00    +0.000 OA
ATOM      9  C   UNL     1       1.636   8.906  19.180  0.00  0.00    +0.000 A 
ATOM     10  C   UNL     1       1.255  10.216  18.961  0.00  0.00    +0.000 A 
ATOM     11  C   UNL     1       0.653  10.901  20.026  0.00  0.00    +0.000 A 
ATOM     12  C   UNL     1       0.461  10.259  21.276  0.00  0.00    +0.000 A 
ATOM     13  C   UNL     1       0.841   8.923  21.471  0.00  0.00    +0.000 A 
ATOM     14  C   UNL     1       1.413   8.276  20.391  0.00  0.00    +0.000 A 
ATOM     15  C   UNL     1       1.886   6.898  20.274  0.00  0.00    +0.000 C 
ATOM     16  O   UNL     1       1.844   6.140  21.223  0.00  0.00    +0.000 OA
ATOM     17  S   UNL     1       2.449   4.104  19.073  0.00  0.00    +0.000 S 
ENDROOT
BRANCH  12  18
ATOM     18  N   UNL     1      -0.146  11.004  22.388  0.00  0.00    +0.000 N 
ATOM     19  O   UNL     1      -0.233  12.233  22.275  0.00  0.00    +0.000 OA
ATOM     20  O   UNL     1      -0.530  10.354  23.369  0.00  0.00    +0.000 OA
ENDBRANCH  12  18
TORSDOF 1
ENDMDL
MODEL 9
REMARK VINA RESULT:      -6.7      1.639      2.726
REMARK  Name = 
REMARK  2 active torsions:
REMARK  status: ('A' for Active; 'I' for Inactive)
REMARK    1  A    between atoms: C_1  and  C_2
REMARK    2  A    between atoms: C_12  and  N_13
REMARK                            x       y       z     vdW  Elec       q    Type
REMARK                         _______ _______ _______ _____ _____    ______ ____
ROOT
ATOM      1  C   UNL     1      -0.459  14.157  19.279  0.00  0.00    +0.000 C 
ATOM      2  C   UNL     1       0.185  12.906  19.748  0.00  0.00    +0.000 A 
ATOM      3  C   UNL     1       0.691  12.582  20.988  0.00  0.00    +0.000 A 
ATOM      4  N   UNL     1       1.130  11.280  21.131  0.00  0.00    +0.000 NA
ATOM      5  C   UNL     1       1.046  10.646  19.982  0.00  0.00    +0.000 A 
ATOM      6  N   UNL     1       1.370   9.328  19.758  0.00  0.00    +0.000 N 
ATOM      7  C   UNL     1       1.391   8.397  20.764  0.00  0.00    +0.000 C 
ATOM      8  O   UNL     1       1.111   8.452  21.948  0.00  0.00    +0.000 OA
ATOM      9  C   UNL     1       1.792   7.137  20.135  0.00  0.00    +0.000 A 
ATOM     10  C   UNL     1       1.923   5.869  20.667  0.00  0.00    +0.000 A 
ATOM     11  C   UNL     1       2.349   4.846  19.806  0.00  0.00    +0.000 A 
ATOM     12  C   UNL     1       2.639   5.127  18.447  0.00  0.00    +0.000 A 
ATOM     13  C   UNL     1       2.484   6.419  17.923  0.00  0.00    +0.000 A 
ATOM     14  C   UNL     1       2.042   7.395  18.799  0.00  0.00    +0.000 A 
ATOM     15  C   UNL     1       1.766   8.809  18.555  0.00  0.00    +0.000 C 
ATOM     16  O   UNL     1       1.952   9.303  17.461  0.00  0.00    +0.000 OA
ATOM     17  S   UNL     1       0.384  11.572  18.695  0.00  0.00    +0.000 S 
ENDROOT
BRANCH  12  18
ATOM     18  N   UNL     1       3.111   4.048  17.568  0.00  0.00    +0.000 N 
ATOM     19  O   UNL     1       4.334   3.890  17.459  0.00  0.00    +0.000 OA
ATOM     20  O   UNL     1       2.256   3.365  16.990  0.00  0.00    +0.000 OA
ENDBRANCH  12  18
TORSDOF 1
ENDMDL
