MODEL 1
REMARK VINA RESULT:      -8.8      0.000      0.000
REMARK  Name = 
REMARK  2 active torsions:
REMARK  status: ('A' for Active; 'I' for Inactive)
REMARK    1  A    between atoms: C_1  and  O_2
REMARK    2  A    between atoms: O_2  and  C_3
REMARK                            x       y       z     vdW  Elec       q    Type
REMARK                         _______ _______ _______ _____ _____    ______ ____
ROOT
ATOM      1  C   UNL     1       1.500   4.339  19.994  0.00  0.00    +0.000 A 
ATOM      2  C   UNL     1       1.855   4.253  18.652  0.00  0.00    +0.000 A 
ATOM      3  C   UNL     1       2.257   5.407  17.928  0.00  0.00    +0.000 A 
ATOM      4  C   UNL     1       2.285   6.649  18.592  0.00  0.00    +0.000 A 
ATOM      5  N   UNL     1       2.480   7.959  18.141  0.00  0.00    +0.000 N 
ATOM      6  C   UNL     1       2.054   8.895  19.101  0.00  0.00    +0.000 A 
ATOM      7  C   UNL     1       1.754   8.114  20.236  0.00  0.00    +0.000 A 
ATOM      8  C   UNL     1       1.944   6.737  19.936  0.00  0.00    +0.000 A 
ATOM      9  C   UNL     1       1.547   5.575  20.629  0.00  0.00    +0.000 A 
ATOM     10  C   UNL     1       0.745   8.544  21.252  0.00  0.00    +0.000 C 
ATOM     11  C   UNL     1      -0.118   9.639  20.640  0.00  0.00    +0.000 C 
ATOM     12  N   UNL     1      -0.038   9.622  19.109  0.00  0.00    +0.000 N 
ATOM     13  C   UNL     1      -0.890  10.248  18.243  0.00  0.00    +0.000 C 
ATOM     14  O   UNL     1      -1.154   9.885  17.120  0.00  0.00    +0.000 OA
ATOM     15  C   UNL     1      -1.108  11.601  18.732  0.00  0.00    +0.000 A 
ATOM     16  C   UNL     1       0.032  12.164  19.357  0.00  0.00    +0.000 A 
ATOM     17  C   UNL     1      -0.238  13.147  20.305  0.00  0.00    +0.000 A 
ATOM     18  C   UNL     1      -1.602  13.457  20.632  0.00  0.00    +0.000 A 
ATOM     19  C   UNL     1      -2.730  12.834  19.990  0.00  0.00    +0.000 A 
ATOM     20  C   UNL     1      -4.089  13.003  20.367  0.00  0.00    +0.000 A 
ATOM     21  C   UNL     1      -5.128  12.279  19.739  0.00  0.00    +0.000 A 
ATOM     22  C   UNL     1      -4.847  11.396  18.714  0.00  0.00    +0.000 A 
ATOM     23  C   UNL     1      -3.531  11.226  18.336  0.00  0.00    +0.000 A 
ATOM     24  C   UNL     1      -2.463  11.916  18.976  0.00  0.00    +0.000 A 
ATOM     25  O   UNL     1       1.320  11.477  19.322  0.00  0.00    +0.000 OA
ATOM     26  C   UNL     1       1.229  10.124  18.684  0.00  0.00    +0.000 C 
ATOM     27  H   UNL     1       2.539   8.169  17.154  0.00  0.00    +0.000 HD
ENDROOT
BRANCH   1  29
ATOM     28  C   UNL     1       1.845   2.720  21.705  0.00  0.00    +0.000 C 
ATOM     29  O   UNL     1       0.975   3.345  20.776  0.00  0.00    +0.000 OA
ENDBRANCH   1  29
TORSDOF 1
ENDMDL
MODEL 2
REMARK VINA RESULT:      -8.6      0.892      1.051
REMARK  Name = 
REMARK  2 active torsions:
REMARK  status: ('A' for Active; 'I' for Inactive)
REMARK    1  A    between atoms: C_1  and  O_2
REMARK    2  A    between atoms: O_2  and  C_3
REMARK                            x       y       z     vdW  Elec       q    Type
REMARK                         _______ _______ _______ _____ _____    ______ ____
ROOT
ATOM      1  C   UNL     1       1.914   5.141  20.097  0.00  0.00    +0.000 A 
ATOM      2  C   UNL     1       2.340   5.116  18.773  0.00  0.00    +0.000 A 
ATOM      3  C   UNL     1       2.530   6.320  18.044  0.00  0.00    +0.000 A 
ATOM      4  C   UNL     1       2.271   7.549  18.683  0.00  0.00    +0.000 A 
ATOM      5  N   UNL     1       2.213   8.865  18.214  0.00  0.00    +0.000 N 
ATOM      6  C   UNL     1       1.559   9.703  19.136  0.00  0.00    +0.000 A 
ATOM      7  C   UNL     1       1.374   8.890  20.273  0.00  0.00    +0.000 A 
ATOM      8  C   UNL     1       1.858   7.579  20.009  0.00  0.00    +0.000 A 
ATOM      9  C   UNL     1       1.677   6.367  20.708  0.00  0.00    +0.000 A 
ATOM     10  C   UNL     1       0.253   9.114  21.236  0.00  0.00    +0.000 C 
ATOM     11  C   UNL     1      -0.788  10.000  20.566  0.00  0.00    +0.000 C 
ATOM     12  N   UNL     1      -0.636   9.983  19.040  0.00  0.00    +0.000 N 
ATOM     13  C   UNL     1      -1.557  10.410  18.126  0.00  0.00    +0.000 C 
ATOM     14  O   UNL     1      -1.688   9.989  17.000  0.00  0.00    +0.000 OA
ATOM     15  C   UNL     1      -2.072  11.694  18.578  0.00  0.00    +0.000 A 
ATOM     16  C   UNL     1      -1.102  12.488  19.239  0.00  0.00    +0.000 A 
ATOM     17  C   UNL     1      -1.612  13.404  20.155  0.00  0.00    +0.000 A 
ATOM     18  C   UNL     1      -3.023  13.428  20.416  0.00  0.00    +0.000 A 
ATOM     19  C   UNL     1      -3.968  12.580  19.739  0.00  0.00    +0.000 A 
ATOM     20  C   UNL     1      -5.349  12.468  20.054  0.00  0.00    +0.000 A 
ATOM     21  C   UNL     1      -6.187  11.539  19.397  0.00  0.00    +0.000 A 
ATOM     22  C   UNL     1      -5.683  10.721  18.402  0.00  0.00    +0.000 A 
ATOM     23  C   UNL     1      -4.344  10.823  18.085  0.00  0.00    +0.000 A 
ATOM     24  C   UNL     1      -3.472  11.726  18.757  0.00  0.00    +0.000 A 
ATOM     25  O   UNL     1       0.300  12.081  19.274  0.00  0.00    +0.000 OA
ATOM     26  C   UNL     1       0.520  10.732  18.660  0.00  0.00    +0.000 C 
ATOM     27  H   UNL     1       2.273   9.072  17.227  0.00  0.00    +0.000 HD
ENDROOT
BRANCH   1  29
ATOM     28  C   UNL     1       1.134   2.895  20.210  0.00  0.00    +0.000 C 
ATOM     29  O   UNL     1       1.569   4.069  20.875  0.00  0.00    +0.000 OA
ENDBRANCH   1  29
TORSDOF 1
ENDMDL
MODEL 3
REMARK VINA RESULT:      -8.2      2.049      7.386
REMARK  Name = 
REMARK  2 active torsions:
REMARK  status: ('A' for Active; 'I' for Inactive)
REMARK    1  A    between atoms: C_1  and  O_2
REMARK    2  A    between atoms: O_2  and  C_3
REMARK                            x       y       z     vdW  Elec       q    Type
REMARK                         _______ _______ _______ _____ _____    ______ ____
ROOT
ATOM      1  C   UNL     1      -6.356  11.601  20.131  0.00  0.00    +0.000 A 
ATOM      2  C   UNL     1      -6.125  12.303  21.309  0.00  0.00    +0.000 A 
ATOM      3  C   UNL     1      -4.874  12.932  21.552  0.00  0.00    +0.000 A 
ATOM      4  C   UNL     1      -3.862  12.828  20.577  0.00  0.00    +0.000 A 
ATOM      5  N   UNL     1      -2.511  13.189  20.573  0.00  0.00    +0.000 N 
ATOM      6  C   UNL     1      -1.819  12.556  19.525  0.00  0.00    +0.000 A 
ATOM      7  C   UNL     1      -2.832  11.929  18.771  0.00  0.00    +0.000 A 
ATOM      8  C   UNL     1      -4.093  12.139  19.393  0.00  0.00    +0.000 A 
ATOM      9  C   UNL     1      -5.345  11.524  19.181  0.00  0.00    +0.000 A 
ATOM     10  C   UNL     1      -2.573  10.700  17.959  0.00  0.00    +0.000 C 
ATOM     11  C   UNL     1      -1.265  10.079  18.430  0.00  0.00    +0.000 C 
ATOM     12  N   UNL     1      -0.888  10.570  19.832  0.00  0.00    +0.000 N 
ATOM     13  C   UNL     1       0.037  10.010  20.669  0.00  0.00    +0.000 C 
ATOM     14  O   UNL     1       0.016  10.047  21.877  0.00  0.00    +0.000 OA
ATOM     15  C   UNL     1       1.229   9.721  19.885  0.00  0.00    +0.000 A 
ATOM     16  C   UNL     1       1.475  10.671  18.862  0.00  0.00    +0.000 A 
ATOM     17  C   UNL     1       2.197  10.192  17.773  0.00  0.00    +0.000 A 
ATOM     18  C   UNL     1       2.562   8.805  17.722  0.00  0.00    +0.000 A 
ATOM     19  C   UNL     1       2.263   7.869  18.775  0.00  0.00    +0.000 A 
ATOM     20  C   UNL     1       2.479   6.466  18.717  0.00  0.00    +0.000 A 
ATOM     21  C   UNL     1       2.070   5.609  19.763  0.00  0.00    +0.000 A 
ATOM     22  C   UNL     1       1.462   6.122  20.894  0.00  0.00    +0.000 A 
ATOM     23  C   UNL     1       1.250   7.484  20.963  0.00  0.00    +0.000 A 
ATOM     24  C   UNL     1       1.621   8.364  19.908  0.00  0.00    +0.000 A 
ATOM     25  O   UNL     1       0.680  11.892  18.769  0.00  0.00    +0.000 OA
ATOM     26  C   UNL     1      -0.438  11.924  19.767  0.00  0.00    +0.000 C 
ATOM     27  H   UNL     1      -2.056  13.521  21.412  0.00  0.00    +0.000 HD
ENDROOT
BRANCH   1  29
ATOM     28  C   UNL     1      -7.424   9.474  20.182  0.00  0.00    +0.000 C 
ATOM     29  O   UNL     1      -7.454  10.845  19.821  0.00  0.00    +0.000 OA
ENDBRANCH   1  29
TORSDOF 1
ENDMDL
MODEL 4
REMARK VINA RESULT:      -7.6      1.395      2.097
REMARK  Name = 
REMARK  2 active torsions:
REMARK  status: ('A' for Active; 'I' for Inactive)
REMARK    1  A    between atoms: C_1  and  O_2
REMARK    2  A    between atoms: O_2  and  C_3
REMARK                            x       y       z     vdW  Elec       q    Type
REMARK                         _______ _______ _______ _____ _____    ______ ____
ROOT
ATOM      1  C   UNL     1       2.389   6.404  19.240  0.00  0.00    +0.000 A 
ATOM      2  C   UNL     1       2.723   6.665  17.915  0.00  0.00    +0.000 A 
ATOM      3  C   UNL     1       2.635   7.981  17.386  0.00  0.00    +0.000 A 
ATOM      4  C   UNL     1       2.197   9.023  18.227  0.00  0.00    +0.000 A 
ATOM      5  N   UNL     1       1.863  10.359  17.983  0.00  0.00    +0.000 N 
ATOM      6  C   UNL     1       1.129  10.902  19.053  0.00  0.00    +0.000 A 
ATOM      7  C   UNL     1       1.175   9.904  20.046  0.00  0.00    +0.000 A 
ATOM      8  C   UNL     1       1.875   8.768  19.554  0.00  0.00    +0.000 A 
ATOM      9  C   UNL     1       1.970   7.451  20.052  0.00  0.00    +0.000 A 
ATOM     10  C   UNL     1       0.100   9.755  21.074  0.00  0.00    +0.000 C 
ATOM     11  C   UNL     1      -1.131  10.515  20.597  0.00  0.00    +0.000 C 
ATOM     12  N   UNL     1      -1.081  10.762  19.084  0.00  0.00    +0.000 N 
ATOM     13  C   UNL     1      -2.126  11.137  18.286  0.00  0.00    +0.000 C 
ATOM     14  O   UNL     1      -2.251  10.876  17.113  0.00  0.00    +0.000 OA
ATOM     15  C   UNL     1      -2.838  12.212  18.961  0.00  0.00    +0.000 A 
ATOM     16  C   UNL     1      -1.990  13.068  19.708  0.00  0.00    +0.000 A 
ATOM     17  C   UNL     1      -2.599  13.716  20.779  0.00  0.00    +0.000 A 
ATOM     18  C   UNL     1      -3.969  13.425  21.093  0.00  0.00    +0.000 A 
ATOM     19  C   UNL     1      -4.783  12.523  20.321  0.00  0.00    +0.000 A 
ATOM     20  C   UNL     1      -6.095  12.098  20.664  0.00  0.00    +0.000 A 
ATOM     21  C   UNL     1      -6.788  11.136  19.895  0.00  0.00    +0.000 A 
ATOM     22  C   UNL     1      -6.209  10.595  18.762  0.00  0.00    +0.000 A 
ATOM     23  C   UNL     1      -4.937  11.002  18.417  0.00  0.00    +0.000 A 
ATOM     24  C   UNL     1      -4.204  11.943  19.194  0.00  0.00    +0.000 A 
ATOM     25  O   UNL     1      -0.537  12.941  19.624  0.00  0.00    +0.000 OA
ATOM     26  C   UNL     1      -0.113  11.770  18.789  0.00  0.00    +0.000 C 
ATOM     27  H   UNL     1       1.817  10.723  17.041  0.00  0.00    +0.000 HD
ENDROOT
BRANCH   1  29
ATOM     28  C   UNL     1       1.250   4.985  20.775  0.00  0.00    +0.000 C 
ATOM     29  O   UNL     1       2.303   5.179  19.845  0.00  0.00    +0.000 OA
ENDBRANCH   1  29
TORSDOF 1
ENDMDL
MODEL 5
REMARK VINA RESULT:      -7.4      1.731      7.494
REMARK  Name = 
REMARK  2 active torsions:
REMARK  status: ('A' for Active; 'I' for Inactive)
REMARK    1  A    between atoms: C_1  and  O_2
REMARK    2  A    between atoms: O_2  and  C_3
REMARK                            x       y       z     vdW  Elec       q    Type
REMARK                         _______ _______ _______ _____ _____    ______ ____
ROOT
ATOM      1  C   UNL     1      -5.166  11.966  19.383  0.00  0.00    +0.000 A 
ATOM      2  C   UNL     1      -4.834  12.669  20.536  0.00  0.00    +0.000 A 
ATOM      3  C   UNL     1      -3.490  13.047  20.799  0.00  0.00    +0.000 A 
ATOM      4  C   UNL     1      -2.490  12.692  19.872  0.00  0.00    +0.000 A 
ATOM      5  N   UNL     1      -1.095  12.775  19.906  0.00  0.00    +0.000 N 
ATOM      6  C   UNL     1      -0.514  11.961  18.917  0.00  0.00    +0.000 A 
ATOM      7  C   UNL     1      -1.609  11.510  18.153  0.00  0.00    +0.000 A 
ATOM      8  C   UNL     1      -2.820  12.001  18.712  0.00  0.00    +0.000 A 
ATOM      9  C   UNL     1      -4.163  11.637  18.479  0.00  0.00    +0.000 A 
ATOM     10  C   UNL     1      -1.579  10.213  17.409  0.00  0.00    +0.000 C 
ATOM     11  C   UNL     1      -0.437   9.368  17.960  0.00  0.00    +0.000 C 
ATOM     12  N   UNL     1      -0.011   9.849  19.353  0.00  0.00    +0.000 N 
ATOM     13  C   UNL     1       0.756   9.160  20.251  0.00  0.00    +0.000 C 
ATOM     14  O   UNL     1       0.706   9.265  21.454  0.00  0.00    +0.000 OA
ATOM     15  C   UNL     1       1.888   8.598  19.530  0.00  0.00    +0.000 A 
ATOM     16  C   UNL     1       2.352   9.423  18.475  0.00  0.00    +0.000 A 
ATOM     17  C   UNL     1       2.995   8.753  17.439  0.00  0.00    +0.000 A 
ATOM     18  C   UNL     1       3.075   7.320  17.467  0.00  0.00    +0.000 A 
ATOM     19  C   UNL     1       2.561   6.520  18.548  0.00  0.00    +0.000 A 
ATOM     20  C   UNL     1       2.492   5.101  18.564  0.00  0.00    +0.000 A 
ATOM     21  C   UNL     1       1.887   4.400  19.632  0.00  0.00    +0.000 A 
ATOM     22  C   UNL     1       1.361   5.084  20.712  0.00  0.00    +0.000 A 
ATOM     23  C   UNL     1       1.425   6.462  20.709  0.00  0.00    +0.000 A 
ATOM     24  C   UNL     1       1.998   7.193  19.631  0.00  0.00    +0.000 A 
ATOM     25  O   UNL     1       1.822  10.772  18.293  0.00  0.00    +0.000 OA
ATOM     26  C   UNL     1       0.704  11.080  19.243  0.00  0.00    +0.000 C 
ATOM     27  H   UNL     1      -0.608  13.054  20.747  0.00  0.00    +0.000 HD
ENDROOT
BRANCH   1  29
ATOM     28  C   UNL     1      -7.476  12.325  18.932  0.00  0.00    +0.000 C 
ATOM     29  O   UNL     1      -6.384  11.429  19.064  0.00  0.00    +0.000 OA
ENDBRANCH   1  29
TORSDOF 1
ENDMDL
MODEL 6
REMARK VINA RESULT:      -7.4      2.066      3.510
REMARK  Name = 
REMARK  2 active torsions:
REMARK  status: ('A' for Active; 'I' for Inactive)
REMARK    1  A    between atoms: C_1  and  O_2
REMARK    2  A    between atoms: O_2  and  C_3
REMARK                            x       y       z     vdW  Elec       q    Type
REMARK                         _______ _______ _______ _____ _____    ______ ____
ROOT
ATOM      1  C   UNL     1       1.832   7.817  19.676  0.00  0.00    +0.000 A 
ATOM      2  C   UNL     1       1.969   8.116  18.324  0.00  0.00    +0.000 A 
ATOM      3  C   UNL     1       1.692   9.420  17.833  0.00  0.00    +0.000 A 
ATOM      4  C   UNL     1       1.267  10.411  18.740  0.00  0.00    +0.000 A 
ATOM      5  N   UNL     1       0.781  11.711  18.563  0.00  0.00    +0.000 N 
ATOM      6  C   UNL     1       0.141  12.176  19.726  0.00  0.00    +0.000 A 
ATOM      7  C   UNL     1       0.407  11.181  20.689  0.00  0.00    +0.000 A 
ATOM      8  C   UNL     1       1.142  10.120  20.093  0.00  0.00    +0.000 A 
ATOM      9  C   UNL     1       1.423   8.816  20.552  0.00  0.00    +0.000 A 
ATOM     10  C   UNL     1      -0.511  10.925  21.841  0.00  0.00    +0.000 C 
ATOM     11  C   UNL     1      -1.858  11.566  21.535  0.00  0.00    +0.000 C 
ATOM     12  N   UNL     1      -2.024  11.825  20.033  0.00  0.00    +0.000 N 
ATOM     13  C   UNL     1      -3.192  12.103  19.380  0.00  0.00    +0.000 C 
ATOM     14  O   UNL     1      -3.441  11.837  18.227  0.00  0.00    +0.000 OA
ATOM     15  C   UNL     1      -3.911  13.101  20.157  0.00  0.00    +0.000 A 
ATOM     16  C   UNL     1      -3.059  14.030  20.805  0.00  0.00    +0.000 A 
ATOM     17  C   UNL     1      -3.585  14.612  21.956  0.00  0.00    +0.000 A 
ATOM     18  C   UNL     1      -4.871  14.190  22.434  0.00  0.00    +0.000 A 
ATOM     19  C   UNL     1      -5.688  13.219  21.756  0.00  0.00    +0.000 A 
ATOM     20  C   UNL     1      -6.900  12.669  22.254  0.00  0.00    +0.000 A 
ATOM     21  C   UNL     1      -7.591  11.649  21.562  0.00  0.00    +0.000 A 
ATOM     22  C   UNL     1      -7.113  11.171  20.356  0.00  0.00    +0.000 A 
ATOM     23  C   UNL     1      -5.938  11.700  19.861  0.00  0.00    +0.000 A 
ATOM     24  C   UNL     1      -5.205  12.702  20.556  0.00  0.00    +0.000 A 
ATOM     25  O   UNL     1      -1.624  14.043  20.537  0.00  0.00    +0.000 OA
ATOM     26  C   UNL     1      -1.201  12.922  19.636  0.00  0.00    +0.000 C 
ATOM     27  H   UNL     1       0.582  12.073  17.641  0.00  0.00    +0.000 HD
ENDROOT
BRANCH   1  29
ATOM     28  C   UNL     1       2.884   5.682  19.717  0.00  0.00    +0.000 C 
ATOM     29  O   UNL     1       1.939   6.586  20.265  0.00  0.00    +0.000 OA
ENDBRANCH   1  29
TORSDOF 1
ENDMDL
MODEL 7
REMARK VINA RESULT:      -7.4      2.732      4.413
REMARK  Name = 
REMARK  2 active torsions:
REMARK  status: ('A' for Active; 'I' for Inactive)
REMARK    1  A    between atoms: C_1  and  O_2
REMARK    2  A    between atoms: O_2  and  C_3
REMARK                            x       y       z     vdW  Elec       q    Type
REMARK                         _______ _______ _______ _____ _____    ______ ____
ROOT
ATOM      1  C   UNL     1       1.394   8.366  20.279  0.00  0.00    +0.000 A 
ATOM      2  C   UNL     1       1.453   8.742  18.942  0.00  0.00    +0.000 A 
ATOM      3  C   UNL     1       1.145  10.069  18.541  0.00  0.00    +0.000 A 
ATOM      4  C   UNL     1       0.770  11.005  19.525  0.00  0.00    +0.000 A 
ATOM      5  N   UNL     1       0.271  12.310  19.450  0.00  0.00    +0.000 N 
ATOM      6  C   UNL     1      -0.303  12.705  20.672  0.00  0.00    +0.000 A 
ATOM      7  C   UNL     1       0.020  11.660  21.560  0.00  0.00    +0.000 A 
ATOM      8  C   UNL     1       0.723  10.638  20.865  0.00  0.00    +0.000 A 
ATOM      9  C   UNL     1       1.033   9.312  21.232  0.00  0.00    +0.000 A 
ATOM     10  C   UNL     1      -0.830  11.334  22.747  0.00  0.00    +0.000 C 
ATOM     11  C   UNL     1      -2.194  11.983  22.555  0.00  0.00    +0.000 C 
ATOM     12  N   UNL     1      -2.446  12.324  21.081  0.00  0.00    +0.000 N 
ATOM     13  C   UNL     1      -3.650  12.632  20.512  0.00  0.00    +0.000 C 
ATOM     14  O   UNL     1      -3.963  12.430  19.362  0.00  0.00    +0.000 OA
ATOM     15  C   UNL     1      -4.326  13.581  21.384  0.00  0.00    +0.000 A 
ATOM     16  C   UNL     1      -3.441  14.477  22.035  0.00  0.00    +0.000 A 
ATOM     17  C   UNL     1      -3.902  14.990  23.244  0.00  0.00    +0.000 A 
ATOM     18  C   UNL     1      -5.158  14.534  23.771  0.00  0.00    +0.000 A 
ATOM     19  C   UNL     1      -6.010  13.597  23.086  0.00  0.00    +0.000 A 
ATOM     20  C   UNL     1      -7.190  13.013  23.620  0.00  0.00    +0.000 A 
ATOM     21  C   UNL     1      -7.917  12.030  22.911  0.00  0.00    +0.000 A 
ATOM     22  C   UNL     1      -7.506  11.623  21.656  0.00  0.00    +0.000 A 
ATOM     23  C   UNL     1      -6.363  12.186  21.125  0.00  0.00    +0.000 A 
ATOM     24  C   UNL     1      -5.595  13.152  21.833  0.00  0.00    +0.000 A 
ATOM     25  O   UNL     1      -2.023  14.513  21.686  0.00  0.00    +0.000 OA
ATOM     26  C   UNL     1      -1.649  13.448  20.701  0.00  0.00    +0.000 C 
ATOM     27  H   UNL     1       0.018  12.722  18.563  0.00  0.00    +0.000 HD
ENDROOT
BRANCH   1  29
ATOM     28  C   UNL     1       2.234   6.156  20.000  0.00  0.00    +0.000 C 
ATOM     29  O   UNL     1       1.538   7.105  20.792  0.00  0.00    +0.000 OA
ENDBRANCH   1  29
TORSDOF 1
ENDMDL
MODEL 8
REMARK VINA RESULT:      -7.2      4.724      7.281
REMARK  Name = 
REMARK  2 active torsions:
REMARK  status: ('A' for Active; 'I' for Inactive)
REMARK    1  A    between atoms: C_1  and  O_2
REMARK    2  A    between atoms: O_2  and  C_3
REMARK                            x       y       z     vdW  Elec       q    Type
REMARK                         _______ _______ _______ _____ _____    ______ ____
ROOT
ATOM      1  C   UNL     1       7.734  14.819  19.584  0.00  0.00    +0.000 A 
ATOM      2  C   UNL     1       7.781  14.399  18.260  0.00  0.00    +0.000 A 
ATOM      3  C   UNL     1       6.615  14.408  17.448  0.00  0.00    +0.000 A 
ATOM      4  C   UNL     1       5.401  14.847  18.011  0.00  0.00    +0.000 A 
ATOM      5  N   UNL     1       4.082  14.834  17.544  0.00  0.00    +0.000 N 
ATOM      6  C   UNL     1       3.169  15.033  18.596  0.00  0.00    +0.000 A 
ATOM      7  C   UNL     1       3.982  15.347  19.704  0.00  0.00    +0.000 A 
ATOM      8  C   UNL     1       5.352  15.281  19.330  0.00  0.00    +0.000 A 
ATOM      9  C   UNL     1       6.526  15.259  20.112  0.00  0.00    +0.000 A 
ATOM     10  C   UNL     1       3.556  15.060  21.108  0.00  0.00    +0.000 C 
ATOM     11  C   UNL     1       2.410  14.058  21.068  0.00  0.00    +0.000 C 
ATOM     12  N   UNL     1       2.373  13.307  19.732  0.00  0.00    +0.000 N 
ATOM     13  C   UNL     1       1.686  12.156  19.465  0.00  0.00    +0.000 C 
ATOM     14  O   UNL     1       1.997  11.317  18.652  0.00  0.00    +0.000 OA
ATOM     15  C   UNL     1       0.346  12.299  20.013  0.00  0.00    +0.000 A 
ATOM     16  C   UNL     1      -0.155  13.623  19.939  0.00  0.00    +0.000 A 
ATOM     17  C   UNL     1      -1.110  13.949  20.897  0.00  0.00    +0.000 A 
ATOM     18  C   UNL     1      -1.453  12.987  21.907  0.00  0.00    +0.000 A 
ATOM     19  C   UNL     1      -0.894  11.662  21.960  0.00  0.00    +0.000 A 
ATOM     20  C   UNL     1      -1.094  10.724  23.008  0.00  0.00    +0.000 A 
ATOM     21  C   UNL     1      -0.431   9.476  23.023  0.00  0.00    +0.000 A 
ATOM     22  C   UNL     1       0.423   9.123  21.995  0.00  0.00    +0.000 A 
ATOM     23  C   UNL     1       0.622  10.025  20.969  0.00  0.00    +0.000 A 
ATOM     24  C   UNL     1      -0.007  11.301  20.948  0.00  0.00    +0.000 A 
ATOM     25  O   UNL     1       0.573  14.658  19.211  0.00  0.00    +0.000 OA
ATOM     26  C   UNL     1       1.897  14.175  18.702  0.00  0.00    +0.000 C 
ATOM     27  H   UNL     1       3.837  14.368  16.682  0.00  0.00    +0.000 HD
ENDROOT
BRANCH   1  29
ATOM     28  C   UNL     1       9.100  13.455  20.978  0.00  0.00    +0.000 C 
ATOM     29  O   UNL     1       8.738  14.745  20.512  0.00  0.00    +0.000 OA
ENDBRANCH   1  29
TORSDOF 1
ENDMDL
MODEL 9
REMARK VINA RESULT:      -7.0      6.711      8.789
REMARK  Name = 
REMARK  2 active torsions:
REMARK  status: ('A' for Active; 'I' for Inactive)
REMARK    1  A    between atoms: C_1  and  O_2
REMARK    2  A    between atoms: O_2  and  C_3
REMARK                            x       y       z     vdW  Elec       q    Type
REMARK                         _______ _______ _______ _____ _____    ______ ____
ROOT
ATOM      1  C   UNL     1      -0.567  15.584  24.220  0.00  0.00    +0.000 A 
ATOM      2  C   UNL     1      -1.377  16.147  25.200  0.00  0.00    +0.000 A 
ATOM      3  C   UNL     1      -2.663  15.611  25.481  0.00  0.00    +0.000 A 
ATOM      4  C   UNL     1      -3.111  14.498  24.743  0.00  0.00    +0.000 A 
ATOM      5  N   UNL     1      -4.346  13.847  24.668  0.00  0.00    +0.000 N 
ATOM      6  C   UNL     1      -4.419  13.027  23.526  0.00  0.00    +0.000 A 
ATOM      7  C   UNL     1      -3.115  13.059  22.993  0.00  0.00    +0.000 A 
ATOM      8  C   UNL     1      -2.299  13.925  23.771  0.00  0.00    +0.000 A 
ATOM      9  C   UNL     1      -1.027  14.480  23.513  0.00  0.00    +0.000 A 
ATOM     10  C   UNL     1      -2.847  12.857  21.536  0.00  0.00    +0.000 C 
ATOM     11  C   UNL     1      -4.151  13.051  20.775  0.00  0.00    +0.000 C 
ATOM     12  N   UNL     1      -5.170  13.839  21.608  0.00  0.00    +0.000 N 
ATOM     13  C   UNL     1      -6.306  14.443  21.145  0.00  0.00    +0.000 C 
ATOM     14  O   UNL     1      -6.834  15.420  21.621  0.00  0.00    +0.000 OA
ATOM     15  C   UNL     1      -6.979  13.505  20.259  0.00  0.00    +0.000 A 
ATOM     16  C   UNL     1      -6.839  12.153  20.659  0.00  0.00    +0.000 A 
ATOM     17  C   UNL     1      -6.938  11.219  19.631  0.00  0.00    +0.000 A 
ATOM     18  C   UNL     1      -7.090  11.673  18.277  0.00  0.00    +0.000 A 
ATOM     19  C   UNL     1      -7.197  13.062  17.916  0.00  0.00    +0.000 A 
ATOM     20  C   UNL     1      -7.212  13.570  16.589  0.00  0.00    +0.000 A 
ATOM     21  C   UNL     1      -7.227  14.959  16.327  0.00  0.00    +0.000 A 
ATOM     22  C   UNL     1      -7.252  15.869  17.367  0.00  0.00    +0.000 A 
ATOM     23  C   UNL     1      -7.241  15.387  18.661  0.00  0.00    +0.000 A 
ATOM     24  C   UNL     1      -7.191  13.995  18.951  0.00  0.00    +0.000 A 
ATOM     25  O   UNL     1      -6.223  11.811  21.938  0.00  0.00    +0.000 OA
ATOM     26  C   UNL     1      -5.685  13.013  22.653  0.00  0.00    +0.000 C 
ATOM     27  H   UNL     1      -5.162  14.218  25.133  0.00  0.00    +0.000 HD
ENDROOT
BRANCH   1  29
ATOM     28  C   UNL     1       0.839  16.046  22.355  0.00  0.00    +0.000 C 
ATOM     29  O   UNL     1       0.628  16.067  23.758  0.00  0.00    +0.000 OA
ENDBRANCH   1  29
TORSDOF 1
ENDMDL
