MODEL 1
REMARK VINA RESULT:      -8.1      0.000      0.000
REMARK  Name = 
REMARK  6 active torsions:
REMARK  status: ('A' for Active; 'I' for Inactive)
REMARK    1  A    between atoms: C_1  and  O_2
REMARK    2  A    between atoms: O_2  and  C_3
REMARK    3  A    between atoms: C_6  and  C_7
REMARK    4  A    between atoms: C_7  and  N_8
REMARK    5  A    between atoms: C_10  and  C_11
REMARK    6  A    between atoms: N_13  and  N_14
REMARK                            x       y       z     vdW  Elec       q    Type
REMARK                         _______ _______ _______ _____ _____    ______ ____
ROOT
ATOM      1  C   UNL     1       1.704   8.429  18.960  0.00  0.00    +0.000 C 
ATOM      2  O   UNL     1       1.530   8.894  17.824  0.00  0.00    +0.000 OA
ATOM      3  N   UNL     1       1.213   9.048  20.126  0.00  0.00    +0.000 N 
ATOM      4  H   UNL     1       1.337   8.549  21.017  0.00  0.00    +0.000 HD
ENDROOT
BRANCH   3   5
ATOM      5  N   UNL     1       0.500  10.275  20.130  0.00  0.00    +0.000 NA
ATOM      6  C   UNL     1       0.152  10.715  21.310  0.00  0.00    +0.000 C 
ATOM      7  C   UNL     1       0.291   9.879  22.563  0.00  0.00    +0.000 C 
ATOM      8  O   UNL     1       1.329   9.371  22.924  0.00  0.00    +0.000 OA
ATOM      9  N   UNL     1      -0.926   9.989  23.204  0.00  0.00    +0.000 N 
ATOM     10  C   UNL     1      -1.466  11.227  22.810  0.00  0.00    +0.000 A 
ATOM     11  C   UNL     1      -2.421  11.897  23.551  0.00  0.00    +0.000 A 
ATOM     12  C   UNL     1      -2.577  13.252  23.301  0.00  0.00    +0.000 A 
ATOM     13  C   UNL     1      -1.802  13.884  22.302  0.00  0.00    +0.000 A 
ATOM     14 CL   UNL     1      -1.894  15.602  22.184  0.00  0.00    +0.000 Cl
ATOM     15  C   UNL     1      -0.903  13.158  21.480  0.00  0.00    +0.000 A 
ATOM     16  C   UNL     1      -0.749  11.807  21.744  0.00  0.00    +0.000 A 
ATOM     17  H   UNL     1      -1.545   9.221  22.951  0.00  0.00    +0.000 HD
ENDBRANCH   3   5
BRANCH   1  20
ATOM     18  N   UNL     1       3.751   5.392  19.117  0.00  0.00    +0.000 N 
ATOM     19  C   UNL     1       3.482   6.584  18.494  0.00  0.00    +0.000 A 
ATOM     20  C   UNL     1       2.382   7.121  19.161  0.00  0.00    +0.000 A 
ATOM     21  N   UNL     1       2.060   6.237  20.183  0.00  0.00    +0.000 NA
ATOM     22  N   UNL     1       2.902   5.204  20.143  0.00  0.00    +0.000 NA
BRANCH  18  23
ATOM     23  C   UNL     1       4.947   4.552  18.979  0.00  0.00    +0.000 C 
BRANCH  23  27
ATOM     24  C   UNL     1       6.576   4.441  14.940  0.00  0.00    +0.000 A 
ATOM     25  C   UNL     1       5.259   4.054  15.191  0.00  0.00    +0.000 A 
ATOM     26  C   UNL     1       4.735   4.071  16.491  0.00  0.00    +0.000 A 
ATOM     27  C   UNL     1       5.530   4.459  17.579  0.00  0.00    +0.000 A 
ATOM     28  C   UNL     1       6.860   4.832  17.318  0.00  0.00    +0.000 A 
ATOM     29  C   UNL     1       7.379   4.824  16.011  0.00  0.00    +0.000 A 
BRANCH  24  31
ATOM     30  C   UNL     1       6.149   3.585  12.762  0.00  0.00    +0.000 C 
ATOM     31  O   UNL     1       6.960   4.373  13.629  0.00  0.00    +0.000 OA
ENDBRANCH  24  31
ENDBRANCH  23  27
ENDBRANCH  18  23
ENDBRANCH   1  20
TORSDOF 5
ENDMDL
MODEL 2
REMARK VINA RESULT:      -8.1      2.156      3.109
REMARK  Name = 
REMARK  6 active torsions:
REMARK  status: ('A' for Active; 'I' for Inactive)
REMARK    1  A    between atoms: C_1  and  O_2
REMARK    2  A    between atoms: O_2  and  C_3
REMARK    3  A    between atoms: C_6  and  C_7
REMARK    4  A    between atoms: C_7  and  N_8
REMARK    5  A    between atoms: C_10  and  C_11
REMARK    6  A    between atoms: N_13  and  N_14
REMARK                            x       y       z     vdW  Elec       q    Type
REMARK                         _______ _______ _______ _____ _____    ______ ____
ROOT
ATOM      1  C   UNL     1       2.201   6.267  20.038  0.00  0.00    +0.000 C 
ATOM      2  O   UNL     1       1.280   5.743  20.683  0.00  0.00    +0.000 OA
ATOM      3  N   UNL     1       2.299   7.656  19.830  0.00  0.00    +0.000 N 
ATOM      4  H   UNL     1       3.139   8.007  19.350  0.00  0.00    +0.000 HD
ENDROOT
BRANCH   3   5
ATOM      5  N   UNL     1       1.348   8.596  20.307  0.00  0.00    +0.000 NA
ATOM      6  C   UNL     1       0.992   9.514  19.448  0.00  0.00    +0.000 C 
ATOM      7  C   UNL     1       1.698   9.707  18.124  0.00  0.00    +0.000 C 
ATOM      8  O   UNL     1       1.852   8.828  17.306  0.00  0.00    +0.000 OA
ATOM      9  N   UNL     1       1.940  11.063  18.041  0.00  0.00    +0.000 N 
ATOM     10  C   UNL     1       0.941  11.687  18.812  0.00  0.00    +0.000 A 
ATOM     11  C   UNL     1       0.567  13.004  18.626  0.00  0.00    +0.000 A 
ATOM     12  C   UNL     1      -0.666  13.387  19.133  0.00  0.00    +0.000 A 
ATOM     13  C   UNL     1      -1.466  12.456  19.833  0.00  0.00    +0.000 A 
ATOM     14 CL   UNL     1      -3.069  12.934  20.254  0.00  0.00    +0.000 Cl
ATOM     15  C   UNL     1      -1.019  11.138  20.105  0.00  0.00    +0.000 A 
ATOM     16  C   UNL     1       0.210  10.764  19.587  0.00  0.00    +0.000 A 
ATOM     17  H   UNL     1       2.869  11.292  18.391  0.00  0.00    +0.000 HD
ENDBRANCH   3   5
BRANCH   1  20
ATOM     18  N   UNL     1       5.139   4.718  18.487  0.00  0.00    +0.000 N 
ATOM     19  C   UNL     1       4.295   5.797  18.564  0.00  0.00    +0.000 A 
ATOM     20  C   UNL     1       3.324   5.454  19.503  0.00  0.00    +0.000 A 
ATOM     21  N   UNL     1       3.651   4.188  19.976  0.00  0.00    +0.000 NA
ATOM     22  N   UNL     1       4.752   3.766  19.355  0.00  0.00    +0.000 NA
BRANCH  18  23
ATOM     23  C   UNL     1       6.458   4.647  17.847  0.00  0.00    +0.000 C 
BRANCH  23  27
ATOM     24  C   UNL     1       6.346   4.117  13.524  0.00  0.00    +0.000 A 
ATOM     25  C   UNL     1       5.391   3.513  14.344  0.00  0.00    +0.000 A 
ATOM     26  C   UNL     1       5.433   3.666  15.736  0.00  0.00    +0.000 A 
ATOM     27  C   UNL     1       6.450   4.415  16.345  0.00  0.00    +0.000 A 
ATOM     28  C   UNL     1       7.416   5.006  15.512  0.00  0.00    +0.000 A 
ATOM     29  C   UNL     1       7.364   4.859  14.114  0.00  0.00    +0.000 A 
BRANCH  24  31
ATOM     30  C   UNL     1       5.861   2.553  11.799  0.00  0.00    +0.000 C 
ATOM     31  O   UNL     1       6.191   3.883  12.185  0.00  0.00    +0.000 OA
ENDBRANCH  24  31
ENDBRANCH  23  27
ENDBRANCH  18  23
ENDBRANCH   1  20
TORSDOF 5
ENDMDL
MODEL 3
REMARK VINA RESULT:      -8.0      0.534      1.028
REMARK  Name = 
REMARK  6 active torsions:
REMARK  status: ('A' for Active; 'I' for Inactive)
REMARK    1  A    between atoms: C_1  and  O_2
REMARK    2  A    between atoms: O_2  and  C_3
REMARK    3  A    between atoms: C_6  and  C_7
REMARK    4  A    between atoms: C_7  and  N_8
REMARK    5  A    between atoms: C_10  and  C_11
REMARK    6  A    between atoms: N_13  and  N_14
REMARK                            x       y       z     vdW  Elec       q    Type
REMARK                         _______ _______ _______ _____ _____    ______ ____
ROOT
ATOM      1  C   UNL     1       1.801   8.756  18.611  0.00  0.00    +0.000 C 
ATOM      2  O   UNL     1       1.753   9.334  17.515  0.00  0.00    +0.000 OA
ATOM      3  N   UNL     1       1.114   9.213  19.752  0.00  0.00    +0.000 N 
ATOM      4  H   UNL     1       1.149   8.626  20.596  0.00  0.00    +0.000 HD
ENDROOT
BRANCH   3   5
ATOM      5  N   UNL     1       0.323  10.391  19.779  0.00  0.00    +0.000 NA
ATOM      6  C   UNL     1       0.055  10.856  20.970  0.00  0.00    +0.000 C 
ATOM      7  C   UNL     1       0.362  10.082  22.234  0.00  0.00    +0.000 C 
ATOM      8  O   UNL     1       1.460   9.657  22.514  0.00  0.00    +0.000 OA
ATOM      9  N   UNL     1      -0.796  10.142  22.981  0.00  0.00    +0.000 N 
ATOM     10  C   UNL     1      -1.452  11.326  22.595  0.00  0.00    +0.000 A 
ATOM     11  C   UNL     1      -2.378  11.963  23.398  0.00  0.00    +0.000 A 
ATOM     12  C   UNL     1      -2.646  13.295  23.117  0.00  0.00    +0.000 A 
ATOM     13  C   UNL     1      -2.009  13.933  22.029  0.00  0.00    +0.000 A 
ATOM     14 CL   UNL     1      -2.226  15.635  21.860  0.00  0.00    +0.000 Cl
ATOM     15  C   UNL     1      -1.141  13.233  21.152  0.00  0.00    +0.000 A 
ATOM     16  C   UNL     1      -0.874  11.906  21.448  0.00  0.00    +0.000 A 
ATOM     17  H   UNL     1      -1.383   9.326  22.813  0.00  0.00    +0.000 HD
ENDBRANCH   3   5
BRANCH   1  20
ATOM     18  N   UNL     1       3.956   5.790  18.645  0.00  0.00    +0.000 N 
ATOM     19  C   UNL     1       3.606   6.969  18.037  0.00  0.00    +0.000 A 
ATOM     20  C   UNL     1       2.535   7.472  18.772  0.00  0.00    +0.000 A 
ATOM     21  N   UNL     1       2.310   6.583  19.816  0.00  0.00    +0.000 NA
ATOM     22  N   UNL     1       3.182   5.579  19.724  0.00  0.00    +0.000 NA
BRANCH  18  23
ATOM     23  C   UNL     1       5.168   4.989  18.432  0.00  0.00    +0.000 C 
BRANCH  23  27
ATOM     24  C   UNL     1       6.516   4.406  14.331  0.00  0.00    +0.000 A 
ATOM     25  C   UNL     1       7.282   5.141  15.238  0.00  0.00    +0.000 A 
ATOM     26  C   UNL     1       6.844   5.347  16.553  0.00  0.00    +0.000 A 
ATOM     27  C   UNL     1       5.612   4.835  16.987  0.00  0.00    +0.000 A 
ATOM     28  C   UNL     1       4.842   4.110  16.062  0.00  0.00    +0.000 A 
ATOM     29  C   UNL     1       5.290   3.897  14.746  0.00  0.00    +0.000 A 
BRANCH  24  31
ATOM     30  C   UNL     1       6.385   3.424  12.168  0.00  0.00    +0.000 C 
ATOM     31  O   UNL     1       7.058   4.286  13.081  0.00  0.00    +0.000 OA
ENDBRANCH  24  31
ENDBRANCH  23  27
ENDBRANCH  18  23
ENDBRANCH   1  20
TORSDOF 5
ENDMDL
MODEL 4
REMARK VINA RESULT:      -7.8      3.788     10.980
REMARK  Name = 
REMARK  6 active torsions:
REMARK  status: ('A' for Active; 'I' for Inactive)
REMARK    1  A    between atoms: C_1  and  O_2
REMARK    2  A    between atoms: O_2  and  C_3
REMARK    3  A    between atoms: C_6  and  C_7
REMARK    4  A    between atoms: C_7  and  N_8
REMARK    5  A    between atoms: C_10  and  C_11
REMARK    6  A    between atoms: N_13  and  N_14
REMARK                            x       y       z     vdW  Elec       q    Type
REMARK                         _______ _______ _______ _____ _____    ______ ____
ROOT
ATOM      1  C   UNL     1       1.744   9.738  18.392  0.00  0.00    +0.000 C 
ATOM      2  O   UNL     1       2.181  10.683  17.718  0.00  0.00    +0.000 OA
ATOM      3  N   UNL     1       2.213   8.417  18.258  0.00  0.00    +0.000 N 
ATOM      4  H   UNL     1       1.848   7.714  18.914  0.00  0.00    +0.000 HD
ENDROOT
BRANCH   3   5
ATOM      5  N   UNL     1       3.205   8.022  17.323  0.00  0.00    +0.000 NA
ATOM      6  C   UNL     1       3.704   6.829  17.510  0.00  0.00    +0.000 C 
ATOM      7  C   UNL     1       3.420   6.014  18.754  0.00  0.00    +0.000 C 
ATOM      8  O   UNL     1       2.307   5.743  19.144  0.00  0.00    +0.000 OA
ATOM      9  N   UNL     1       4.655   5.567  19.178  0.00  0.00    +0.000 N 
ATOM     10  C   UNL     1       5.465   5.502  18.029  0.00  0.00    +0.000 A 
ATOM     11  C   UNL     1       6.587   4.700  17.949  0.00  0.00    +0.000 A 
ATOM     12  C   UNL     1       7.060   4.401  16.680  0.00  0.00    +0.000 A 
ATOM     13  C   UNL     1       6.420   4.935  15.540  0.00  0.00    +0.000 A 
ATOM     14 CL   UNL     1       6.926   4.361  13.994  0.00  0.00    +0.000 Cl
ATOM     15  C   UNL     1       5.334   5.841  15.645  0.00  0.00    +0.000 A 
ATOM     16  C   UNL     1       4.864   6.126  16.917  0.00  0.00    +0.000 A 
ATOM     17  H   UNL     1       5.054   6.196  19.872  0.00  0.00    +0.000 HD
ENDBRANCH   3   5
BRANCH   1  20
ATOM     18  N   UNL     1      -0.322  10.257  21.376  0.00  0.00    +0.000 N 
ATOM     19  C   UNL     1       0.889   9.887  20.847  0.00  0.00    +0.000 A 
ATOM     20  C   UNL     1       0.738   9.960  19.464  0.00  0.00    +0.000 A 
ATOM     21  N   UNL     1      -0.556  10.406  19.223  0.00  0.00    +0.000 NA
ATOM     22  N   UNL     1      -1.176  10.585  20.390  0.00  0.00    +0.000 NA
BRANCH  18  23
ATOM     23  C   UNL     1      -0.634  10.593  22.770  0.00  0.00    +0.000 C 
BRANCH  23  27
ATOM     24  C   UNL     1      -2.866  14.257  23.525  0.00  0.00    +0.000 A 
ATOM     25  C   UNL     1      -3.463  13.007  23.699  0.00  0.00    +0.000 A 
ATOM     26  C   UNL     1      -2.755  11.826  23.440  0.00  0.00    +0.000 A 
ATOM     27  C   UNL     1      -1.431  11.870  22.979  0.00  0.00    +0.000 A 
ATOM     28  C   UNL     1      -0.844  13.133  22.792  0.00  0.00    +0.000 A 
ATOM     29  C   UNL     1      -1.555  14.317  23.063  0.00  0.00    +0.000 A 
BRANCH  24  31
ATOM     30  C   UNL     1      -3.354  16.077  24.978  0.00  0.00    +0.000 C 
ATOM     31  O   UNL     1      -3.670  15.327  23.809  0.00  0.00    +0.000 OA
ENDBRANCH  24  31
ENDBRANCH  23  27
ENDBRANCH  18  23
ENDBRANCH   1  20
TORSDOF 5
ENDMDL
MODEL 5
REMARK VINA RESULT:      -7.7      1.758      2.517
REMARK  Name = 
REMARK  6 active torsions:
REMARK  status: ('A' for Active; 'I' for Inactive)
REMARK    1  A    between atoms: C_1  and  O_2
REMARK    2  A    between atoms: O_2  and  C_3
REMARK    3  A    between atoms: C_6  and  C_7
REMARK    4  A    between atoms: C_7  and  N_8
REMARK    5  A    between atoms: C_10  and  C_11
REMARK    6  A    between atoms: N_13  and  N_14
REMARK                            x       y       z     vdW  Elec       q    Type
REMARK                         _______ _______ _______ _____ _____    ______ ____
ROOT
ATOM      1  C   UNL     1       0.606  11.003  19.330  0.00  0.00    +0.000 C 
ATOM      2  O   UNL     1      -0.225  11.510  18.560  0.00  0.00    +0.000 OA
ATOM      3  N   UNL     1       0.877  11.515  20.613  0.00  0.00    +0.000 N 
ATOM      4  H   UNL     1       1.524  10.983  21.210  0.00  0.00    +0.000 HD
ENDROOT
BRANCH   3   5
ATOM      5  N   UNL     1       0.258  12.675  21.148  0.00  0.00    +0.000 NA
ATOM      6  C   UNL     1      -0.414  12.489  22.253  0.00  0.00    +0.000 C 
ATOM      7  C   UNL     1      -0.708  11.110  22.804  0.00  0.00    +0.000 C 
ATOM      8  O   UNL     1       0.142  10.281  23.039  0.00  0.00    +0.000 OA
ATOM      9  N   UNL     1      -2.056  11.122  23.098  0.00  0.00    +0.000 N 
ATOM     10  C   UNL     1      -2.388  12.463  23.364  0.00  0.00    +0.000 A 
ATOM     11  C   UNL     1      -3.491  12.827  24.113  0.00  0.00    +0.000 A 
ATOM     12  C   UNL     1      -3.496  14.107  24.647  0.00  0.00    +0.000 A 
ATOM     13  C   UNL     1      -2.422  14.988  24.390  0.00  0.00    +0.000 A 
ATOM     14 CL   UNL     1      -2.389  16.484  25.249  0.00  0.00    +0.000 Cl
ATOM     15  C   UNL     1      -1.349  14.633  23.532  0.00  0.00    +0.000 A 
ATOM     16  C   UNL     1      -1.350  13.350  23.011  0.00  0.00    +0.000 A 
ATOM     17  H   UNL     1      -2.604  10.756  22.321  0.00  0.00    +0.000 HD
ENDBRANCH   3   5
BRANCH   1  20
ATOM     18  N   UNL     1       2.216   7.734  18.931  0.00  0.00    +0.000 N 
ATOM     19  C   UNL     1       1.622   8.645  19.766  0.00  0.00    +0.000 A 
ATOM     20  C   UNL     1       1.320   9.749  18.971  0.00  0.00    +0.000 A 
ATOM     21  N   UNL     1       1.720   9.435  17.678  0.00  0.00    +0.000 NA
ATOM     22  N   UNL     1       2.252   8.213  17.675  0.00  0.00    +0.000 NA
BRANCH  18  23
ATOM     23  C   UNL     1       2.498   6.318  19.194  0.00  0.00    +0.000 C 
BRANCH  23  27
ATOM     24  C   UNL     1       5.246   4.475  16.360  0.00  0.00    +0.000 A 
ATOM     25  C   UNL     1       4.152   3.766  16.860  0.00  0.00    +0.000 A 
ATOM     26  C   UNL     1       3.275   4.348  17.785  0.00  0.00    +0.000 A 
ATOM     27  C   UNL     1       3.487   5.655  18.250  0.00  0.00    +0.000 A 
ATOM     28  C   UNL     1       4.600   6.354  17.753  0.00  0.00    +0.000 A 
ATOM     29  C   UNL     1       5.471   5.770  16.816  0.00  0.00    +0.000 A 
BRANCH  24  31
ATOM     30  C   UNL     1       6.187   4.368  14.178  0.00  0.00    +0.000 C 
ATOM     31  O   UNL     1       6.022   3.788  15.469  0.00  0.00    +0.000 OA
ENDBRANCH  24  31
ENDBRANCH  23  27
ENDBRANCH  18  23
ENDBRANCH   1  20
TORSDOF 5
ENDMDL
MODEL 6
REMARK VINA RESULT:      -7.7      3.779     10.888
REMARK  Name = 
REMARK  6 active torsions:
REMARK  status: ('A' for Active; 'I' for Inactive)
REMARK    1  A    between atoms: C_1  and  O_2
REMARK    2  A    between atoms: O_2  and  C_3
REMARK    3  A    between atoms: C_6  and  C_7
REMARK    4  A    between atoms: C_7  and  N_8
REMARK    5  A    between atoms: C_10  and  C_11
REMARK    6  A    between atoms: N_13  and  N_14
REMARK                            x       y       z     vdW  Elec       q    Type
REMARK                         _______ _______ _______ _____ _____    ______ ____
ROOT
ATOM      1  C   UNL     1       1.716   9.837  18.446  0.00  0.00    +0.000 C 
ATOM      2  O   UNL     1       2.238  10.792  17.851  0.00  0.00    +0.000 OA
ATOM      3  N   UNL     1       2.113   8.500  18.251  0.00  0.00    +0.000 N 
ATOM      4  H   UNL     1       1.677   7.783  18.847  0.00  0.00    +0.000 HD
ENDROOT
BRANCH   3   5
ATOM      5  N   UNL     1       3.123   8.100  17.338  0.00  0.00    +0.000 NA
ATOM      6  C   UNL     1       3.640   6.921  17.559  0.00  0.00    +0.000 C 
ATOM      7  C   UNL     1       3.356   6.131  18.818  0.00  0.00    +0.000 C 
ATOM      8  O   UNL     1       2.242   5.849  19.201  0.00  0.00    +0.000 OA
ATOM      9  N   UNL     1       4.592   5.715  19.267  0.00  0.00    +0.000 N 
ATOM     10  C   UNL     1       5.417   5.637  18.129  0.00  0.00    +0.000 A 
ATOM     11  C   UNL     1       6.554   4.854  18.082  0.00  0.00    +0.000 A 
ATOM     12  C   UNL     1       7.047   4.533  16.826  0.00  0.00    +0.000 A 
ATOM     13  C   UNL     1       6.412   5.029  15.666  0.00  0.00    +0.000 A 
ATOM     14 CL   UNL     1       6.947   4.429  14.140  0.00  0.00    +0.000 Cl
ATOM     15  C   UNL     1       5.309   5.918  15.737  0.00  0.00    +0.000 A 
ATOM     16  C   UNL     1       4.819   6.225  16.996  0.00  0.00    +0.000 A 
ATOM     17  H   UNL     1       4.972   6.367  19.951  0.00  0.00    +0.000 HD
ENDBRANCH   3   5
BRANCH   1  20
ATOM     18  N   UNL     1      -0.451  10.318  21.363  0.00  0.00    +0.000 N 
ATOM     19  C   UNL     1       0.764   9.918  20.869  0.00  0.00    +0.000 A 
ATOM     20  C   UNL     1       0.675  10.056  19.485  0.00  0.00    +0.000 A 
ATOM     21  N   UNL     1      -0.588  10.569  19.212  0.00  0.00    +0.000 NA
ATOM     22  N   UNL     1      -1.248  10.725  20.359  0.00  0.00    +0.000 NA
BRANCH  18  23
ATOM     23  C   UNL     1      -0.808  10.607  22.757  0.00  0.00    +0.000 C 
BRANCH  23  27
ATOM     24  C   UNL     1      -2.750  14.468  23.308  0.00  0.00    +0.000 A 
ATOM     25  C   UNL     1      -1.402  14.389  22.952  0.00  0.00    +0.000 A 
ATOM     26  C   UNL     1      -0.768  13.150  22.792  0.00  0.00    +0.000 A 
ATOM     27  C   UNL     1      -1.468  11.953  23.004  0.00  0.00    +0.000 A 
ATOM     28  C   UNL     1      -2.820  12.043  23.377  0.00  0.00    +0.000 A 
ATOM     29  C   UNL     1      -3.456  13.289  23.527  0.00  0.00    +0.000 A 
BRANCH  24  31
ATOM     30  C   UNL     1      -3.120  16.592  22.302  0.00  0.00    +0.000 C 
ATOM     31  O   UNL     1      -3.242  15.738  23.435  0.00  0.00    +0.000 OA
ENDBRANCH  24  31
ENDBRANCH  23  27
ENDBRANCH  18  23
ENDBRANCH   1  20
TORSDOF 5
ENDMDL
MODEL 7
REMARK VINA RESULT:      -7.7      1.863      2.783
REMARK  Name = 
REMARK  6 active torsions:
REMARK  status: ('A' for Active; 'I' for Inactive)
REMARK    1  A    between atoms: C_1  and  O_2
REMARK    2  A    between atoms: O_2  and  C_3
REMARK    3  A    between atoms: C_6  and  C_7
REMARK    4  A    between atoms: C_7  and  N_8
REMARK    5  A    between atoms: C_10  and  C_11
REMARK    6  A    between atoms: N_13  and  N_14
REMARK                            x       y       z     vdW  Elec       q    Type
REMARK                         _______ _______ _______ _____ _____    ______ ____
ROOT
ATOM      1  C   UNL     1       0.451  11.035  19.016  0.00  0.00    +0.000 C 
ATOM      2  O   UNL     1       0.782  12.124  18.523  0.00  0.00    +0.000 OA
ATOM      3  N   UNL     1      -0.747  10.849  19.732  0.00  0.00    +0.000 N 
ATOM      4  H   UNL     1      -0.976   9.893  20.036  0.00  0.00    +0.000 HD
ENDROOT
BRANCH   3   5
ATOM      5  N   UNL     1      -1.682  11.885  19.993  0.00  0.00    +0.000 NA
ATOM      6  C   UNL     1      -1.769  12.258  21.242  0.00  0.00    +0.000 C 
ATOM      7  C   UNL     1      -1.099  11.497  22.366  0.00  0.00    +0.000 C 
ATOM      8  O   UNL     1       0.083  11.242  22.398  0.00  0.00    +0.000 OA
ATOM      9  N   UNL     1      -2.078  11.344  23.327  0.00  0.00    +0.000 N 
ATOM     10  C   UNL     1      -2.966  12.422  23.158  0.00  0.00    +0.000 A 
ATOM     11  C   UNL     1      -3.795  12.874  24.167  0.00  0.00    +0.000 A 
ATOM     12  C   UNL     1      -4.309  14.155  24.034  0.00  0.00    +0.000 A 
ATOM     13  C   UNL     1      -4.009  14.925  22.889  0.00  0.00    +0.000 A 
ATOM     14 CL   UNL     1      -4.506  16.577  22.880  0.00  0.00    +0.000 Cl
ATOM     15  C   UNL     1      -3.242  14.405  21.814  0.00  0.00    +0.000 A 
ATOM     16  C   UNL     1      -2.727  13.128  21.962  0.00  0.00    +0.000 A 
ATOM     17  H   UNL     1      -2.558  10.452  23.222  0.00  0.00    +0.000 HD
ENDBRANCH   3   5
BRANCH   1  20
ATOM     18  N   UNL     1       2.286   7.862  18.974  0.00  0.00    +0.000 N 
ATOM     19  C   UNL     1       1.552   8.774  19.689  0.00  0.00    +0.000 A 
ATOM     20  C   UNL     1       1.273   9.815  18.806  0.00  0.00    +0.000 A 
ATOM     21  N   UNL     1       1.827   9.462  17.581  0.00  0.00    +0.000 NA
ATOM     22  N   UNL     1       2.428   8.278  17.703  0.00  0.00    +0.000 NA
BRANCH  18  23
ATOM     23  C   UNL     1       2.621   6.482  19.345  0.00  0.00    +0.000 C 
BRANCH  23  27
ATOM     24  C   UNL     1       5.071   4.176  16.577  0.00  0.00    +0.000 A 
ATOM     25  C   UNL     1       5.577   5.318  17.200  0.00  0.00    +0.000 A 
ATOM     26  C   UNL     1       4.788   6.073  18.078  0.00  0.00    +0.000 A 
ATOM     27  C   UNL     1       3.458   5.712  18.337  0.00  0.00    +0.000 A 
ATOM     28  C   UNL     1       2.952   4.570  17.692  0.00  0.00    +0.000 A 
ATOM     29  C   UNL     1       3.751   3.808  16.821  0.00  0.00    +0.000 A 
BRANCH  24  31
ATOM     30  C   UNL     1       6.069   4.053  14.421  0.00  0.00    +0.000 C 
ATOM     31  O   UNL     1       5.945   3.536  15.743  0.00  0.00    +0.000 OA
ENDBRANCH  24  31
ENDBRANCH  23  27
ENDBRANCH  18  23
ENDBRANCH   1  20
TORSDOF 5
ENDMDL
MODEL 8
REMARK VINA RESULT:      -7.7      2.835      3.665
REMARK  Name = 
REMARK  6 active torsions:
REMARK  status: ('A' for Active; 'I' for Inactive)
REMARK    1  A    between atoms: C_1  and  O_2
REMARK    2  A    between atoms: O_2  and  C_3
REMARK    3  A    between atoms: C_6  and  C_7
REMARK    4  A    between atoms: C_7  and  N_8
REMARK    5  A    between atoms: C_10  and  C_11
REMARK    6  A    between atoms: N_13  and  N_14
REMARK                            x       y       z     vdW  Elec       q    Type
REMARK                         _______ _______ _______ _____ _____    ______ ____
ROOT
ATOM      1  C   UNL     1       0.113  11.073  19.550  0.00  0.00    +0.000 C 
ATOM      2  O   UNL     1      -0.755  11.467  18.756  0.00  0.00    +0.000 OA
ATOM      3  N   UNL     1       0.390  11.721  20.768  0.00  0.00    +0.000 N 
ATOM      4  H   UNL     1       1.072  11.277  21.398  0.00  0.00    +0.000 HD
ENDROOT
BRANCH   3   5
ATOM      5  N   UNL     1      -0.266  12.902  21.204  0.00  0.00    +0.000 NA
ATOM      6  C   UNL     1      -0.925  12.792  22.326  0.00  0.00    +0.000 C 
ATOM      7  C   UNL     1      -1.169  11.460  23.000  0.00  0.00    +0.000 C 
ATOM      8  O   UNL     1      -0.289  10.685  23.301  0.00  0.00    +0.000 OA
ATOM      9  N   UNL     1      -2.515  11.452  23.303  0.00  0.00    +0.000 N 
ATOM     10  C   UNL     1      -2.892  12.800  23.451  0.00  0.00    +0.000 A 
ATOM     11  C   UNL     1      -4.002  13.191  24.174  0.00  0.00    +0.000 A 
ATOM     12  C   UNL     1      -4.049  14.513  24.591  0.00  0.00    +0.000 A 
ATOM     13  C   UNL     1      -3.008  15.403  24.248  0.00  0.00    +0.000 A 
ATOM     14 CL   UNL     1      -3.022  16.970  24.969  0.00  0.00    +0.000 Cl
ATOM     15  C   UNL     1      -1.928  15.010  23.416  0.00  0.00    +0.000 A 
ATOM     16  C   UNL     1      -1.887  13.686  23.012  0.00  0.00    +0.000 A 
ATOM     17  H   UNL     1      -3.053  10.999  22.567  0.00  0.00    +0.000 HD
ENDBRANCH   3   5
BRANCH   1  20
ATOM     18  N   UNL     1       2.141   8.217  18.469  0.00  0.00    +0.000 N 
ATOM     19  C   UNL     1       1.543   9.409  18.147  0.00  0.00    +0.000 A 
ATOM     20  C   UNL     1       0.872   9.820  19.297  0.00  0.00    +0.000 A 
ATOM     21  N   UNL     1       1.128   8.866  20.275  0.00  0.00    +0.000 NA
ATOM     22  N   UNL     1       1.901   7.911  19.756  0.00  0.00    +0.000 NA
BRANCH  18  23
ATOM     23  C   UNL     1       3.166   7.489  17.712  0.00  0.00    +0.000 C 
BRANCH  23  27
ATOM     24  C   UNL     1       3.551   3.304  18.859  0.00  0.00    +0.000 A 
ATOM     25  C   UNL     1       4.593   4.206  19.084  0.00  0.00    +0.000 A 
ATOM     26  C   UNL     1       4.481   5.549  18.701  0.00  0.00    +0.000 A 
ATOM     27  C   UNL     1       3.324   6.018  18.061  0.00  0.00    +0.000 A 
ATOM     28  C   UNL     1       2.288   5.099  17.825  0.00  0.00    +0.000 A 
ATOM     29  C   UNL     1       2.399   3.754  18.220  0.00  0.00    +0.000 A 
BRANCH  24  31
ATOM     30  C   UNL     1       4.625   1.869  20.423  0.00  0.00    +0.000 C 
ATOM     31  O   UNL     1       3.793   2.024  19.277  0.00  0.00    +0.000 OA
ENDBRANCH  24  31
ENDBRANCH  23  27
ENDBRANCH  18  23
ENDBRANCH   1  20
TORSDOF 5
ENDMDL
MODEL 9
REMARK VINA RESULT:      -7.7      3.873     10.680
REMARK  Name = 
REMARK  6 active torsions:
REMARK  status: ('A' for Active; 'I' for Inactive)
REMARK    1  A    between atoms: C_1  and  O_2
REMARK    2  A    between atoms: O_2  and  C_3
REMARK    3  A    between atoms: C_6  and  C_7
REMARK    4  A    between atoms: C_7  and  N_8
REMARK    5  A    between atoms: C_10  and  C_11
REMARK    6  A    between atoms: N_13  and  N_14
REMARK                            x       y       z     vdW  Elec       q    Type
REMARK                         _______ _______ _______ _____ _____    ______ ____
ROOT
ATOM      1  C   UNL     1       1.654   9.129  19.072  0.00  0.00    +0.000 C 
ATOM      2  O   UNL     1       1.749  10.035  18.231  0.00  0.00    +0.000 OA
ATOM      3  N   UNL     1       2.290   7.881  18.933  0.00  0.00    +0.000 N 
ATOM      4  H   UNL     1       2.219   7.221  19.719  0.00  0.00    +0.000 HD
ENDROOT
BRANCH   3   5
ATOM      5  N   UNL     1       3.078   7.516  17.810  0.00  0.00    +0.000 NA
ATOM      6  C   UNL     1       3.788   6.429  17.956  0.00  0.00    +0.000 C 
ATOM      7  C   UNL     1       3.945   5.733  19.291  0.00  0.00    +0.000 C 
ATOM      8  O   UNL     1       3.015   5.362  19.972  0.00  0.00    +0.000 OA
ATOM      9  N   UNL     1       5.299   5.505  19.419  0.00  0.00    +0.000 N 
ATOM     10  C   UNL     1       5.808   5.416  18.110  0.00  0.00    +0.000 A 
ATOM     11  C   UNL     1       6.991   4.767  17.809  0.00  0.00    +0.000 A 
ATOM     12  C   UNL     1       7.185   4.390  16.489  0.00  0.00    +0.000 A 
ATOM     13  C   UNL     1       6.213   4.700  15.512  0.00  0.00    +0.000 A 
ATOM     14 CL   UNL     1       6.415   4.024  13.938  0.00  0.00    +0.000 Cl
ATOM     15  C   UNL     1       5.055   5.459  15.820  0.00  0.00    +0.000 A 
ATOM     16  C   UNL     1       4.867   5.823  17.143  0.00  0.00    +0.000 A 
ATOM     17  H   UNL     1       5.750   6.258  19.938  0.00  0.00    +0.000 HD
ENDBRANCH   3   5
BRANCH   1  20
ATOM     18  N   UNL     1      -0.094  10.170  22.122  0.00  0.00    +0.000 N 
ATOM     19  C   UNL     1       0.725  10.510  21.075  0.00  0.00    +0.000 A 
ATOM     20  C   UNL     1       0.915   9.338  20.346  0.00  0.00    +0.000 A 
ATOM     21  N   UNL     1       0.168   8.348  20.973  0.00  0.00    +0.000 NA
ATOM     22  N   UNL     1      -0.437   8.873  22.039  0.00  0.00    +0.000 NA
BRANCH  18  23
ATOM     23  C   UNL     1      -0.803  11.068  23.042  0.00  0.00    +0.000 C 
BRANCH  23  27
ATOM     24  C   UNL     1      -4.100  13.381  21.379  0.00  0.00    +0.000 A 
ATOM     25  C   UNL     1      -4.122  12.958  22.709  0.00  0.00    +0.000 A 
ATOM     26  C   UNL     1      -3.073  12.199  23.244  0.00  0.00    +0.000 A 
ATOM     27  C   UNL     1      -1.979  11.826  22.448  0.00  0.00    +0.000 A 
ATOM     28  C   UNL     1      -1.974  12.243  21.106  0.00  0.00    +0.000 A 
ATOM     29  C   UNL     1      -3.024  13.014  20.576  0.00  0.00    +0.000 A 
BRANCH  24  31
ATOM     30  C   UNL     1      -5.821  13.717  19.772  0.00  0.00    +0.000 C 
ATOM     31  O   UNL     1      -5.188  14.110  20.986  0.00  0.00    +0.000 OA
ENDBRANCH  24  31
ENDBRANCH  23  27
ENDBRANCH  18  23
ENDBRANCH   1  20
TORSDOF 5
ENDMDL
