MODEL 1
REMARK VINA RESULT:      -8.1      0.000      0.000
REMARK  Name = 
REMARK  7 active torsions:
REMARK  status: ('A' for Active; 'I' for Inactive)
REMARK    1  A    between atoms: O_1  and  C_2
REMARK    2  A    between atoms: C_4  and  O_5
REMARK    3  A    between atoms: C_8  and  C_9
REMARK    4  A    between atoms: C_9  and  C_10
REMARK    5  A    between atoms: C_10  and  C_11
REMARK    6  A    between atoms: N_15  and  C_16
REMARK    7  A    between atoms: C_16  and  C_17
REMARK                            x       y       z     vdW  Elec       q    Type
REMARK                         _______ _______ _______ _____ _____    ______ ____
ROOT
ATOM      1  C   UNL     1       3.696   3.338  17.033  0.00  0.00    +0.000 C 
ENDROOT
BRANCH   1   7
ATOM      2  C   UNL     1       6.718   4.999  18.735  0.00  0.00    +0.000 A 
ATOM      3  C   UNL     1       7.378   5.593  17.663  0.00  0.00    +0.000 A 
ATOM      4  C   UNL     1       6.911   5.353  16.375  0.00  0.00    +0.000 A 
ATOM      5  C   UNL     1       5.736   4.610  16.157  0.00  0.00    +0.000 A 
ATOM      6 CL   UNL     1       5.198   4.379  14.522  0.00  0.00    +0.000 Cl
ATOM      7  C   UNL     1       5.029   4.041  17.239  0.00  0.00    +0.000 A 
ATOM      8  C   UNL     1       5.589   4.185  18.528  0.00  0.00    +0.000 A 
ATOM      9 CL   UNL     1       4.922   3.338  19.888  0.00  0.00    +0.000 Cl
BRANCH   2  10
ATOM     10  O   UNL     1       7.184   5.216  20.005  0.00  0.00    +0.000 OA
ATOM     11  H   UNL     1       6.535   4.894  20.651  0.00  0.00    +0.000 HD
ENDBRANCH   2  10
BRANCH   4  12
ATOM     12  O   UNL     1       7.616   5.854  15.313  0.00  0.00    +0.000 OA
ATOM     13  H   UNL     1       7.537   6.823  15.299  0.00  0.00    +0.000 HD
ENDBRANCH   4  12
ENDBRANCH   1   7
BRANCH   1  14
ATOM     14  C   UNL     1       2.484   4.251  17.218  0.00  0.00    +0.000 C 
BRANCH  14  15
ATOM     15  C   UNL     1       1.869   4.130  18.583  0.00  0.00    +0.000 A 
ATOM     16  N   UNL     1       1.074   3.161  18.996  0.00  0.00    +0.000 NA
ATOM     17  C   UNL     1       0.777   3.439  20.304  0.00  0.00    +0.000 A 
ATOM     18  C   UNL     1       1.406   4.589  20.706  0.00  0.00    +0.000 A 
ATOM     19  N   UNL     1       2.088   5.036  19.603  0.00  0.00    +0.000 N 
BRANCH  19  20
ATOM     20  C   UNL     1       2.972   6.193  19.589  0.00  0.00    +0.000 C 
BRANCH  20  21
ATOM     21  C   UNL     1       2.229   7.480  19.326  0.00  0.00    +0.000 A 
ATOM     22  C   UNL     1       2.211   8.049  18.043  0.00  0.00    +0.000 A 
ATOM     23  C   UNL     1       1.540   9.251  17.808  0.00  0.00    +0.000 A 
ATOM     24  C   UNL     1       0.882   9.900  18.852  0.00  0.00    +0.000 A 
ATOM     25  C   UNL     1       0.884   9.341  20.126  0.00  0.00    +0.000 A 
ATOM     26  C   UNL     1       1.549   8.137  20.362  0.00  0.00    +0.000 A 
ENDBRANCH  20  21
ENDBRANCH  19  20
ENDBRANCH  14  15
ENDBRANCH   1  14
TORSDOF 7
ENDMDL
MODEL 2
REMARK VINA RESULT:      -7.6      3.208      6.582
REMARK  Name = 
REMARK  7 active torsions:
REMARK  status: ('A' for Active; 'I' for Inactive)
REMARK    1  A    between atoms: O_1  and  C_2
REMARK    2  A    between atoms: C_4  and  O_5
REMARK    3  A    between atoms: C_8  and  C_9
REMARK    4  A    between atoms: C_9  and  C_10
REMARK    5  A    between atoms: C_10  and  C_11
REMARK    6  A    between atoms: N_15  and  C_16
REMARK    7  A    between atoms: C_16  and  C_17
REMARK                            x       y       z     vdW  Elec       q    Type
REMARK                         _______ _______ _______ _____ _____    ______ ____
ROOT
ATOM      1  C   UNL     1       3.369   4.209  17.054  0.00  0.00    +0.000 C 
ENDROOT
BRANCH   1   7
ATOM      2  C   UNL     1       2.118   6.177  20.112  0.00  0.00    +0.000 A 
ATOM      3  C   UNL     1       1.495   5.191  20.870  0.00  0.00    +0.000 A 
ATOM      4  C   UNL     1       1.373   3.913  20.334  0.00  0.00    +0.000 A 
ATOM      5  C   UNL     1       1.955   3.588  19.095  0.00  0.00    +0.000 A 
ATOM      6 CL   UNL     1       1.787   1.964  18.505  0.00  0.00    +0.000 Cl
ATOM      7  C   UNL     1       2.633   4.568  18.336  0.00  0.00    +0.000 A 
ATOM      8  C   UNL     1       2.634   5.890  18.835  0.00  0.00    +0.000 A 
ATOM      9 CL   UNL     1       3.241   7.202  17.875  0.00  0.00    +0.000 Cl
BRANCH   2  10
ATOM     10  O   UNL     1       2.225   7.442  20.626  0.00  0.00    +0.000 OA
ATOM     11  H   UNL     1       3.162   7.688  20.701  0.00  0.00    +0.000 HD
ENDBRANCH   2  10
BRANCH   4  12
ATOM     12  O   UNL     1       0.672   2.967  21.035  0.00  0.00    +0.000 OA
ATOM     13  H   UNL     1      -0.219   3.301  21.229  0.00  0.00    +0.000 HD
ENDBRANCH   4  12
ENDBRANCH   1   7
BRANCH   1  14
ATOM     14  C   UNL     1       4.706   3.506  17.289  0.00  0.00    +0.000 C 
BRANCH  14  15
ATOM     15  C   UNL     1       5.831   4.470  17.535  0.00  0.00    +0.000 A 
ATOM     16  N   UNL     1       6.691   4.425  18.535  0.00  0.00    +0.000 NA
ATOM     17  C   UNL     1       7.552   5.473  18.350  0.00  0.00    +0.000 A 
ATOM     18  C   UNL     1       7.225   6.169  17.213  0.00  0.00    +0.000 A 
ATOM     19  N   UNL     1       6.119   5.536  16.706  0.00  0.00    +0.000 N 
BRANCH  19  20
ATOM     20  C   UNL     1       5.471   5.884  15.448  0.00  0.00    +0.000 C 
BRANCH  20  21
ATOM     21  C   UNL     1       6.028   5.105  14.282  0.00  0.00    +0.000 A 
ATOM     22  C   UNL     1       7.303   5.394  13.768  0.00  0.00    +0.000 A 
ATOM     23  C   UNL     1       7.806   4.685  12.675  0.00  0.00    +0.000 A 
ATOM     24  C   UNL     1       7.043   3.681  12.081  0.00  0.00    +0.000 A 
ATOM     25  C   UNL     1       5.782   3.377  12.587  0.00  0.00    +0.000 A 
ATOM     26  C   UNL     1       5.280   4.081  13.683  0.00  0.00    +0.000 A 
ENDBRANCH  20  21
ENDBRANCH  19  20
ENDBRANCH  14  15
ENDBRANCH   1  14
TORSDOF 7
ENDMDL
MODEL 3
REMARK VINA RESULT:      -7.5      3.197      6.470
REMARK  Name = 
REMARK  7 active torsions:
REMARK  status: ('A' for Active; 'I' for Inactive)
REMARK    1  A    between atoms: O_1  and  C_2
REMARK    2  A    between atoms: C_4  and  O_5
REMARK    3  A    between atoms: C_8  and  C_9
REMARK    4  A    between atoms: C_9  and  C_10
REMARK    5  A    between atoms: C_10  and  C_11
REMARK    6  A    between atoms: N_15  and  C_16
REMARK    7  A    between atoms: C_16  and  C_17
REMARK                            x       y       z     vdW  Elec       q    Type
REMARK                         _______ _______ _______ _____ _____    ______ ____
ROOT
ATOM      1  C   UNL     1       3.337   4.146  17.108  0.00  0.00    +0.000 C 
ENDROOT
BRANCH   1   7
ATOM      2  C   UNL     1       1.503   3.891  20.478  0.00  0.00    +0.000 A 
ATOM      3  C   UNL     1       1.429   5.220  20.882  0.00  0.00    +0.000 A 
ATOM      4  C   UNL     1       2.081   6.187  20.123  0.00  0.00    +0.000 A 
ATOM      5  C   UNL     1       2.718   5.850  18.914  0.00  0.00    +0.000 A 
ATOM      6 CL   UNL     1       3.482   7.117  18.005  0.00  0.00    +0.000 Cl
ATOM      7  C   UNL     1       2.759   4.511  18.467  0.00  0.00    +0.000 A 
ATOM      8  C   UNL     1       2.205   3.526  19.315  0.00  0.00    +0.000 A 
ATOM      9 CL   UNL     1       2.404   1.838  18.966  0.00  0.00    +0.000 Cl
BRANCH   2  10
ATOM     10  O   UNL     1       0.879   2.931  21.231  0.00  0.00    +0.000 OA
ATOM     11  H   UNL     1       1.064   3.082  22.173  0.00  0.00    +0.000 HD
ENDBRANCH   2  10
BRANCH   4  12
ATOM     12  O   UNL     1       2.094   7.481  20.572  0.00  0.00    +0.000 OA
ATOM     13  H   UNL     1       1.225   7.888  20.415  0.00  0.00    +0.000 HD
ENDBRANCH   4  12
ENDBRANCH   1   7
BRANCH   1  14
ATOM     14  C   UNL     1       4.697   3.451  17.186  0.00  0.00    +0.000 C 
BRANCH  14  15
ATOM     15  C   UNL     1       5.823   4.408  17.450  0.00  0.00    +0.000 A 
ATOM     16  N   UNL     1       6.675   4.350  18.457  0.00  0.00    +0.000 NA
ATOM     17  C   UNL     1       7.541   5.397  18.288  0.00  0.00    +0.000 A 
ATOM     18  C   UNL     1       7.225   6.105  17.157  0.00  0.00    +0.000 A 
ATOM     19  N   UNL     1       6.121   5.482  16.634  0.00  0.00    +0.000 N 
BRANCH  19  20
ATOM     20  C   UNL     1       5.485   5.844  15.375  0.00  0.00    +0.000 C 
BRANCH  20  21
ATOM     21  C   UNL     1       6.020   5.046  14.211  0.00  0.00    +0.000 A 
ATOM     22  C   UNL     1       7.289   5.319  13.677  0.00  0.00    +0.000 A 
ATOM     23  C   UNL     1       7.772   4.593  12.586  0.00  0.00    +0.000 A 
ATOM     24  C   UNL     1       6.994   3.587  12.015  0.00  0.00    +0.000 A 
ATOM     25  C   UNL     1       5.738   3.300  12.542  0.00  0.00    +0.000 A 
ATOM     26  C   UNL     1       5.256   4.021  13.635  0.00  0.00    +0.000 A 
ENDBRANCH  20  21
ENDBRANCH  19  20
ENDBRANCH  14  15
ENDBRANCH   1  14
TORSDOF 7
ENDMDL
MODEL 4
REMARK VINA RESULT:      -7.3      0.358      2.528
REMARK  Name = 
REMARK  7 active torsions:
REMARK  status: ('A' for Active; 'I' for Inactive)
REMARK    1  A    between atoms: O_1  and  C_2
REMARK    2  A    between atoms: C_4  and  O_5
REMARK    3  A    between atoms: C_8  and  C_9
REMARK    4  A    between atoms: C_9  and  C_10
REMARK    5  A    between atoms: C_10  and  C_11
REMARK    6  A    between atoms: N_15  and  C_16
REMARK    7  A    between atoms: C_16  and  C_17
REMARK                            x       y       z     vdW  Elec       q    Type
REMARK                         _______ _______ _______ _____ _____    ______ ____
ROOT
ATOM      1  C   UNL     1       3.783   3.291  17.124  0.00  0.00    +0.000 C 
ENDROOT
BRANCH   1   7
ATOM      2  C   UNL     1       7.003   5.032  15.945  0.00  0.00    +0.000 A 
ATOM      3  C   UNL     1       7.708   5.196  17.133  0.00  0.00    +0.000 A 
ATOM      4  C   UNL     1       7.089   4.855  18.331  0.00  0.00    +0.000 A 
ATOM      5  C   UNL     1       5.815   4.258  18.343  0.00  0.00    +0.000 A 
ATOM      6 CL   UNL     1       5.120   3.830  19.876  0.00  0.00    +0.000 Cl
ATOM      7  C   UNL     1       5.107   4.041  17.140  0.00  0.00    +0.000 A 
ATOM      8  C   UNL     1       5.695   4.512  15.946  0.00  0.00    +0.000 A 
ATOM      9 CL   UNL     1       4.812   4.497  14.452  0.00  0.00    +0.000 Cl
BRANCH   2  10
ATOM     10  O   UNL     1       7.600   5.384  14.763  0.00  0.00    +0.000 OA
ATOM     11  H   UNL     1       8.149   4.650  14.442  0.00  0.00    +0.000 HD
ENDBRANCH   2  10
BRANCH   4  12
ATOM     12  O   UNL     1       7.743   5.109  19.508  0.00  0.00    +0.000 OA
ATOM     13  H   UNL     1       8.499   5.696  19.339  0.00  0.00    +0.000 HD
ENDBRANCH   4  12
ENDBRANCH   1   7
BRANCH   1  14
ATOM     14  C   UNL     1       2.560   4.200  17.250  0.00  0.00    +0.000 C 
BRANCH  14  15
ATOM     15  C   UNL     1       1.869   4.063  18.576  0.00  0.00    +0.000 A 
ATOM     16  N   UNL     1       1.036   3.100  18.924  0.00  0.00    +0.000 NA
ATOM     17  C   UNL     1       0.673   3.356  20.219  0.00  0.00    +0.000 A 
ATOM     18  C   UNL     1       1.297   4.487  20.679  0.00  0.00    +0.000 A 
ATOM     19  N   UNL     1       2.046   4.944  19.625  0.00  0.00    +0.000 N 
BRANCH  19  20
ATOM     20  C   UNL     1       2.949   6.085  19.684  0.00  0.00    +0.000 C 
BRANCH  20  21
ATOM     21  C   UNL     1       2.248   7.387  19.381  0.00  0.00    +0.000 A 
ATOM     22  C   UNL     1       1.575   8.092  20.392  0.00  0.00    +0.000 A 
ATOM     23  C   UNL     1       0.909   9.286  20.103  0.00  0.00    +0.000 A 
ATOM     24  C   UNL     1       0.906   9.788  18.803  0.00  0.00    +0.000 A 
ATOM     25  C   UNL     1       1.578   9.104  17.794  0.00  0.00    +0.000 A 
ATOM     26  C   UNL     1       2.248   7.914  18.081  0.00  0.00    +0.000 A 
ENDBRANCH  20  21
ENDBRANCH  19  20
ENDBRANCH  14  15
ENDBRANCH   1  14
TORSDOF 7
ENDMDL
MODEL 5
REMARK VINA RESULT:      -7.1      0.550      2.363
REMARK  Name = 
REMARK  7 active torsions:
REMARK  status: ('A' for Active; 'I' for Inactive)
REMARK    1  A    between atoms: O_1  and  C_2
REMARK    2  A    between atoms: C_4  and  O_5
REMARK    3  A    between atoms: C_8  and  C_9
REMARK    4  A    between atoms: C_9  and  C_10
REMARK    5  A    between atoms: C_10  and  C_11
REMARK    6  A    between atoms: N_15  and  C_16
REMARK    7  A    between atoms: C_16  and  C_17
REMARK                            x       y       z     vdW  Elec       q    Type
REMARK                         _______ _______ _______ _____ _____    ______ ____
ROOT
ATOM      1  C   UNL     1       3.948   3.255  17.065  0.00  0.00    +0.000 C 
ENDROOT
BRANCH   1   7
ATOM      2  C   UNL     1       7.108   5.074  15.842  0.00  0.00    +0.000 A 
ATOM      3  C   UNL     1       7.800   5.305  17.027  0.00  0.00    +0.000 A 
ATOM      4  C   UNL     1       7.187   4.982  18.233  0.00  0.00    +0.000 A 
ATOM      5  C   UNL     1       5.935   4.339  18.260  0.00  0.00    +0.000 A 
ATOM      6 CL   UNL     1       5.247   3.938  19.803  0.00  0.00    +0.000 Cl
ATOM      7  C   UNL     1       5.243   4.054  17.062  0.00  0.00    +0.000 A 
ATOM      8  C   UNL     1       5.821   4.506  15.855  0.00  0.00    +0.000 A 
ATOM      9 CL   UNL     1       4.948   4.406  14.358  0.00  0.00    +0.000 Cl
BRANCH   2  10
ATOM     10  O   UNL     1       7.699   5.407  14.652  0.00  0.00    +0.000 OA
ATOM     11  H   UNL     1       7.033   5.768  14.045  0.00  0.00    +0.000 HD
ENDBRANCH   2  10
BRANCH   4  12
ATOM     12  O   UNL     1       7.823   5.301  19.404  0.00  0.00    +0.000 OA
ATOM     13  H   UNL     1       7.510   6.166  19.719  0.00  0.00    +0.000 HD
ENDBRANCH   4  12
ENDBRANCH   1   7
BRANCH   1  14
ATOM     14  C   UNL     1       2.691   4.124  17.116  0.00  0.00    +0.000 C 
BRANCH  14  15
ATOM     15  C   UNL     1       1.852   3.858  18.333  0.00  0.00    +0.000 A 
ATOM     16  N   UNL     1       0.966   2.891  18.473  0.00  0.00    +0.000 NA
ATOM     17  C   UNL     1       0.464   3.009  19.741  0.00  0.00    +0.000 A 
ATOM     18  C   UNL     1       1.056   4.058  20.397  0.00  0.00    +0.000 A 
ATOM     19  N   UNL     1       1.928   4.607  19.491  0.00  0.00    +0.000 N 
BRANCH  19  20
ATOM     20  C   UNL     1       2.842   5.703  19.783  0.00  0.00    +0.000 C 
BRANCH  20  21
ATOM     21  C   UNL     1       2.232   7.052  19.491  0.00  0.00    +0.000 A 
ATOM     22  C   UNL     1       2.327   7.621  18.211  0.00  0.00    +0.000 A 
ATOM     23  C   UNL     1       1.780   8.880  17.951  0.00  0.00    +0.000 A 
ATOM     24  C   UNL     1       1.132   9.584  18.964  0.00  0.00    +0.000 A 
ATOM     25  C   UNL     1       1.022   9.027  20.234  0.00  0.00    +0.000 A 
ATOM     26  C   UNL     1       1.564   7.767  20.496  0.00  0.00    +0.000 A 
ENDBRANCH  20  21
ENDBRANCH  19  20
ENDBRANCH  14  15
ENDBRANCH   1  14
TORSDOF 7
ENDMDL
MODEL 6
REMARK VINA RESULT:      -7.1      3.414      6.503
REMARK  Name = 
REMARK  7 active torsions:
REMARK  status: ('A' for Active; 'I' for Inactive)
REMARK    1  A    between atoms: O_1  and  C_2
REMARK    2  A    between atoms: C_4  and  O_5
REMARK    3  A    between atoms: C_8  and  C_9
REMARK    4  A    between atoms: C_9  and  C_10
REMARK    5  A    between atoms: C_10  and  C_11
REMARK    6  A    between atoms: N_15  and  C_16
REMARK    7  A    between atoms: C_16  and  C_17
REMARK                            x       y       z     vdW  Elec       q    Type
REMARK                         _______ _______ _______ _____ _____    ______ ____
ROOT
ATOM      1  C   UNL     1       1.924   6.966  20.729  0.00  0.00    +0.000 C 
ENDROOT
BRANCH   1   7
ATOM      2  C   UNL     1       1.540  10.036  18.446  0.00  0.00    +0.000 A 
ATOM      3  C   UNL     1       0.627  10.819  19.146  0.00  0.00    +0.000 A 
ATOM      4  C   UNL     1       0.043  10.298  20.296  0.00  0.00    +0.000 A 
ATOM      5  C   UNL     1       0.437   9.047  20.806  0.00  0.00    +0.000 A 
ATOM      6 CL   UNL     1      -0.314   8.477  22.264  0.00  0.00    +0.000 Cl
ATOM      7  C   UNL     1       1.399   8.263  20.132  0.00  0.00    +0.000 A 
ATOM      8  C   UNL     1       1.885   8.749  18.897  0.00  0.00    +0.000 A 
ATOM      9 CL   UNL     1       2.893   7.762  17.887  0.00  0.00    +0.000 Cl
BRANCH   2  10
ATOM     10  O   UNL     1       2.104  10.535  17.302  0.00  0.00    +0.000 OA
ATOM     11  H   UNL     1       1.916   9.941  16.557  0.00  0.00    +0.000 HD
ENDBRANCH   2  10
BRANCH   4  12
ATOM     12  O   UNL     1      -0.929  11.025  20.930  0.00  0.00    +0.000 OA
ATOM     13  H   UNL     1      -1.799  10.797  20.561  0.00  0.00    +0.000 HD
ENDBRANCH   4  12
ENDBRANCH   1   7
BRANCH   1  14
ATOM     14  C   UNL     1       1.264   5.712  20.153  0.00  0.00    +0.000 C 
BRANCH  14  15
ATOM     15  C   UNL     1       2.014   4.456  20.490  0.00  0.00    +0.000 A 
ATOM     16  N   UNL     1       1.897   3.752  21.600  0.00  0.00    +0.000 NA
ATOM     17  C   UNL     1       2.741   2.682  21.468  0.00  0.00    +0.000 A 
ATOM     18  C   UNL     1       3.381   2.721  20.256  0.00  0.00    +0.000 A 
ATOM     19  N   UNL     1       2.928   3.861  19.642  0.00  0.00    +0.000 N 
BRANCH  19  20
ATOM     20  C   UNL     1       3.279   4.266  18.288  0.00  0.00    +0.000 C 
BRANCH  20  21
ATOM     21  C   UNL     1       4.746   4.589  18.147  0.00  0.00    +0.000 A 
ATOM     22  C   UNL     1       5.438   5.246  19.177  0.00  0.00    +0.000 A 
ATOM     23  C   UNL     1       6.792   5.562  19.035  0.00  0.00    +0.000 A 
ATOM     24  C   UNL     1       7.468   5.228  17.863  0.00  0.00    +0.000 A 
ATOM     25  C   UNL     1       6.796   4.567  16.839  0.00  0.00    +0.000 A 
ATOM     26  C   UNL     1       5.446   4.246  16.981  0.00  0.00    +0.000 A 
ENDBRANCH  20  21
ENDBRANCH  19  20
ENDBRANCH  14  15
ENDBRANCH   1  14
TORSDOF 7
ENDMDL
MODEL 7
REMARK VINA RESULT:      -7.1      3.396      6.441
REMARK  Name = 
REMARK  7 active torsions:
REMARK  status: ('A' for Active; 'I' for Inactive)
REMARK    1  A    between atoms: O_1  and  C_2
REMARK    2  A    between atoms: C_4  and  O_5
REMARK    3  A    between atoms: C_8  and  C_9
REMARK    4  A    between atoms: C_9  and  C_10
REMARK    5  A    between atoms: C_10  and  C_11
REMARK    6  A    between atoms: N_15  and  C_16
REMARK    7  A    between atoms: C_16  and  C_17
REMARK                            x       y       z     vdW  Elec       q    Type
REMARK                         _______ _______ _______ _____ _____    ______ ____
ROOT
ATOM      1  C   UNL     1       1.974   6.962  20.768  0.00  0.00    +0.000 C 
ENDROOT
BRANCH   1   7
ATOM      2  C   UNL     1       1.531   9.994  18.445  0.00  0.00    +0.000 A 
ATOM      3  C   UNL     1       0.612  10.774  19.141  0.00  0.00    +0.000 A 
ATOM      4  C   UNL     1       0.044  10.262  20.302  0.00  0.00    +0.000 A 
ATOM      5  C   UNL     1       0.459   9.024  20.827  0.00  0.00    +0.000 A 
ATOM      6 CL   UNL     1      -0.273   8.464  22.299  0.00  0.00    +0.000 Cl
ATOM      7  C   UNL     1       1.427   8.243  20.157  0.00  0.00    +0.000 A 
ATOM      8  C   UNL     1       1.897   8.719  18.912  0.00  0.00    +0.000 A 
ATOM      9 CL   UNL     1       2.911   7.731  17.908  0.00  0.00    +0.000 Cl
BRANCH   2  10
ATOM     10  O   UNL     1       2.080  10.485  17.290  0.00  0.00    +0.000 OA
ATOM     11  H   UNL     1       1.478  11.135  16.892  0.00  0.00    +0.000 HD
ENDBRANCH   2  10
BRANCH   4  12
ATOM     12  O   UNL     1      -0.933  10.984  20.934  0.00  0.00    +0.000 OA
ATOM     13  H   UNL     1      -0.807  10.929  21.896  0.00  0.00    +0.000 HD
ENDBRANCH   4  12
ENDBRANCH   1   7
BRANCH   1  14
ATOM     14  C   UNL     1       1.190   5.709  20.375  0.00  0.00    +0.000 C 
BRANCH  14  15
ATOM     15  C   UNL     1       1.969   4.445  20.596  0.00  0.00    +0.000 A 
ATOM     16  N   UNL     1       1.980   3.719  21.698  0.00  0.00    +0.000 NA
ATOM     17  C   UNL     1       2.798   2.650  21.446  0.00  0.00    +0.000 A 
ATOM     18  C   UNL     1       3.291   2.713  20.167  0.00  0.00    +0.000 A 
ATOM     19  N   UNL     1       2.774   3.866  19.634  0.00  0.00    +0.000 N 
BRANCH  19  20
ATOM     20  C   UNL     1       2.964   4.298  18.256  0.00  0.00    +0.000 C 
BRANCH  20  21
ATOM     21  C   UNL     1       4.420   4.494  17.912  0.00  0.00    +0.000 A 
ATOM     22  C   UNL     1       4.932   4.056  16.680  0.00  0.00    +0.000 A 
ATOM     23  C   UNL     1       6.285   4.220  16.374  0.00  0.00    +0.000 A 
ATOM     24  C   UNL     1       7.142   4.822  17.294  0.00  0.00    +0.000 A 
ATOM     25  C   UNL     1       6.645   5.269  18.515  0.00  0.00    +0.000 A 
ATOM     26  C   UNL     1       5.293   5.111  18.820  0.00  0.00    +0.000 A 
ENDBRANCH  20  21
ENDBRANCH  19  20
ENDBRANCH  14  15
ENDBRANCH   1  14
TORSDOF 7
ENDMDL
MODEL 8
REMARK VINA RESULT:      -7.0      2.847      4.760
REMARK  Name = 
REMARK  7 active torsions:
REMARK  status: ('A' for Active; 'I' for Inactive)
REMARK    1  A    between atoms: O_1  and  C_2
REMARK    2  A    between atoms: C_4  and  O_5
REMARK    3  A    between atoms: C_8  and  C_9
REMARK    4  A    between atoms: C_9  and  C_10
REMARK    5  A    between atoms: C_10  and  C_11
REMARK    6  A    between atoms: N_15  and  C_16
REMARK    7  A    between atoms: C_16  and  C_17
REMARK                            x       y       z     vdW  Elec       q    Type
REMARK                         _______ _______ _______ _____ _____    ______ ____
ROOT
ATOM      1  C   UNL     1       2.087   6.476  18.149  0.00  0.00    +0.000 C 
ENDROOT
BRANCH   1   7
ATOM      2  C   UNL     1       5.130   4.178  18.645  0.00  0.00    +0.000 A 
ATOM      3  C   UNL     1       4.654   3.241  19.556  0.00  0.00    +0.000 A 
ATOM      4  C   UNL     1       3.389   3.424  20.103  0.00  0.00    +0.000 A 
ATOM      5  C   UNL     1       2.558   4.475  19.673  0.00  0.00    +0.000 A 
ATOM      6 CL   UNL     1       0.979   4.620  20.380  0.00  0.00    +0.000 Cl
ATOM      7  C   UNL     1       3.010   5.406  18.713  0.00  0.00    +0.000 A 
ATOM      8  C   UNL     1       4.345   5.282  18.264  0.00  0.00    +0.000 A 
ATOM      9 CL   UNL     1       5.064   6.501  17.261  0.00  0.00    +0.000 Cl
BRANCH   2  10
ATOM     10  O   UNL     1       6.383   4.015  18.116  0.00  0.00    +0.000 OA
ATOM     11  H   UNL     1       6.524   4.656  17.400  0.00  0.00    +0.000 HD
ENDBRANCH   2  10
BRANCH   4  12
ATOM     12  O   UNL     1       2.958   2.559  21.075  0.00  0.00    +0.000 OA
ATOM     13  H   UNL     1       3.115   2.950  21.951  0.00  0.00    +0.000 HD
ENDBRANCH   4  12
ENDBRANCH   1   7
BRANCH   1  14
ATOM     14  C   UNL     1       2.456   7.896  18.580  0.00  0.00    +0.000 C 
BRANCH  14  15
ATOM     15  C   UNL     1       1.634   8.382  19.739  0.00  0.00    +0.000 A 
ATOM     16  N   UNL     1       1.627   7.874  20.957  0.00  0.00    +0.000 NA
ATOM     17  C   UNL     1       0.760   8.640  21.688  0.00  0.00    +0.000 A 
ATOM     18  C   UNL     1       0.231   9.641  20.914  0.00  0.00    +0.000 A 
ATOM     19  N   UNL     1       0.778   9.464  19.668  0.00  0.00    +0.000 N 
BRANCH  19  20
ATOM     20  C   UNL     1       0.564  10.355  18.536  0.00  0.00    +0.000 C 
BRANCH  20  21
ATOM     21  C   UNL     1      -0.900  10.553  18.231  0.00  0.00    +0.000 A 
ATOM     22  C   UNL     1      -1.634  11.572  18.861  0.00  0.00    +0.000 A 
ATOM     23  C   UNL     1      -2.994  11.738  18.592  0.00  0.00    +0.000 A 
ATOM     24  C   UNL     1      -3.638  10.890  17.693  0.00  0.00    +0.000 A 
ATOM     25  C   UNL     1      -2.921   9.883  17.054  0.00  0.00    +0.000 A 
ATOM     26  C   UNL     1      -1.560   9.718  17.318  0.00  0.00    +0.000 A 
ENDBRANCH  20  21
ENDBRANCH  19  20
ENDBRANCH  14  15
ENDBRANCH   1  14
TORSDOF 7
ENDMDL
MODEL 9
REMARK VINA RESULT:      -7.0      2.772      4.195
REMARK  Name = 
REMARK  7 active torsions:
REMARK  status: ('A' for Active; 'I' for Inactive)
REMARK    1  A    between atoms: O_1  and  C_2
REMARK    2  A    between atoms: C_4  and  O_5
REMARK    3  A    between atoms: C_8  and  C_9
REMARK    4  A    between atoms: C_9  and  C_10
REMARK    5  A    between atoms: C_10  and  C_11
REMARK    6  A    between atoms: N_15  and  C_16
REMARK    7  A    between atoms: C_16  and  C_17
REMARK                            x       y       z     vdW  Elec       q    Type
REMARK                         _______ _______ _______ _____ _____    ______ ____
ROOT
ATOM      1  C   UNL     1       1.969   6.363  18.148  0.00  0.00    +0.000 C 
ENDROOT
BRANCH   1   7
ATOM      2  C   UNL     1       3.368   3.378  20.127  0.00  0.00    +0.000 A 
ATOM      3  C   UNL     1       4.652   3.247  19.607  0.00  0.00    +0.000 A 
ATOM      4  C   UNL     1       5.021   4.046  18.530  0.00  0.00    +0.000 A 
ATOM      5  C   UNL     1       4.158   5.042  18.037  0.00  0.00    +0.000 A 
ATOM      6 CL   UNL     1       4.702   6.022  16.711  0.00  0.00    +0.000 Cl
ATOM      7  C   UNL     1       2.869   5.218  18.588  0.00  0.00    +0.000 A 
ATOM      8  C   UNL     1       2.462   4.312  19.592  0.00  0.00    +0.000 A 
ATOM      9 CL   UNL     1       0.826   4.302  20.172  0.00  0.00    +0.000 Cl
BRANCH   2  10
ATOM     10  O   UNL     1       2.991   2.580  21.175  0.00  0.00    +0.000 OA
ATOM     11  H   UNL     1       2.522   3.111  21.840  0.00  0.00    +0.000 HD
ENDBRANCH   2  10
BRANCH   4  12
ATOM     12  O   UNL     1       6.248   3.850  17.953  0.00  0.00    +0.000 OA
ATOM     13  H   UNL     1       6.846   3.431  18.594  0.00  0.00    +0.000 HD
ENDBRANCH   4  12
ENDBRANCH   1   7
BRANCH   1  14
ATOM     14  C   UNL     1       2.450   7.737  18.616  0.00  0.00    +0.000 C 
BRANCH  14  15
ATOM     15  C   UNL     1       1.668   8.255  19.789  0.00  0.00    +0.000 A 
ATOM     16  N   UNL     1       1.645   7.734  21.002  0.00  0.00    +0.000 NA
ATOM     17  C   UNL     1       0.830   8.539  21.751  0.00  0.00    +0.000 A 
ATOM     18  C   UNL     1       0.351   9.577  20.993  0.00  0.00    +0.000 A 
ATOM     19  N   UNL     1       0.874   9.384  19.740  0.00  0.00    +0.000 N 
BRANCH  19  20
ATOM     20  C   UNL     1       0.699  10.299  18.620  0.00  0.00    +0.000 C 
BRANCH  20  21
ATOM     21  C   UNL     1      -0.755  10.521  18.283  0.00  0.00    +0.000 A 
ATOM     22  C   UNL     1      -1.415   9.688  17.365  0.00  0.00    +0.000 A 
ATOM     23  C   UNL     1      -2.755   9.910  17.039  0.00  0.00    +0.000 A 
ATOM     24  C   UNL     1      -3.451  10.966  17.624  0.00  0.00    +0.000 A 
ATOM     25  C   UNL     1      -2.812  11.793  18.543  0.00  0.00    +0.000 A 
ATOM     26  C   UNL     1      -1.475  11.570  18.875  0.00  0.00    +0.000 A 
ENDBRANCH  20  21
ENDBRANCH  19  20
ENDBRANCH  14  15
ENDBRANCH   1  14
TORSDOF 7
ENDMDL
