MODEL 1
REMARK VINA RESULT:      -7.8      0.000      0.000
REMARK  Name = 
REMARK  7 active torsions:
REMARK  status: ('A' for Active; 'I' for Inactive)
REMARK    1  A    between atoms: C_1  and  C_2
REMARK    2  A    between atoms: C_2  and  C_4
REMARK    3  A    between atoms: C_7  and  N_8
REMARK    4  A    between atoms: C_9  and  C_11
REMARK    5  A    between atoms: C_13  and  C_14
REMARK    6  A    between atoms: N_20  and  C_21
REMARK    7  A    between atoms: C_24  and  C_25
REMARK                            x       y       z     vdW  Elec       q    Type
REMARK                         _______ _______ _______ _____ _____    ______ ____
ROOT
ATOM      1  C   UNL     1       2.816   7.357  18.142  0.00  0.00    +0.000 A 
ATOM      2  C   UNL     1       2.586   6.133  18.810  0.00  0.00    +0.000 A 
ATOM      3  C   UNL     1       3.476   5.216  18.280  0.00  0.00    +0.000 A 
ATOM      4  N   UNL     1       4.158   5.924  17.283  0.00  0.00    +0.000 N 
ATOM      5  N   UNL     1       3.849   7.254  17.287  0.00  0.00    +0.000 NA
ENDROOT
BRANCH   4   6
ATOM      6  C   UNL     1       5.130   5.440  16.363  0.00  0.00    +0.000 A 
ATOM      7  C   UNL     1       6.451   5.902  16.402  0.00  0.00    +0.000 A 
ATOM      8  C   UNL     1       7.301   5.679  15.321  0.00  0.00    +0.000 A 
ATOM      9  C   UNL     1       6.869   4.919  14.232  0.00  0.00    +0.000 A 
ATOM     10  C   UNL     1       7.765   4.712  13.047  0.00  0.00    +0.000 C 
ATOM     11  C   UNL     1       5.586   4.354  14.257  0.00  0.00    +0.000 A 
ATOM     12  C   UNL     1       4.719   4.601  15.324  0.00  0.00    +0.000 A 
ENDBRANCH   4   6
BRANCH   3  13
ATOM     13  C   UNL     1       3.693   3.812  18.693  0.00  0.00    +0.000 A 
ATOM     14  C   UNL     1       3.085   2.755  18.010  0.00  0.00    +0.000 A 
ATOM     15  C   UNL     1       3.367   1.435  18.365  0.00  0.00    +0.000 A 
ATOM     16  C   UNL     1       4.270   1.200  19.388  0.00  0.00    +0.000 A 
ATOM     17  N   UNL     1       4.845   2.178  20.104  0.00  0.00    +0.000 NA
ATOM     18  C   UNL     1       4.509   3.448  19.768  0.00  0.00    +0.000 A 
ENDBRANCH   3  13
BRANCH   1  20
ATOM     19  N   UNL     1       1.330   8.651  19.514  0.00  0.00    +0.000 N 
ATOM     20  C   UNL     1       2.044   8.595  18.330  0.00  0.00    +0.000 C 
ATOM     21  O   UNL     1       2.114   9.486  17.484  0.00  0.00    +0.000 OA
ATOM     22  H   UNL     1       1.489   7.877  20.154  0.00  0.00    +0.000 HD
BRANCH  19  26
ATOM     23  C   UNL     1      -1.064  11.907  20.786  0.00  0.00    +0.000 A 
ATOM     24  C   UNL     1      -1.303  11.302  19.561  0.00  0.00    +0.000 A 
ATOM     25  C   UNL     1      -0.519  10.222  19.144  0.00  0.00    +0.000 A 
ATOM     26  C   UNL     1       0.521   9.732  19.938  0.00  0.00    +0.000 A 
ATOM     27  C   UNL     1       0.749  10.325  21.180  0.00  0.00    +0.000 A 
ATOM     28  C   UNL     1      -0.035  11.418  21.604  0.00  0.00    +0.000 A 
BRANCH  23  30
ATOM     29  C   UNL     1      -2.115  13.248  22.730  0.00  0.00    +0.000 C 
ATOM     30  C   UNL     1      -1.893  13.064  21.242  0.00  0.00    +0.000 C 
ATOM     31  O   UNL     1      -2.361  13.847  20.423  0.00  0.00    +0.000 OA
ENDBRANCH  23  30
ENDBRANCH  19  26
ENDBRANCH   1  20
TORSDOF 5
ENDMDL
MODEL 2
REMARK VINA RESULT:      -7.8      0.493      1.031
REMARK  Name = 
REMARK  7 active torsions:
REMARK  status: ('A' for Active; 'I' for Inactive)
REMARK    1  A    between atoms: C_1  and  C_2
REMARK    2  A    between atoms: C_2  and  C_4
REMARK    3  A    between atoms: C_7  and  N_8
REMARK    4  A    between atoms: C_9  and  C_11
REMARK    5  A    between atoms: C_13  and  C_14
REMARK    6  A    between atoms: N_20  and  C_21
REMARK    7  A    between atoms: C_24  and  C_25
REMARK                            x       y       z     vdW  Elec       q    Type
REMARK                         _______ _______ _______ _____ _____    ______ ____
ROOT
ATOM      1  C   UNL     1       2.761   7.527  18.118  0.00  0.00    +0.000 A 
ATOM      2  C   UNL     1       2.454   6.307  18.762  0.00  0.00    +0.000 A 
ATOM      3  C   UNL     1       3.334   5.361  18.267  0.00  0.00    +0.000 A 
ATOM      4  N   UNL     1       4.088   6.051  17.309  0.00  0.00    +0.000 N 
ATOM      5  N   UNL     1       3.829   7.391  17.311  0.00  0.00    +0.000 NA
ENDROOT
BRANCH   4   6
ATOM      6  C   UNL     1       5.084   5.537  16.432  0.00  0.00    +0.000 A 
ATOM      7  C   UNL     1       6.392   6.033  16.459  0.00  0.00    +0.000 A 
ATOM      8  C   UNL     1       7.262   5.768  15.403  0.00  0.00    +0.000 A 
ATOM      9  C   UNL     1       6.863   4.934  14.357  0.00  0.00    +0.000 A 
ATOM     10  C   UNL     1       7.779   4.680  13.197  0.00  0.00    +0.000 C 
ATOM     11  C   UNL     1       5.594   4.340  14.400  0.00  0.00    +0.000 A 
ATOM     12  C   UNL     1       4.707   4.628  15.439  0.00  0.00    +0.000 A 
ENDBRANCH   4   6
BRANCH   3  13
ATOM     13  C   UNL     1       3.478   3.947  18.676  0.00  0.00    +0.000 A 
ATOM     14  C   UNL     1       2.661   2.950  18.134  0.00  0.00    +0.000 A 
ATOM     15  C   UNL     1       2.867   1.612  18.473  0.00  0.00    +0.000 A 
ATOM     16  C   UNL     1       3.904   1.297  19.336  0.00  0.00    +0.000 A 
ATOM     17  N   UNL     1       4.686   2.219  19.918  0.00  0.00    +0.000 NA
ATOM     18  C   UNL     1       4.425   3.513  19.608  0.00  0.00    +0.000 A 
ENDBRANCH   3  13
BRANCH   1  20
ATOM     19  N   UNL     1       1.274   8.871  19.439  0.00  0.00    +0.000 N 
ATOM     20  C   UNL     1       2.028   8.792  18.281  0.00  0.00    +0.000 C 
ATOM     21  O   UNL     1       2.161   9.681  17.441  0.00  0.00    +0.000 OA
ATOM     22  H   UNL     1       1.381   8.091  20.081  0.00  0.00    +0.000 HD
BRANCH  19  26
ATOM     23  C   UNL     1      -1.103  12.169  20.634  0.00  0.00    +0.000 A 
ATOM     24  C   UNL     1       0.074  11.878  21.306  0.00  0.00    +0.000 A 
ATOM     25  C   UNL     1       0.864  10.794  20.907  0.00  0.00    +0.000 A 
ATOM     26  C   UNL     1       0.489   9.980  19.836  0.00  0.00    +0.000 A 
ATOM     27  C   UNL     1      -0.684  10.285  19.145  0.00  0.00    +0.000 A 
ATOM     28  C   UNL     1      -1.487  11.372  19.545  0.00  0.00    +0.000 A 
BRANCH  23  30
ATOM     29  C   UNL     1      -3.463  13.172  20.956  0.00  0.00    +0.000 C 
ATOM     30  C   UNL     1      -1.958  13.320  21.052  0.00  0.00    +0.000 C 
ATOM     31  O   UNL     1      -1.442  14.349  21.476  0.00  0.00    +0.000 OA
ENDBRANCH  23  30
ENDBRANCH  19  26
ENDBRANCH   1  20
TORSDOF 5
ENDMDL
MODEL 3
REMARK VINA RESULT:      -7.7      2.768      3.393
REMARK  Name = 
REMARK  7 active torsions:
REMARK  status: ('A' for Active; 'I' for Inactive)
REMARK    1  A    between atoms: C_1  and  C_2
REMARK    2  A    between atoms: C_2  and  C_4
REMARK    3  A    between atoms: C_7  and  N_8
REMARK    4  A    between atoms: C_9  and  C_11
REMARK    5  A    between atoms: C_13  and  C_14
REMARK    6  A    between atoms: N_20  and  C_21
REMARK    7  A    between atoms: C_24  and  C_25
REMARK                            x       y       z     vdW  Elec       q    Type
REMARK                         _______ _______ _______ _____ _____    ______ ____
ROOT
ATOM      1  C   UNL     1       1.495   8.553  20.022  0.00  0.00    +0.000 A 
ATOM      2  C   UNL     1       1.119   7.415  20.769  0.00  0.00    +0.000 A 
ATOM      3  C   UNL     1       1.725   6.325  20.169  0.00  0.00    +0.000 A 
ATOM      4  N   UNL     1       2.389   6.861  19.059  0.00  0.00    +0.000 N 
ATOM      5  N   UNL     1       2.356   8.225  19.042  0.00  0.00    +0.000 NA
ENDROOT
BRANCH   4   6
ATOM      6  C   UNL     1       3.107   6.172  18.041  0.00  0.00    +0.000 A 
ATOM      7  C   UNL     1       2.847   4.825  17.763  0.00  0.00    +0.000 A 
ATOM      8  C   UNL     1       3.753   4.079  17.012  0.00  0.00    +0.000 A 
ATOM      9  C   UNL     1       4.879   4.692  16.457  0.00  0.00    +0.000 A 
ATOM     10  C   UNL     1       5.880   3.886  15.684  0.00  0.00    +0.000 C 
ATOM     11  C   UNL     1       5.066   6.070  16.636  0.00  0.00    +0.000 A 
ATOM     12  C   UNL     1       4.178   6.816  17.415  0.00  0.00    +0.000 A 
ENDBRANCH   4   6
BRANCH   3  13
ATOM     13  C   UNL     1       1.711   4.915  20.613  0.00  0.00    +0.000 A 
ATOM     14  C   UNL     1       0.814   3.992  20.067  0.00  0.00    +0.000 A 
ATOM     15  C   UNL     1       0.872   2.649  20.441  0.00  0.00    +0.000 A 
ATOM     16  C   UNL     1       1.845   2.252  21.344  0.00  0.00    +0.000 A 
ATOM     17  N   UNL     1       2.698   3.105  21.932  0.00  0.00    +0.000 NA
ATOM     18  C   UNL     1       2.581   4.410  21.585  0.00  0.00    +0.000 A 
ENDBRANCH   3  13
BRANCH   1  20
ATOM     19  N   UNL     1       1.467  10.851  19.325  0.00  0.00    +0.000 N 
ATOM     20  C   UNL     1       1.020   9.926  20.253  0.00  0.00    +0.000 C 
ATOM     21  O   UNL     1       0.252  10.152  21.187  0.00  0.00    +0.000 OA
ATOM     22  H   UNL     1       1.994  10.464  18.547  0.00  0.00    +0.000 HD
BRANCH  19  26
ATOM     23  C   UNL     1       0.543  14.985  19.281  0.00  0.00    +0.000 A 
ATOM     24  C   UNL     1      -0.281  14.080  18.630  0.00  0.00    +0.000 A 
ATOM     25  C   UNL     1       0.019  12.714  18.651  0.00  0.00    +0.000 A 
ATOM     26  C   UNL     1       1.148  12.230  19.315  0.00  0.00    +0.000 A 
ATOM     27  C   UNL     1       1.966  13.137  19.989  0.00  0.00    +0.000 A 
ATOM     28  C   UNL     1       1.673  14.516  19.967  0.00  0.00    +0.000 A 
BRANCH  23  30
ATOM     29  C   UNL     1      -0.584  16.997  18.114  0.00  0.00    +0.000 C 
ATOM     30  C   UNL     1       0.237  16.448  19.263  0.00  0.00    +0.000 C 
ATOM     31  O   UNL     1       0.632  17.171  20.171  0.00  0.00    +0.000 OA
ENDBRANCH  23  30
ENDBRANCH  19  26
ENDBRANCH   1  20
TORSDOF 5
ENDMDL
MODEL 4
REMARK VINA RESULT:      -7.7      3.221     10.647
REMARK  Name = 
REMARK  7 active torsions:
REMARK  status: ('A' for Active; 'I' for Inactive)
REMARK    1  A    between atoms: C_1  and  C_2
REMARK    2  A    between atoms: C_2  and  C_4
REMARK    3  A    between atoms: C_7  and  N_8
REMARK    4  A    between atoms: C_9  and  C_11
REMARK    5  A    between atoms: C_13  and  C_14
REMARK    6  A    between atoms: N_20  and  C_21
REMARK    7  A    between atoms: C_24  and  C_25
REMARK                            x       y       z     vdW  Elec       q    Type
REMARK                         _______ _______ _______ _____ _____    ______ ____
ROOT
ATOM      1  C   UNL     1       1.044  10.114  19.415  0.00  0.00    +0.000 A 
ATOM      2  C   UNL     1       1.427  11.357  18.863  0.00  0.00    +0.000 A 
ATOM      3  C   UNL     1       0.679  12.328  19.506  0.00  0.00    +0.000 A 
ATOM      4  N   UNL     1      -0.153  11.610  20.374  0.00  0.00    +0.000 N 
ATOM      5  N   UNL     1       0.157  10.282  20.412  0.00  0.00    +0.000 NA
ENDROOT
BRANCH   4   6
ATOM      6  C   UNL     1      -1.186  12.107  21.218  0.00  0.00    +0.000 A 
ATOM      7  C   UNL     1      -1.071  12.042  22.611  0.00  0.00    +0.000 A 
ATOM      8  C   UNL     1      -2.195  12.223  23.415  0.00  0.00    +0.000 A 
ATOM      9  C   UNL     1      -3.423  12.558  22.840  0.00  0.00    +0.000 A 
ATOM     10  C   UNL     1      -4.645  12.711  23.696  0.00  0.00    +0.000 C 
ATOM     11  C   UNL     1      -3.502  12.743  21.453  0.00  0.00    +0.000 A 
ATOM     12  C   UNL     1      -2.386  12.532  20.640  0.00  0.00    +0.000 A 
ENDBRANCH   4   6
BRANCH   3  13
ATOM     13  C   UNL     1       0.761  13.795  19.347  0.00  0.00    +0.000 A 
ATOM     14  C   UNL     1      -0.241  14.509  18.683  0.00  0.00    +0.000 A 
ATOM     15  C   UNL     1      -0.185  15.901  18.616  0.00  0.00    +0.000 A 
ATOM     16  C   UNL     1       0.868  16.555  19.234  0.00  0.00    +0.000 A 
ATOM     17  N   UNL     1       1.878  15.916  19.843  0.00  0.00    +0.000 NA
ATOM     18  C   UNL     1       1.820  14.561  19.845  0.00  0.00    +0.000 A 
ENDBRANCH   3  13
BRANCH   1  20
ATOM     19  N   UNL     1       1.936   7.965  20.006  0.00  0.00    +0.000 N 
ATOM     20  C   UNL     1       1.526   8.795  18.977  0.00  0.00    +0.000 C 
ATOM     21  O   UNL     1       1.494   8.505  17.782  0.00  0.00    +0.000 OA
ATOM     22  H   UNL     1       1.775   8.324  20.943  0.00  0.00    +0.000 HD
BRANCH  19  26
ATOM     23  C   UNL     1       3.382   4.010  19.539  0.00  0.00    +0.000 A 
ATOM     24  C   UNL     1       4.059   5.072  18.960  0.00  0.00    +0.000 A 
ATOM     25  C   UNL     1       3.587   6.380  19.121  0.00  0.00    +0.000 A 
ATOM     26  C   UNL     1       2.429   6.647  19.855  0.00  0.00    +0.000 A 
ATOM     27  C   UNL     1       1.759   5.581  20.456  0.00  0.00    +0.000 A 
ATOM     28  C   UNL     1       2.226   4.261  20.293  0.00  0.00    +0.000 A 
BRANCH  23  30
ATOM     29  C   UNL     1       3.218   1.737  18.319  0.00  0.00    +0.000 C 
ATOM     30  C   UNL     1       3.872   2.608  19.372  0.00  0.00    +0.000 C 
ATOM     31  O   UNL     1       4.794   2.192  20.065  0.00  0.00    +0.000 OA
ENDBRANCH  23  30
ENDBRANCH  19  26
ENDBRANCH   1  20
TORSDOF 5
ENDMDL
MODEL 5
REMARK VINA RESULT:      -7.7      3.188     10.715
REMARK  Name = 
REMARK  7 active torsions:
REMARK  status: ('A' for Active; 'I' for Inactive)
REMARK    1  A    between atoms: C_1  and  C_2
REMARK    2  A    between atoms: C_2  and  C_4
REMARK    3  A    between atoms: C_7  and  N_8
REMARK    4  A    between atoms: C_9  and  C_11
REMARK    5  A    between atoms: C_13  and  C_14
REMARK    6  A    between atoms: N_20  and  C_21
REMARK    7  A    between atoms: C_24  and  C_25
REMARK                            x       y       z     vdW  Elec       q    Type
REMARK                         _______ _______ _______ _____ _____    ______ ____
ROOT
ATOM      1  C   UNL     1       1.006  10.232  19.418  0.00  0.00    +0.000 A 
ATOM      2  C   UNL     1       1.413  11.481  18.896  0.00  0.00    +0.000 A 
ATOM      3  C   UNL     1       0.666  12.448  19.546  0.00  0.00    +0.000 A 
ATOM      4  N   UNL     1      -0.189  11.725  20.386  0.00  0.00    +0.000 N 
ATOM      5  N   UNL     1       0.105  10.393  20.404  0.00  0.00    +0.000 NA
ENDROOT
BRANCH   4   6
ATOM      6  C   UNL     1      -1.230  12.218  21.222  0.00  0.00    +0.000 A 
ATOM      7  C   UNL     1      -1.080  12.254  22.613  0.00  0.00    +0.000 A 
ATOM      8  C   UNL     1      -2.194  12.424  23.432  0.00  0.00    +0.000 A 
ATOM      9  C   UNL     1      -3.452  12.651  22.869  0.00  0.00    +0.000 A 
ATOM     10  C   UNL     1      -4.662  12.792  23.744  0.00  0.00    +0.000 C 
ATOM     11  C   UNL     1      -3.573  12.739  21.475  0.00  0.00    +0.000 A 
ATOM     12  C   UNL     1      -2.465  12.536  20.649  0.00  0.00    +0.000 A 
ENDBRANCH   4   6
BRANCH   3  13
ATOM     13  C   UNL     1       0.768  13.918  19.416  0.00  0.00    +0.000 A 
ATOM     14  C   UNL     1       1.853  14.618  19.952  0.00  0.00    +0.000 A 
ATOM     15  C   UNL     1       1.971  15.993  19.748  0.00  0.00    +0.000 A 
ATOM     16  C   UNL     1       1.007  16.639  18.992  0.00  0.00    +0.000 A 
ATOM     17  N   UNL     1      -0.076  16.022  18.496  0.00  0.00    +0.000 NA
ATOM     18  C   UNL     1      -0.188  14.696  18.756  0.00  0.00    +0.000 A 
ENDBRANCH   3  13
BRANCH   1  20
ATOM     19  N   UNL     1       1.862   8.062  19.984  0.00  0.00    +0.000 N 
ATOM     20  C   UNL     1       1.480   8.916  18.964  0.00  0.00    +0.000 C 
ATOM     21  O   UNL     1       1.464   8.649  17.763  0.00  0.00    +0.000 OA
ATOM     22  H   UNL     1       1.689   8.405  20.925  0.00  0.00    +0.000 HD
BRANCH  19  26
ATOM     23  C   UNL     1       3.330   4.118  19.491  0.00  0.00    +0.000 A 
ATOM     24  C   UNL     1       2.292   4.370  20.375  0.00  0.00    +0.000 A 
ATOM     25  C   UNL     1       1.801   5.671  20.532  0.00  0.00    +0.000 A 
ATOM     26  C   UNL     1       2.342   6.741  19.816  0.00  0.00    +0.000 A 
ATOM     27  C   UNL     1       3.371   6.486  18.910  0.00  0.00    +0.000 A 
ATOM     28  C   UNL     1       3.875   5.178  18.750  0.00  0.00    +0.000 A 
BRANCH  23  30
ATOM     29  C   UNL     1       3.261   1.859  18.238  0.00  0.00    +0.000 C 
ATOM     30  C   UNL     1       3.867   2.735  19.316  0.00  0.00    +0.000 C 
ATOM     31  O   UNL     1       4.787   2.337  20.022  0.00  0.00    +0.000 OA
ENDBRANCH  23  30
ENDBRANCH  19  26
ENDBRANCH   1  20
TORSDOF 5
ENDMDL
MODEL 6
REMARK VINA RESULT:      -7.6      1.934      2.850
REMARK  Name = 
REMARK  7 active torsions:
REMARK  status: ('A' for Active; 'I' for Inactive)
REMARK    1  A    between atoms: C_1  and  C_2
REMARK    2  A    between atoms: C_2  and  C_4
REMARK    3  A    between atoms: C_7  and  N_8
REMARK    4  A    between atoms: C_9  and  C_11
REMARK    5  A    between atoms: C_13  and  C_14
REMARK    6  A    between atoms: N_20  and  C_21
REMARK    7  A    between atoms: C_24  and  C_25
REMARK                            x       y       z     vdW  Elec       q    Type
REMARK                         _______ _______ _______ _____ _____    ______ ____
ROOT
ATOM      1  C   UNL     1       1.386   8.518  19.932  0.00  0.00    +0.000 A 
ATOM      2  C   UNL     1       1.032   7.377  20.687  0.00  0.00    +0.000 A 
ATOM      3  C   UNL     1       1.680   6.299  20.110  0.00  0.00    +0.000 A 
ATOM      4  N   UNL     1       2.346   6.842  19.005  0.00  0.00    +0.000 N 
ATOM      5  N   UNL     1       2.274   8.204  18.971  0.00  0.00    +0.000 NA
ENDROOT
BRANCH   4   6
ATOM      6  C   UNL     1       3.102   6.163  18.007  0.00  0.00    +0.000 A 
ATOM      7  C   UNL     1       2.887   4.806  17.741  0.00  0.00    +0.000 A 
ATOM      8  C   UNL     1       3.827   4.079  17.014  0.00  0.00    +0.000 A 
ATOM      9  C   UNL     1       4.945   4.719  16.472  0.00  0.00    +0.000 A 
ATOM     10  C   UNL     1       5.982   3.934  15.726  0.00  0.00    +0.000 C 
ATOM     11  C   UNL     1       5.088   6.103  16.638  0.00  0.00    +0.000 A 
ATOM     12  C   UNL     1       4.165   6.831  17.393  0.00  0.00    +0.000 A 
ENDBRANCH   4   6
BRANCH   3  13
ATOM     13  C   UNL     1       1.701   4.894  20.571  0.00  0.00    +0.000 A 
ATOM     14  C   UNL     1       0.844   3.938  20.018  0.00  0.00    +0.000 A 
ATOM     15  C   UNL     1       0.936   2.602  20.410  0.00  0.00    +0.000 A 
ATOM     16  C   UNL     1       1.901   2.246  21.337  0.00  0.00    +0.000 A 
ATOM     17  N   UNL     1       2.716   3.131  21.931  0.00  0.00    +0.000 NA
ATOM     18  C   UNL     1       2.565   4.428  21.566  0.00  0.00    +0.000 A 
ENDBRANCH   3  13
BRANCH   1  20
ATOM     19  N   UNL     1      -0.219   9.953  20.994  0.00  0.00    +0.000 N 
ATOM     20  C   UNL     1       0.867   9.878  20.139  0.00  0.00    +0.000 C 
ATOM     21  O   UNL     1       1.432  10.830  19.602  0.00  0.00    +0.000 OA
ATOM     22  H   UNL     1      -0.475   9.081  21.447  0.00  0.00    +0.000 HD
BRANCH  19  26
ATOM     23  C   UNL     1      -2.209  13.520  22.122  0.00  0.00    +0.000 A 
ATOM     24  C   UNL     1      -2.227  13.099  20.801  0.00  0.00    +0.000 A 
ATOM     25  C   UNL     1      -1.578  11.917  20.429  0.00  0.00    +0.000 A 
ATOM     26  C   UNL     1      -0.894  11.140  21.367  0.00  0.00    +0.000 A 
ATOM     27  C   UNL     1      -0.893  11.551  22.700  0.00  0.00    +0.000 A 
ATOM     28  C   UNL     1      -1.541  12.744  23.081  0.00  0.00    +0.000 A 
BRANCH  23  30
ATOM     29  C   UNL     1      -3.246  14.968  23.995  0.00  0.00    +0.000 C 
ATOM     30  C   UNL     1      -2.896  14.782  22.532  0.00  0.00    +0.000 C 
ATOM     31  O   UNL     1      -3.148  15.645  21.699  0.00  0.00    +0.000 OA
ENDBRANCH  23  30
ENDBRANCH  19  26
ENDBRANCH   1  20
TORSDOF 5
ENDMDL
MODEL 7
REMARK VINA RESULT:      -7.6      3.183     10.021
REMARK  Name = 
REMARK  7 active torsions:
REMARK  status: ('A' for Active; 'I' for Inactive)
REMARK    1  A    between atoms: C_1  and  C_2
REMARK    2  A    between atoms: C_2  and  C_4
REMARK    3  A    between atoms: C_7  and  N_8
REMARK    4  A    between atoms: C_9  and  C_11
REMARK    5  A    between atoms: C_13  and  C_14
REMARK    6  A    between atoms: N_20  and  C_21
REMARK    7  A    between atoms: C_24  and  C_25
REMARK                            x       y       z     vdW  Elec       q    Type
REMARK                         _______ _______ _______ _____ _____    ______ ____
ROOT
ATOM      1  C   UNL     1       1.016   9.939  19.279  0.00  0.00    +0.000 A 
ATOM      2  C   UNL     1       0.085  10.127  20.325  0.00  0.00    +0.000 A 
ATOM      3  C   UNL     1      -0.158  11.488  20.403  0.00  0.00    +0.000 A 
ATOM      4  N   UNL     1       0.681  12.050  19.434  0.00  0.00    +0.000 N 
ATOM      5  N   UNL     1       1.295  11.104  18.666  0.00  0.00    +0.000 NA
ENDROOT
BRANCH   4   6
ATOM      6  C   UNL     1       0.896  13.427  19.143  0.00  0.00    +0.000 A 
ATOM      7  C   UNL     1       2.107  14.050  19.464  0.00  0.00    +0.000 A 
ATOM      8  C   UNL     1       2.195  15.441  19.478  0.00  0.00    +0.000 A 
ATOM      9  C   UNL     1       1.103  16.218  19.087  0.00  0.00    +0.000 A 
ATOM     10  C   UNL     1       1.178  17.715  19.141  0.00  0.00    +0.000 C 
ATOM     11  C   UNL     1      -0.067  15.583  18.647  0.00  0.00    +0.000 A 
ATOM     12  C   UNL     1      -0.171  14.190  18.661  0.00  0.00    +0.000 A 
ENDBRANCH   4   6
BRANCH   3  13
ATOM     13  C   UNL     1      -1.115  12.193  21.282  0.00  0.00    +0.000 A 
ATOM     14  C   UNL     1      -0.717  12.706  22.521  0.00  0.00    +0.000 A 
ATOM     15  C   UNL     1      -1.615  13.438  23.298  0.00  0.00    +0.000 A 
ATOM     16  C   UNL     1      -2.892  13.660  22.809  0.00  0.00    +0.000 A 
ATOM     17  N   UNL     1      -3.336  13.152  21.650  0.00  0.00    +0.000 NA
ATOM     18  C   UNL     1      -2.456  12.401  20.944  0.00  0.00    +0.000 A 
ENDBRANCH   3  13
BRANCH   1  20
ATOM     19  N   UNL     1       1.835   7.781  19.940  0.00  0.00    +0.000 N 
ATOM     20  C   UNL     1       1.621   8.656  18.889  0.00  0.00    +0.000 C 
ATOM     21  O   UNL     1       1.848   8.430  17.701  0.00  0.00    +0.000 OA
ATOM     22  H   UNL     1       1.471   8.086  20.838  0.00  0.00    +0.000 HD
BRANCH  19  26
ATOM     23  C   UNL     1       3.469   3.886  19.607  0.00  0.00    +0.000 A 
ATOM     24  C   UNL     1       4.015   4.936  18.883  0.00  0.00    +0.000 A 
ATOM     25  C   UNL     1       3.481   6.224  18.999  0.00  0.00    +0.000 A 
ATOM     26  C   UNL     1       2.391   6.484  19.832  0.00  0.00    +0.000 A 
ATOM     27  C   UNL     1       1.854   5.434  20.577  0.00  0.00    +0.000 A 
ATOM     28  C   UNL     1       2.384   4.132  20.461  0.00  0.00    +0.000 A 
BRANCH  23  30
ATOM     29  C   UNL     1       3.500   1.607  18.389  0.00  0.00    +0.000 C 
ATOM     30  C   UNL     1       4.027   2.505  19.490  0.00  0.00    +0.000 C 
ATOM     31  O   UNL     1       4.901   2.126  20.262  0.00  0.00    +0.000 OA
ENDBRANCH  23  30
ENDBRANCH  19  26
ENDBRANCH   1  20
TORSDOF 5
ENDMDL
MODEL 8
REMARK VINA RESULT:      -7.6      1.321      1.664
REMARK  Name = 
REMARK  7 active torsions:
REMARK  status: ('A' for Active; 'I' for Inactive)
REMARK    1  A    between atoms: C_1  and  C_2
REMARK    2  A    between atoms: C_2  and  C_4
REMARK    3  A    between atoms: C_7  and  N_8
REMARK    4  A    between atoms: C_9  and  C_11
REMARK    5  A    between atoms: C_13  and  C_14
REMARK    6  A    between atoms: N_20  and  C_21
REMARK    7  A    between atoms: C_24  and  C_25
REMARK                            x       y       z     vdW  Elec       q    Type
REMARK                         _______ _______ _______ _____ _____    ______ ____
ROOT
ATOM      1  C   UNL     1       2.395   7.435  19.071  0.00  0.00    +0.000 A 
ATOM      2  C   UNL     1       2.227   6.097  19.491  0.00  0.00    +0.000 A 
ATOM      3  C   UNL     1       3.183   5.346  18.830  0.00  0.00    +0.000 A 
ATOM      4  N   UNL     1       3.841   6.266  18.004  0.00  0.00    +0.000 N 
ATOM      5  N   UNL     1       3.451   7.551  18.245  0.00  0.00    +0.000 NA
ENDROOT
BRANCH   4   6
ATOM      6  C   UNL     1       4.861   6.018  17.043  0.00  0.00    +0.000 A 
ATOM      7  C   UNL     1       4.765   6.528  15.743  0.00  0.00    +0.000 A 
ATOM      8  C   UNL     1       5.581   6.024  14.733  0.00  0.00    +0.000 A 
ATOM      9  C   UNL     1       6.559   5.072  15.029  0.00  0.00    +0.000 A 
ATOM     10  C   UNL     1       7.412   4.494  13.938  0.00  0.00    +0.000 C 
ATOM     11  C   UNL     1       6.733   4.658  16.357  0.00  0.00    +0.000 A 
ATOM     12  C   UNL     1       5.896   5.136  17.368  0.00  0.00    +0.000 A 
ENDBRANCH   4   6
BRANCH   3  13
ATOM     13  C   UNL     1       3.476   3.905  18.982  0.00  0.00    +0.000 A 
ATOM     14  C   UNL     1       2.960   2.963  18.087  0.00  0.00    +0.000 A 
ATOM     15  C   UNL     1       3.315   1.618  18.201  0.00  0.00    +0.000 A 
ATOM     16  C   UNL     1       4.197   1.245  19.201  0.00  0.00    +0.000 A 
ATOM     17  N   UNL     1       4.684   2.101  20.112  0.00  0.00    +0.000 NA
ATOM     18  C   UNL     1       4.278   3.391  20.005  0.00  0.00    +0.000 A 
ENDBRANCH   3  13
BRANCH   1  20
ATOM     19  N   UNL     1       1.320   8.677  20.821  0.00  0.00    +0.000 N 
ATOM     20  C   UNL     1       1.546   8.571  19.459  0.00  0.00    +0.000 C 
ATOM     21  O   UNL     1       1.144   9.349  18.596  0.00  0.00    +0.000 OA
ATOM     22  H   UNL     1       1.834   8.019  21.399  0.00  0.00    +0.000 HD
BRANCH  19  26
ATOM     23  C   UNL     1      -1.002  11.694  22.680  0.00  0.00    +0.000 A 
ATOM     24  C   UNL     1      -1.030  10.395  23.164  0.00  0.00    +0.000 A 
ATOM     25  C   UNL     1      -0.257   9.400  22.556  0.00  0.00    +0.000 A 
ATOM     26  C   UNL     1       0.550   9.683  21.452  0.00  0.00    +0.000 A 
ATOM     27  C   UNL     1       0.596  10.994  20.977  0.00  0.00    +0.000 A 
ATOM     28  C   UNL     1      -0.185  12.001  21.582  0.00  0.00    +0.000 A 
BRANCH  23  30
ATOM     29  C   UNL     1      -1.170  14.101  23.607  0.00  0.00    +0.000 C 
ATOM     30  C   UNL     1      -1.825  12.766  23.318  0.00  0.00    +0.000 C 
ATOM     31  O   UNL     1      -3.006  12.562  23.580  0.00  0.00    +0.000 OA
ENDBRANCH  23  30
ENDBRANCH  19  26
ENDBRANCH   1  20
TORSDOF 5
ENDMDL
MODEL 9
REMARK VINA RESULT:      -7.6      3.186     10.698
REMARK  Name = 
REMARK  7 active torsions:
REMARK  status: ('A' for Active; 'I' for Inactive)
REMARK    1  A    between atoms: C_1  and  C_2
REMARK    2  A    between atoms: C_2  and  C_4
REMARK    3  A    between atoms: C_7  and  N_8
REMARK    4  A    between atoms: C_9  and  C_11
REMARK    5  A    between atoms: C_13  and  C_14
REMARK    6  A    between atoms: N_20  and  C_21
REMARK    7  A    between atoms: C_24  and  C_25
REMARK                            x       y       z     vdW  Elec       q    Type
REMARK                         _______ _______ _______ _____ _____    ______ ____
ROOT
ATOM      1  C   UNL     1       1.033  10.002  19.427  0.00  0.00    +0.000 A 
ATOM      2  C   UNL     1       1.444  11.268  18.954  0.00  0.00    +0.000 A 
ATOM      3  C   UNL     1       0.635  12.207  19.569  0.00  0.00    +0.000 A 
ATOM      4  N   UNL     1      -0.257  11.449  20.338  0.00  0.00    +0.000 N 
ATOM      5  N   UNL     1       0.066  10.124  20.354  0.00  0.00    +0.000 NA
ENDROOT
BRANCH   4   6
ATOM      6  C   UNL     1      -1.362  11.904  21.113  0.00  0.00    +0.000 A 
ATOM      7  C   UNL     1      -2.526  12.379  20.498  0.00  0.00    +0.000 A 
ATOM      8  C   UNL     1      -3.456  13.111  21.233  0.00  0.00    +0.000 A 
ATOM      9  C   UNL     1      -3.276  13.299  22.605  0.00  0.00    +0.000 A 
ATOM     10  C   UNL     1      -4.251  14.123  23.393  0.00  0.00    +0.000 C 
ATOM     11  C   UNL     1      -2.171  12.713  23.238  0.00  0.00    +0.000 A 
ATOM     12  C   UNL     1      -1.219  12.005  22.500  0.00  0.00    +0.000 A 
ENDBRANCH   4   6
BRANCH   3  13
ATOM     13  C   UNL     1       0.711  13.680  19.472  0.00  0.00    +0.000 A 
ATOM     14  C   UNL     1      -0.162  14.397  18.649  0.00  0.00    +0.000 A 
ATOM     15  C   UNL     1      -0.127  15.792  18.634  0.00  0.00    +0.000 A 
ATOM     16  C   UNL     1       0.773  16.444  19.461  0.00  0.00    +0.000 A 
ATOM     17  N   UNL     1       1.662  15.802  20.234  0.00  0.00    +0.000 NA
ATOM     18  C   UNL     1       1.636  14.447  20.186  0.00  0.00    +0.000 A 
ENDBRANCH   3  13
BRANCH   1  20
ATOM     19  N   UNL     1       1.870   7.828  20.009  0.00  0.00    +0.000 N 
ATOM     20  C   UNL     1       1.566   8.705  18.982  0.00  0.00    +0.000 C 
ATOM     21  O   UNL     1       1.662   8.470  17.778  0.00  0.00    +0.000 OA
ATOM     22  H   UNL     1       1.609   8.143  20.940  0.00  0.00    +0.000 HD
BRANCH  19  26
ATOM     23  C   UNL     1       3.439   3.920  19.544  0.00  0.00    +0.000 A 
ATOM     24  C   UNL     1       2.376   4.146  20.405  0.00  0.00    +0.000 A 
ATOM     25  C   UNL     1       1.852   5.435  20.553  0.00  0.00    +0.000 A 
ATOM     26  C   UNL     1       2.383   6.518  19.850  0.00  0.00    +0.000 A 
ATOM     27  C   UNL     1       3.438   6.289  18.967  0.00  0.00    +0.000 A 
ATOM     28  C   UNL     1       3.975   4.993  18.817  0.00  0.00    +0.000 A 
BRANCH  23  30
ATOM     29  C   UNL     1       3.455   1.665  18.281  0.00  0.00    +0.000 C 
ATOM     30  C   UNL     1       4.011   2.549  19.379  0.00  0.00    +0.000 C 
ATOM     31  O   UNL     1       4.919   2.169  20.110  0.00  0.00    +0.000 OA
ENDBRANCH  23  30
ENDBRANCH  19  26
ENDBRANCH   1  20
TORSDOF 5
ENDMDL
