MODEL 1
REMARK VINA RESULT:      -8.4      0.000      0.000
REMARK  Name = 
REMARK  10 active torsions:
REMARK  status: ('A' for Active; 'I' for Inactive)
REMARK    1  A    between atoms: C_1  and  C_2
REMARK    2  A    between atoms: C_2  and  C_3
REMARK    3  A    between atoms: C_3  and  C_4
REMARK    4  A    between atoms: C_4  and  C_5
REMARK    5  A    between atoms: C_5  and  N_6
REMARK    6  A    between atoms: N_6  and  C_7
REMARK    7  A    between atoms: C_7  and  C_8
REMARK    8  A    between atoms: N_10  and  C_11
REMARK    9  A    between atoms: C_20  and  C_21
REMARK   10  A    between atoms: C_26  and  C_27
REMARK                            x       y       z     vdW  Elec       q    Type
REMARK                         _______ _______ _______ _____ _____    ______ ____
ROOT
ATOM      1  C   UNL     1       4.071   4.834  18.677  0.00  0.00    +0.000 A 
ATOM      2  C   UNL     1       3.192   5.658  19.334  0.00  0.00    +0.000 A 
ATOM      3  N   UNL     1       3.032   6.790  18.594  0.00  0.00    +0.000 N 
ATOM      4  N   UNL     1       3.786   6.751  17.472  0.00  0.00    +0.000 NA
ATOM      5  C   UNL     1       4.442   5.580  17.517  0.00  0.00    +0.000 A 
ENDROOT
BRANCH   3   6
ATOM      6  C   UNL     1       2.227   7.917  18.905  0.00  0.00    +0.000 A 
ATOM      7  C   UNL     1       2.099   8.969  17.980  0.00  0.00    +0.000 A 
ATOM      8  C   UNL     1       1.329  10.090  18.308  0.00  0.00    +0.000 A 
ATOM      9  C   UNL     1       0.699  10.154  19.545  0.00  0.00    +0.000 A 
ATOM     10  F   UNL     1      -0.025  11.237  19.863  0.00  0.00    +0.000 F 
ATOM     11  C   UNL     1       0.814   9.124  20.463  0.00  0.00    +0.000 A 
ATOM     12  C   UNL     1       1.573   8.010  20.137  0.00  0.00    +0.000 A 
ATOM     13  F   UNL     1       1.665   7.067  21.082  0.00  0.00    +0.000 F 
ENDBRANCH   3   6
BRANCH   5  14
ATOM     14  C   UNL     1       5.385   5.163  16.464  0.00  0.00    +0.000 A 
ATOM     15  C   UNL     1       4.875   4.508  15.326  0.00  0.00    +0.000 A 
ATOM     16  C   UNL     1       5.670   4.243  14.218  0.00  0.00    +0.000 A 
ATOM     17  C   UNL     1       7.014   4.593  14.242  0.00  0.00    +0.000 A 
ATOM     18  C   UNL     1       7.556   5.175  15.389  0.00  0.00    +0.000 A 
ATOM     19  C   UNL     1       6.765   5.446  16.518  0.00  0.00    +0.000 A 
ATOM     20  C   UNL     1       7.432   5.996  17.751  0.00  0.00    +0.000 C 
ENDBRANCH   5  14
BRANCH   1  21
ATOM     21  C   UNL     1       4.523   3.478  19.108  0.00  0.00    +0.000 C 
BRANCH  21  22
ATOM     22  N   UNL     1       4.305   2.529  18.022  0.00  0.00    +0.000 NA
ATOM     23  H   UNL     1       4.751   2.883  17.177  0.00  0.00    +0.000 HD
BRANCH  22  24
ATOM     24  C   UNL     1       2.883   2.346  17.768  0.00  0.00    +0.000 C 
BRANCH  24  25
ATOM     25  C   UNL     1       2.195   1.939  19.070  0.00  0.00    +0.000 C 
BRANCH  25  26
ATOM     26  C   UNL     1       0.877   2.691  19.225  0.00  0.00    +0.000 C 
BRANCH  26  28
ATOM     27  C   UNL     1       1.704   2.757  21.591  0.00  0.00    +0.000 C 
ATOM     28  C   UNL     1       0.779   3.403  20.571  0.00  0.00    +0.000 C 
ENDBRANCH  26  28
ENDBRANCH  25  26
ENDBRANCH  24  25
ENDBRANCH  22  24
ENDBRANCH  21  22
ENDBRANCH   1  21
TORSDOF 8
ENDMDL
MODEL 2
REMARK VINA RESULT:      -8.3      0.904      1.295
REMARK  Name = 
REMARK  10 active torsions:
REMARK  status: ('A' for Active; 'I' for Inactive)
REMARK    1  A    between atoms: C_1  and  C_2
REMARK    2  A    between atoms: C_2  and  C_3
REMARK    3  A    between atoms: C_3  and  C_4
REMARK    4  A    between atoms: C_4  and  C_5
REMARK    5  A    between atoms: C_5  and  N_6
REMARK    6  A    between atoms: N_6  and  C_7
REMARK    7  A    between atoms: C_7  and  C_8
REMARK    8  A    between atoms: N_10  and  C_11
REMARK    9  A    between atoms: C_20  and  C_21
REMARK   10  A    between atoms: C_26  and  C_27
REMARK                            x       y       z     vdW  Elec       q    Type
REMARK                         _______ _______ _______ _____ _____    ______ ____
ROOT
ATOM      1  C   UNL     1       4.066   4.666  18.898  0.00  0.00    +0.000 A 
ATOM      2  C   UNL     1       3.186   5.450  19.603  0.00  0.00    +0.000 A 
ATOM      3  N   UNL     1       3.002   6.611  18.916  0.00  0.00    +0.000 N 
ATOM      4  N   UNL     1       3.742   6.631  17.782  0.00  0.00    +0.000 NA
ATOM      5  C   UNL     1       4.411   5.467  17.767  0.00  0.00    +0.000 A 
ENDROOT
BRANCH   3   6
ATOM      6  C   UNL     1       2.188   7.713  19.287  0.00  0.00    +0.000 A 
ATOM      7  C   UNL     1       1.639   7.781  20.580  0.00  0.00    +0.000 A 
ATOM      8  C   UNL     1       0.814   8.855  20.926  0.00  0.00    +0.000 A 
ATOM      9  C   UNL     1       0.542   9.844  19.987  0.00  0.00    +0.000 A 
ATOM     10  F   UNL     1      -0.264  10.865  20.317  0.00  0.00    +0.000 F 
ATOM     11  C   UNL     1       1.079   9.791  18.713  0.00  0.00    +0.000 A 
ATOM     12  C   UNL     1       1.901   8.729  18.370  0.00  0.00    +0.000 A 
ATOM     13  F   UNL     1       2.360   8.725  17.113  0.00  0.00    +0.000 F 
ENDBRANCH   3   6
BRANCH   5  14
ATOM     14  C   UNL     1       5.345   5.108  16.684  0.00  0.00    +0.000 A 
ATOM     15  C   UNL     1       4.822   4.529  15.511  0.00  0.00    +0.000 A 
ATOM     16  C   UNL     1       5.609   4.327  14.384  0.00  0.00    +0.000 A 
ATOM     17  C   UNL     1       6.955   4.665  14.421  0.00  0.00    +0.000 A 
ATOM     18  C   UNL     1       7.510   5.170  15.598  0.00  0.00    +0.000 A 
ATOM     19  C   UNL     1       6.727   5.376  16.747  0.00  0.00    +0.000 A 
ATOM     20  C   UNL     1       7.406   5.843  18.007  0.00  0.00    +0.000 C 
ENDBRANCH   5  14
BRANCH   1  21
ATOM     21  C   UNL     1       4.539   3.299  19.263  0.00  0.00    +0.000 C 
BRANCH  21  22
ATOM     22  N   UNL     1       4.359   2.406  18.123  0.00  0.00    +0.000 NA
ATOM     23  H   UNL     1       4.826   2.805  17.311  0.00  0.00    +0.000 HD
BRANCH  22  24
ATOM     24  C   UNL     1       2.947   2.227  17.819  0.00  0.00    +0.000 C 
BRANCH  24  25
ATOM     25  C   UNL     1       2.210   1.835  19.099  0.00  0.00    +0.000 C 
BRANCH  25  26
ATOM     26  C   UNL     1       0.874   2.565  19.181  0.00  0.00    +0.000 C 
BRANCH  26  28
ATOM     27  C   UNL     1       1.577   2.689  21.584  0.00  0.00    +0.000 C 
ATOM     28  C   UNL     1       0.709   3.311  20.502  0.00  0.00    +0.000 C 
ENDBRANCH  26  28
ENDBRANCH  25  26
ENDBRANCH  24  25
ENDBRANCH  22  24
ENDBRANCH  21  22
ENDBRANCH   1  21
TORSDOF 8
ENDMDL
MODEL 3
REMARK VINA RESULT:      -7.9      0.736      1.054
REMARK  Name = 
REMARK  10 active torsions:
REMARK  status: ('A' for Active; 'I' for Inactive)
REMARK    1  A    between atoms: C_1  and  C_2
REMARK    2  A    between atoms: C_2  and  C_3
REMARK    3  A    between atoms: C_3  and  C_4
REMARK    4  A    between atoms: C_4  and  C_5
REMARK    5  A    between atoms: C_5  and  N_6
REMARK    6  A    between atoms: N_6  and  C_7
REMARK    7  A    between atoms: C_7  and  C_8
REMARK    8  A    between atoms: N_10  and  C_11
REMARK    9  A    between atoms: C_20  and  C_21
REMARK   10  A    between atoms: C_26  and  C_27
REMARK                            x       y       z     vdW  Elec       q    Type
REMARK                         _______ _______ _______ _____ _____    ______ ____
ROOT
ATOM      1  C   UNL     1       4.497   5.316  18.963  0.00  0.00    +0.000 A 
ATOM      2  C   UNL     1       3.567   6.102  19.596  0.00  0.00    +0.000 A 
ATOM      3  N   UNL     1       3.076   6.996  18.695  0.00  0.00    +0.000 N 
ATOM      4  N   UNL     1       3.660   6.840  17.484  0.00  0.00    +0.000 NA
ATOM      5  C   UNL     1       4.542   5.839  17.634  0.00  0.00    +0.000 A 
ENDROOT
BRANCH   3   6
ATOM      6  C   UNL     1       2.107   8.008  18.923  0.00  0.00    +0.000 A 
ATOM      7  C   UNL     1       1.765   8.903  17.893  0.00  0.00    +0.000 A 
ATOM      8  C   UNL     1       0.833   9.916  18.136  0.00  0.00    +0.000 A 
ATOM      9  C   UNL     1       0.254  10.031  19.395  0.00  0.00    +0.000 A 
ATOM     10  F   UNL     1      -0.628  11.013  19.630  0.00  0.00    +0.000 F 
ATOM     11  C   UNL     1       0.580   9.155  20.416  0.00  0.00    +0.000 A 
ATOM     12  C   UNL     1       1.500   8.147  20.175  0.00  0.00    +0.000 A 
ATOM     13  F   UNL     1       1.790   7.356  21.214  0.00  0.00    +0.000 F 
ENDBRANCH   3   6
BRANCH   5  14
ATOM     14  C   UNL     1       5.397   5.368  16.530  0.00  0.00    +0.000 A 
ATOM     15  C   UNL     1       4.852   4.460  15.599  0.00  0.00    +0.000 A 
ATOM     16  C   UNL     1       5.531   4.108  14.439  0.00  0.00    +0.000 A 
ATOM     17  C   UNL     1       6.796   4.629  14.204  0.00  0.00    +0.000 A 
ATOM     18  C   UNL     1       7.385   5.471  15.149  0.00  0.00    +0.000 A 
ATOM     19  C   UNL     1       6.712   5.833  16.328  0.00  0.00    +0.000 A 
ATOM     20  C   UNL     1       7.438   6.676  17.343  0.00  0.00    +0.000 C 
ENDBRANCH   5  14
BRANCH   1  21
ATOM     21  C   UNL     1       5.274   4.189  19.557  0.00  0.00    +0.000 C 
BRANCH  21  22
ATOM     22  N   UNL     1       4.893   2.942  18.901  0.00  0.00    +0.000 NA
ATOM     23  H   UNL     1       4.321   3.157  18.086  0.00  0.00    +0.000 HD
BRANCH  22  24
ATOM     24  C   UNL     1       4.134   2.089  19.803  0.00  0.00    +0.000 C 
BRANCH  24  25
ATOM     25  C   UNL     1       2.808   1.721  19.140  0.00  0.00    +0.000 C 
BRANCH  25  26
ATOM     26  C   UNL     1       2.601   2.557  17.881  0.00  0.00    +0.000 C 
BRANCH  26  28
ATOM     27  C   UNL     1       0.888   3.507  19.446  0.00  0.00    +0.000 C 
ATOM     28  C   UNL     1       1.450   3.547  18.033  0.00  0.00    +0.000 C 
ENDBRANCH  26  28
ENDBRANCH  25  26
ENDBRANCH  24  25
ENDBRANCH  22  24
ENDBRANCH  21  22
ENDBRANCH   1  21
TORSDOF 8
ENDMDL
MODEL 4
REMARK VINA RESULT:      -7.8      1.184      1.744
REMARK  Name = 
REMARK  10 active torsions:
REMARK  status: ('A' for Active; 'I' for Inactive)
REMARK    1  A    between atoms: C_1  and  C_2
REMARK    2  A    between atoms: C_2  and  C_3
REMARK    3  A    between atoms: C_3  and  C_4
REMARK    4  A    between atoms: C_4  and  C_5
REMARK    5  A    between atoms: C_5  and  N_6
REMARK    6  A    between atoms: N_6  and  C_7
REMARK    7  A    between atoms: C_7  and  C_8
REMARK    8  A    between atoms: N_10  and  C_11
REMARK    9  A    between atoms: C_20  and  C_21
REMARK   10  A    between atoms: C_26  and  C_27
REMARK                            x       y       z     vdW  Elec       q    Type
REMARK                         _______ _______ _______ _____ _____    ______ ____
ROOT
ATOM      1  C   UNL     1       4.591   5.128  19.067  0.00  0.00    +0.000 A 
ATOM      2  C   UNL     1       3.691   5.890  19.771  0.00  0.00    +0.000 A 
ATOM      3  N   UNL     1       3.165   6.820  18.928  0.00  0.00    +0.000 N 
ATOM      4  N   UNL     1       3.695   6.711  17.687  0.00  0.00    +0.000 NA
ATOM      5  C   UNL     1       4.579   5.703  17.759  0.00  0.00    +0.000 A 
ENDROOT
BRANCH   3   6
ATOM      6  C   UNL     1       2.210   7.824  19.238  0.00  0.00    +0.000 A 
ATOM      7  C   UNL     1       1.615   7.863  20.512  0.00  0.00    +0.000 A 
ATOM      8  C   UNL     1       0.654   8.837  20.798  0.00  0.00    +0.000 A 
ATOM      9  C   UNL     1       0.292   9.755  19.819  0.00  0.00    +0.000 A 
ATOM     10  F   UNL     1      -0.643  10.678  20.090  0.00  0.00    +0.000 F 
ATOM     11  C   UNL     1       0.872   9.730  18.562  0.00  0.00    +0.000 A 
ATOM     12  C   UNL     1       1.830   8.768  18.279  0.00  0.00    +0.000 A 
ATOM     13  F   UNL     1       2.325   8.783  17.036  0.00  0.00    +0.000 F 
ENDBRANCH   3   6
BRANCH   5  14
ATOM     14  C   UNL     1       5.383   5.275  16.600  0.00  0.00    +0.000 A 
ATOM     15  C   UNL     1       4.818   4.355  15.694  0.00  0.00    +0.000 A 
ATOM     16  C   UNL     1       5.438   4.039  14.492  0.00  0.00    +0.000 A 
ATOM     17  C   UNL     1       6.667   4.610  14.188  0.00  0.00    +0.000 A 
ATOM     18  C   UNL     1       7.279   5.466  15.105  0.00  0.00    +0.000 A 
ATOM     19  C   UNL     1       6.665   5.791  16.326  0.00  0.00    +0.000 A 
ATOM     20  C   UNL     1       7.418   6.652  17.305  0.00  0.00    +0.000 C 
ENDBRANCH   5  14
BRANCH   1  21
ATOM     21  C   UNL     1       5.388   3.977  19.582  0.00  0.00    +0.000 C 
BRANCH  21  22
ATOM     22  N   UNL     1       4.689   2.733  19.280  0.00  0.00    +0.000 NA
ATOM     23  H   UNL     1       3.880   2.939  18.696  0.00  0.00    +0.000 HD
BRANCH  22  24
ATOM     24  C   UNL     1       4.241   2.078  20.500  0.00  0.00    +0.000 C 
BRANCH  24  25
ATOM     25  C   UNL     1       2.854   2.605  20.865  0.00  0.00    +0.000 C 
BRANCH  25  26
ATOM     26  C   UNL     1       1.841   2.197  19.800  0.00  0.00    +0.000 C 
BRANCH  26  28
ATOM     27  C   UNL     1       1.381   3.806  17.932  0.00  0.00    +0.000 C 
ATOM     28  C   UNL     1       0.990   3.377  19.337  0.00  0.00    +0.000 C 
ENDBRANCH  26  28
ENDBRANCH  25  26
ENDBRANCH  24  25
ENDBRANCH  22  24
ENDBRANCH  21  22
ENDBRANCH   1  21
TORSDOF 8
ENDMDL
MODEL 5
REMARK VINA RESULT:      -7.7      1.418      1.926
REMARK  Name = 
REMARK  10 active torsions:
REMARK  status: ('A' for Active; 'I' for Inactive)
REMARK    1  A    between atoms: C_1  and  C_2
REMARK    2  A    between atoms: C_2  and  C_3
REMARK    3  A    between atoms: C_3  and  C_4
REMARK    4  A    between atoms: C_4  and  C_5
REMARK    5  A    between atoms: C_5  and  N_6
REMARK    6  A    between atoms: N_6  and  C_7
REMARK    7  A    between atoms: C_7  and  C_8
REMARK    8  A    between atoms: N_10  and  C_11
REMARK    9  A    between atoms: C_20  and  C_21
REMARK   10  A    between atoms: C_26  and  C_27
REMARK                            x       y       z     vdW  Elec       q    Type
REMARK                         _______ _______ _______ _____ _____    ______ ____
ROOT
ATOM      1  C   UNL     1       2.579   4.734  17.671  0.00  0.00    +0.000 A 
ATOM      2  C   UNL     1       1.723   5.544  18.376  0.00  0.00    +0.000 A 
ATOM      3  N   UNL     1       2.360   6.720  18.633  0.00  0.00    +0.000 N 
ATOM      4  N   UNL     1       3.618   6.714  18.133  0.00  0.00    +0.000 NA
ATOM      5  C   UNL     1       3.775   5.507  17.565  0.00  0.00    +0.000 A 
ENDROOT
BRANCH   3   6
ATOM      6  C   UNL     1       1.855   7.836  19.349  0.00  0.00    +0.000 A 
ATOM      7  C   UNL     1       1.614   7.738  20.732  0.00  0.00    +0.000 A 
ATOM      8  C   UNL     1       1.087   8.833  21.423  0.00  0.00    +0.000 A 
ATOM      9  C   UNL     1       0.804  10.008  20.737  0.00  0.00    +0.000 A 
ATOM     10  F   UNL     1       0.284  11.052  21.399  0.00  0.00    +0.000 F 
ATOM     11  C   UNL     1       1.039  10.119  19.377  0.00  0.00    +0.000 A 
ATOM     12  C   UNL     1       1.566   9.036  18.691  0.00  0.00    +0.000 A 
ATOM     13  F   UNL     1       1.740   9.203  17.376  0.00  0.00    +0.000 F 
ENDBRANCH   3   6
BRANCH   5  14
ATOM     14  C   UNL     1       5.032   5.102  16.910  0.00  0.00    +0.000 A 
ATOM     15  C   UNL     1       5.024   4.885  15.518  0.00  0.00    +0.000 A 
ATOM     16  C   UNL     1       6.197   4.675  14.805  0.00  0.00    +0.000 A 
ATOM     17  C   UNL     1       7.409   4.635  15.481  0.00  0.00    +0.000 A 
ATOM     18  C   UNL     1       7.432   4.773  16.870  0.00  0.00    +0.000 A 
ATOM     19  C   UNL     1       6.252   4.983  17.605  0.00  0.00    +0.000 A 
ATOM     20  C   UNL     1       6.339   5.037  19.107  0.00  0.00    +0.000 C 
ENDBRANCH   5  14
BRANCH   1  21
ATOM     21  C   UNL     1       2.296   3.362  17.157  0.00  0.00    +0.000 C 
BRANCH  21  22
ATOM     22  N   UNL     1       2.347   2.413  18.264  0.00  0.00    +0.000 NA
ATOM     23  H   UNL     1       2.190   2.912  19.138  0.00  0.00    +0.000 HD
BRANCH  22  24
ATOM     24  C   UNL     1       3.642   1.750  18.322  0.00  0.00    +0.000 C 
BRANCH  24  25
ATOM     25  C   UNL     1       4.269   2.004  19.692  0.00  0.00    +0.000 C 
BRANCH  25  26
ATOM     26  C   UNL     1       3.463   3.053  20.451  0.00  0.00    +0.000 C 
BRANCH  26  28
ATOM     27  C   UNL     1       1.234   2.865  21.586  0.00  0.00    +0.000 C 
ATOM     28  C   UNL     1       2.696   2.447  21.624  0.00  0.00    +0.000 C 
ENDBRANCH  26  28
ENDBRANCH  25  26
ENDBRANCH  24  25
ENDBRANCH  22  24
ENDBRANCH  21  22
ENDBRANCH   1  21
TORSDOF 8
ENDMDL
MODEL 6
REMARK VINA RESULT:      -7.7      1.899      4.662
REMARK  Name = 
REMARK  10 active torsions:
REMARK  status: ('A' for Active; 'I' for Inactive)
REMARK    1  A    between atoms: C_1  and  C_2
REMARK    2  A    between atoms: C_2  and  C_3
REMARK    3  A    between atoms: C_3  and  C_4
REMARK    4  A    between atoms: C_4  and  C_5
REMARK    5  A    between atoms: C_5  and  N_6
REMARK    6  A    between atoms: N_6  and  C_7
REMARK    7  A    between atoms: C_7  and  C_8
REMARK    8  A    between atoms: N_10  and  C_11
REMARK    9  A    between atoms: C_20  and  C_21
REMARK   10  A    between atoms: C_26  and  C_27
REMARK                            x       y       z     vdW  Elec       q    Type
REMARK                         _______ _______ _______ _____ _____    ______ ____
ROOT
ATOM      1  C   UNL     1       3.030   7.190  18.016  0.00  0.00    +0.000 A 
ATOM      2  C   UNL     1       2.515   8.326  18.590  0.00  0.00    +0.000 A 
ATOM      3  N   UNL     1       1.819   7.965  19.703  0.00  0.00    +0.000 N 
ATOM      4  N   UNL     1       1.842   6.624  19.881  0.00  0.00    +0.000 NA
ATOM      5  C   UNL     1       2.555   6.135  18.853  0.00  0.00    +0.000 A 
ENDROOT
BRANCH   3   6
ATOM      6  C   UNL     1       1.109   8.816  20.590  0.00  0.00    +0.000 A 
ATOM      7  C   UNL     1       1.290   8.695  21.980  0.00  0.00    +0.000 A 
ATOM      8  C   UNL     1       0.563   9.517  22.847  0.00  0.00    +0.000 A 
ATOM      9  C   UNL     1      -0.334  10.443  22.327  0.00  0.00    +0.000 A 
ATOM     10  F   UNL     1      -1.042  11.218  23.162  0.00  0.00    +0.000 F 
ATOM     11  C   UNL     1      -0.519  10.574  20.962  0.00  0.00    +0.000 A 
ATOM     12  C   UNL     1       0.205   9.764  20.100  0.00  0.00    +0.000 A 
ATOM     13  F   UNL     1      -0.046   9.924  18.796  0.00  0.00    +0.000 F 
ENDBRANCH   3   6
BRANCH   5  14
ATOM     14  C   UNL     1       2.803   4.692  18.680  0.00  0.00    +0.000 A 
ATOM     15  C   UNL     1       1.769   3.892  18.154  0.00  0.00    +0.000 A 
ATOM     16  C   UNL     1       1.982   2.566  17.799  0.00  0.00    +0.000 A 
ATOM     17  C   UNL     1       3.233   1.997  18.001  0.00  0.00    +0.000 A 
ATOM     18  C   UNL     1       4.249   2.751  18.590  0.00  0.00    +0.000 A 
ATOM     19  C   UNL     1       4.047   4.092  18.958  0.00  0.00    +0.000 A 
ATOM     20  C   UNL     1       5.159   4.820  19.666  0.00  0.00    +0.000 C 
ENDBRANCH   5  14
BRANCH   1  21
ATOM     21  C   UNL     1       3.880   7.110  16.792  0.00  0.00    +0.000 C 
BRANCH  21  22
ATOM     22  N   UNL     1       5.282   7.010  17.184  0.00  0.00    +0.000 NA
ATOM     23  H   UNL     1       5.689   7.943  17.203  0.00  0.00    +0.000 HD
BRANCH  22  24
ATOM     24  C   UNL     1       6.028   6.185  16.245  0.00  0.00    +0.000 C 
BRANCH  24  25
ATOM     25  C   UNL     1       5.124   5.056  15.751  0.00  0.00    +0.000 C 
BRANCH  25  26
ATOM     26  C   UNL     1       5.969   3.899  15.226  0.00  0.00    +0.000 C 
BRANCH  26  28
ATOM     27  C   UNL     1       5.907   3.529  12.747  0.00  0.00    +0.000 C 
ATOM     28  C   UNL     1       6.625   4.231  13.889  0.00  0.00    +0.000 C 
ENDBRANCH  26  28
ENDBRANCH  25  26
ENDBRANCH  24  25
ENDBRANCH  22  24
ENDBRANCH  21  22
ENDBRANCH   1  21
TORSDOF 8
ENDMDL
MODEL 7
REMARK VINA RESULT:      -7.6      1.861      4.841
REMARK  Name = 
REMARK  10 active torsions:
REMARK  status: ('A' for Active; 'I' for Inactive)
REMARK    1  A    between atoms: C_1  and  C_2
REMARK    2  A    between atoms: C_2  and  C_3
REMARK    3  A    between atoms: C_3  and  C_4
REMARK    4  A    between atoms: C_4  and  C_5
REMARK    5  A    between atoms: C_5  and  N_6
REMARK    6  A    between atoms: N_6  and  C_7
REMARK    7  A    between atoms: C_7  and  C_8
REMARK    8  A    between atoms: N_10  and  C_11
REMARK    9  A    between atoms: C_20  and  C_21
REMARK   10  A    between atoms: C_26  and  C_27
REMARK                            x       y       z     vdW  Elec       q    Type
REMARK                         _______ _______ _______ _____ _____    ______ ____
ROOT
ATOM      1  C   UNL     1       3.542   6.954  17.885  0.00  0.00    +0.000 A 
ATOM      2  C   UNL     1       2.941   8.128  18.266  0.00  0.00    +0.000 A 
ATOM      3  N   UNL     1       2.125   7.866  19.324  0.00  0.00    +0.000 N 
ATOM      4  N   UNL     1       2.152   6.553  19.651  0.00  0.00    +0.000 NA
ATOM      5  C   UNL     1       2.991   5.980  18.772  0.00  0.00    +0.000 A 
ENDROOT
BRANCH   3   6
ATOM      6  C   UNL     1       1.299   8.785  20.024  0.00  0.00    +0.000 A 
ATOM      7  C   UNL     1       1.115   8.652  21.413  0.00  0.00    +0.000 A 
ATOM      8  C   UNL     1       0.276   9.543  22.089  0.00  0.00    +0.000 A 
ATOM      9  C   UNL     1      -0.373  10.549  21.381  0.00  0.00    +0.000 A 
ATOM     10  F   UNL     1      -1.191  11.391  22.029  0.00  0.00    +0.000 F 
ATOM     11  C   UNL     1      -0.198  10.692  20.015  0.00  0.00    +0.000 A 
ATOM     12  C   UNL     1       0.638   9.813  19.345  0.00  0.00    +0.000 A 
ATOM     13  F   UNL     1       0.736   9.990  18.023  0.00  0.00    +0.000 F 
ENDBRANCH   3   6
BRANCH   5  14
ATOM     14  C   UNL     1       3.285   4.536  18.790  0.00  0.00    +0.000 A 
ATOM     15  C   UNL     1       4.422   4.090  19.493  0.00  0.00    +0.000 A 
ATOM     16  C   UNL     1       4.667   2.739  19.703  0.00  0.00    +0.000 A 
ATOM     17  C   UNL     1       3.795   1.797  19.174  0.00  0.00    +0.000 A 
ATOM     18  C   UNL     1       2.704   2.215  18.411  0.00  0.00    +0.000 A 
ATOM     19  C   UNL     1       2.446   3.578  18.187  0.00  0.00    +0.000 A 
ATOM     20  C   UNL     1       1.302   3.956  17.284  0.00  0.00    +0.000 C 
ENDBRANCH   5  14
BRANCH   1  21
ATOM     21  C   UNL     1       4.532   6.770  16.783  0.00  0.00    +0.000 C 
BRANCH  21  22
ATOM     22  N   UNL     1       5.881   6.802  17.338  0.00  0.00    +0.000 NA
ATOM     23  H   UNL     1       6.276   7.731  17.197  0.00  0.00    +0.000 HD
BRANCH  22  24
ATOM     24  C   UNL     1       6.735   5.818  16.688  0.00  0.00    +0.000 C 
BRANCH  24  25
ATOM     25  C   UNL     1       5.856   4.741  16.054  0.00  0.00    +0.000 C 
BRANCH  25  26
ATOM     26  C   UNL     1       6.513   4.208  14.785  0.00  0.00    +0.000 C 
BRANCH  26  28
ATOM     27  C   UNL     1       6.158   3.400  12.438  0.00  0.00    +0.000 C 
ATOM     28  C   UNL     1       5.522   4.098  13.630  0.00  0.00    +0.000 C 
ENDBRANCH  26  28
ENDBRANCH  25  26
ENDBRANCH  24  25
ENDBRANCH  22  24
ENDBRANCH  21  22
ENDBRANCH   1  21
TORSDOF 8
ENDMDL
MODEL 8
REMARK VINA RESULT:      -7.6      1.954      4.904
REMARK  Name = 
REMARK  10 active torsions:
REMARK  status: ('A' for Active; 'I' for Inactive)
REMARK    1  A    between atoms: C_1  and  C_2
REMARK    2  A    between atoms: C_2  and  C_3
REMARK    3  A    between atoms: C_3  and  C_4
REMARK    4  A    between atoms: C_4  and  C_5
REMARK    5  A    between atoms: C_5  and  N_6
REMARK    6  A    between atoms: N_6  and  C_7
REMARK    7  A    between atoms: C_7  and  C_8
REMARK    8  A    between atoms: N_10  and  C_11
REMARK    9  A    between atoms: C_20  and  C_21
REMARK   10  A    between atoms: C_26  and  C_27
REMARK                            x       y       z     vdW  Elec       q    Type
REMARK                         _______ _______ _______ _____ _____    ______ ____
ROOT
ATOM      1  C   UNL     1       3.768   6.722  17.374  0.00  0.00    +0.000 A 
ATOM      2  C   UNL     1       3.277   7.986  17.591  0.00  0.00    +0.000 A 
ATOM      3  N   UNL     1       2.323   7.913  18.560  0.00  0.00    +0.000 N 
ATOM      4  N   UNL     1       2.154   6.639  18.985  0.00  0.00    +0.000 NA
ATOM      5  C   UNL     1       3.008   5.899  18.260  0.00  0.00    +0.000 A 
ENDROOT
BRANCH   3   6
ATOM      6  C   UNL     1       1.543   8.977  19.084  0.00  0.00    +0.000 A 
ATOM      7  C   UNL     1       1.096  10.008  18.239  0.00  0.00    +0.000 A 
ATOM      8  C   UNL     1       0.354  11.067  18.770  0.00  0.00    +0.000 A 
ATOM      9  C   UNL     1       0.068  11.093  20.130  0.00  0.00    +0.000 A 
ATOM     10  F   UNL     1      -0.629  12.119  20.640  0.00  0.00    +0.000 F 
ATOM     11  C   UNL     1       0.499  10.083  20.973  0.00  0.00    +0.000 A 
ATOM     12  C   UNL     1       1.231   9.029  20.446  0.00  0.00    +0.000 A 
ATOM     13  F   UNL     1       1.640   8.105  21.322  0.00  0.00    +0.000 F 
ENDBRANCH   3   6
BRANCH   5  14
ATOM     14  C   UNL     1       3.120   4.439  18.421  0.00  0.00    +0.000 A 
ATOM     15  C   UNL     1       2.049   3.632  17.988  0.00  0.00    +0.000 A 
ATOM     16  C   UNL     1       2.150   2.247  17.943  0.00  0.00    +0.000 A 
ATOM     17  C   UNL     1       3.319   1.633  18.372  0.00  0.00    +0.000 A 
ATOM     18  C   UNL     1       4.364   2.410  18.875  0.00  0.00    +0.000 A 
ATOM     19  C   UNL     1       4.275   3.812  18.930  0.00  0.00    +0.000 A 
ATOM     20  C   UNL     1       5.403   4.582  19.562  0.00  0.00    +0.000 C 
ENDBRANCH   5  14
BRANCH   1  21
ATOM     21  C   UNL     1       4.844   6.331  16.416  0.00  0.00    +0.000 C 
BRANCH  21  22
ATOM     22  N   UNL     1       5.994   7.211  16.598  0.00  0.00    +0.000 NA
ATOM     23  H   UNL     1       6.204   7.670  15.713  0.00  0.00    +0.000 HD
BRANCH  22  24
ATOM     24  C   UNL     1       7.162   6.458  17.032  0.00  0.00    +0.000 C 
BRANCH  24  25
ATOM     25  C   UNL     1       7.847   7.217  18.167  0.00  0.00    +0.000 C 
BRANCH  25  26
ATOM     26  C   UNL     1       8.072   8.672  17.765  0.00  0.00    +0.000 C 
BRANCH  26  28
ATOM     27  C   UNL     1       9.118  10.870  18.369  0.00  0.00    +0.000 C 
ATOM     28  C   UNL     1       8.837   9.449  18.833  0.00  0.00    +0.000 C 
ENDBRANCH  26  28
ENDBRANCH  25  26
ENDBRANCH  24  25
ENDBRANCH  22  24
ENDBRANCH  21  22
ENDBRANCH   1  21
TORSDOF 8
ENDMDL
MODEL 9
REMARK VINA RESULT:      -7.6      1.757      4.413
REMARK  Name = 
REMARK  10 active torsions:
REMARK  status: ('A' for Active; 'I' for Inactive)
REMARK    1  A    between atoms: C_1  and  C_2
REMARK    2  A    between atoms: C_2  and  C_3
REMARK    3  A    between atoms: C_3  and  C_4
REMARK    4  A    between atoms: C_4  and  C_5
REMARK    5  A    between atoms: C_5  and  N_6
REMARK    6  A    between atoms: N_6  and  C_7
REMARK    7  A    between atoms: C_7  and  C_8
REMARK    8  A    between atoms: N_10  and  C_11
REMARK    9  A    between atoms: C_20  and  C_21
REMARK   10  A    between atoms: C_26  and  C_27
REMARK                            x       y       z     vdW  Elec       q    Type
REMARK                         _______ _______ _______ _____ _____    ______ ____
ROOT
ATOM      1  C   UNL     1       3.596   6.986  17.472  0.00  0.00    +0.000 A 
ATOM      2  C   UNL     1       3.055   8.209  17.784  0.00  0.00    +0.000 A 
ATOM      3  N   UNL     1       2.129   8.030  18.765  0.00  0.00    +0.000 N 
ATOM      4  N   UNL     1       2.025   6.724  19.107  0.00  0.00    +0.000 NA
ATOM      5  C   UNL     1       2.893   6.073  18.315  0.00  0.00    +0.000 A 
ENDROOT
BRANCH   3   6
ATOM      6  C   UNL     1       1.316   9.020  19.377  0.00  0.00    +0.000 A 
ATOM      7  C   UNL     1       0.822  10.096  18.616  0.00  0.00    +0.000 A 
ATOM      8  C   UNL     1       0.048  11.083  19.234  0.00  0.00    +0.000 A 
ATOM      9  C   UNL     1      -0.224  10.993  20.594  0.00  0.00    +0.000 A 
ATOM     10  F   UNL     1      -0.953  11.950  21.187  0.00  0.00    +0.000 F 
ATOM     11  C   UNL     1       0.253   9.938  21.353  0.00  0.00    +0.000 A 
ATOM     12  C   UNL     1       1.017   8.956  20.741  0.00  0.00    +0.000 A 
ATOM     13  F   UNL     1       1.469   7.983  21.540  0.00  0.00    +0.000 F 
ENDBRANCH   3   6
BRANCH   5  14
ATOM     14  C   UNL     1       3.071   4.611  18.375  0.00  0.00    +0.000 A 
ATOM     15  C   UNL     1       2.094   3.791  17.776  0.00  0.00    +0.000 A 
ATOM     16  C   UNL     1       2.278   2.421  17.636  0.00  0.00    +0.000 A 
ATOM     17  C   UNL     1       3.433   1.833  18.132  0.00  0.00    +0.000 A 
ATOM     18  C   UNL     1       4.379   2.616  18.795  0.00  0.00    +0.000 A 
ATOM     19  C   UNL     1       4.205   4.002  18.948  0.00  0.00    +0.000 A 
ATOM     20  C   UNL     1       5.222   4.773  19.747  0.00  0.00    +0.000 C 
ENDBRANCH   5  14
BRANCH   1  21
ATOM     21  C   UNL     1       4.665   6.709  16.469  0.00  0.00    +0.000 C 
BRANCH  21  22
ATOM     22  N   UNL     1       5.971   6.852  17.104  0.00  0.00    +0.000 NA
ATOM     23  H   UNL     1       6.340   7.778  16.898  0.00  0.00    +0.000 HD
BRANCH  22  24
ATOM     24  C   UNL     1       6.903   5.848  16.610  0.00  0.00    +0.000 C 
BRANCH  24  25
ATOM     25  C   UNL     1       6.112   4.714  15.960  0.00  0.00    +0.000 C 
BRANCH  25  26
ATOM     26  C   UNL     1       6.723   4.356  14.609  0.00  0.00    +0.000 C 
BRANCH  26  28
ATOM     27  C   UNL     1       6.307   3.432  12.315  0.00  0.00    +0.000 C 
ATOM     28  C   UNL     1       5.661   3.953  13.589  0.00  0.00    +0.000 C 
ENDBRANCH  26  28
ENDBRANCH  25  26
ENDBRANCH  24  25
ENDBRANCH  22  24
ENDBRANCH  21  22
ENDBRANCH   1  21
TORSDOF 8
ENDMDL
