MODEL 1
REMARK VINA RESULT:      -8.2      0.000      0.000
REMARK  Name = 
REMARK  12 active torsions:
REMARK  status: ('A' for Active; 'I' for Inactive)
REMARK    1  A    between atoms: C_1  and  O_2
REMARK    2  A    between atoms: O_2  and  C_3
REMARK    3  A    between atoms: C_7  and  C_8
REMARK    4  A    between atoms: N_9  and  N_10
REMARK    5  A    between atoms: C_11  and  C_13
REMARK    6  A    between atoms: C_13  and  C_14
REMARK    7  A    between atoms: C_14  and  C_15
REMARK    8  A    between atoms: C_14  and  O_16
REMARK    9  A    between atoms: C_17  and  O_18
REMARK   10  A    between atoms: O_18  and  C_19
REMARK   11  A    between atoms: C_19  and  C_20
REMARK   12  A    between atoms: C_21  and  C_22
REMARK                            x       y       z     vdW  Elec       q    Type
REMARK                         _______ _______ _______ _____ _____    ______ ____
ROOT
ATOM      1  C   UNL     1       7.288   5.156  14.829  0.00  0.00    +0.000 A 
ATOM      2  C   UNL     1       6.583   4.272  13.997  0.00  0.00    +0.000 A 
ATOM      3  C   UNL     1       5.571   3.458  14.494  0.00  0.00    +0.000 A 
ATOM      4  C   UNL     1       5.207   3.557  15.830  0.00  0.00    +0.000 A 
ATOM      5  C   UNL     1       5.855   4.475  16.668  0.00  0.00    +0.000 A 
ATOM      6  C   UNL     1       6.949   5.256  16.195  0.00  0.00    +0.000 A 
ENDROOT
BRANCH   1   8
ATOM      7  C   UNL     1       8.300   5.732  12.712  0.00  0.00    +0.000 C 
ATOM      8  O   UNL     1       8.242   5.848  14.126  0.00  0.00    +0.000 OA
ENDBRANCH   1   8
BRANCH   5   9
ATOM      9  C   UNL     1       5.274   4.557  18.032  0.00  0.00    +0.000 C 
ATOM     10  N   UNL     1       5.360   3.543  18.825  0.00  0.00    +0.000 NA
BRANCH  10  11
ATOM     11  N   UNL     1       4.627   3.527  19.975  0.00  0.00    +0.000 N 
ATOM     12  C   UNL     1       3.467   2.760  19.962  0.00  0.00    +0.000 C 
ATOM     13  O   UNL     1       3.080   2.094  19.001  0.00  0.00    +0.000 OA
ATOM     14  H   UNL     1       4.783   4.239  20.682  0.00  0.00    +0.000 HD
BRANCH  12  15
ATOM     15  C   UNL     1       2.660   2.776  21.237  0.00  0.00    +0.000 C 
BRANCH  15  16
ATOM     16  C   UNL     1       1.361   3.568  21.149  0.00  0.00    +0.000 C 
ATOM     17  C   UNL     1       1.525   5.009  20.688  0.00  0.00    +0.000 C 
BRANCH  16  18
ATOM     18  O   UNL     1       0.495   2.897  20.226  0.00  0.00    +0.000 OA
ATOM     19  H   UNL     1      -0.089   2.309  20.742  0.00  0.00    +0.000 HD
ENDBRANCH  16  18
ENDBRANCH  15  16
ENDBRANCH  12  15
ENDBRANCH  10  11
ENDBRANCH   5   9
BRANCH   6  20
ATOM     20  O   UNL     1       7.725   6.115  16.934  0.00  0.00    +0.000 OA
BRANCH  20  21
ATOM     21  C   UNL     1       7.215   7.404  17.232  0.00  0.00    +0.000 C 
BRANCH  21  22
ATOM     22  C   UNL     1       8.152   8.194  18.080  0.00  0.00    +0.000 C 
ATOM     23  C   UNL     1       8.214   9.530  17.962  0.00  0.00    +0.000 C 
BRANCH  23  24
ATOM     24  C   UNL     1       9.268  10.341  18.557  0.00  0.00    +0.000 A 
ATOM     25  C   UNL     1      10.206  11.001  17.751  0.00  0.00    +0.000 A 
ATOM     26  C   UNL     1      11.184  11.800  18.331  0.00  0.00    +0.000 A 
ATOM     27  C   UNL     1      11.215  11.968  19.714  0.00  0.00    +0.000 A 
ATOM     28  C   UNL     1      10.260  11.346  20.520  0.00  0.00    +0.000 A 
ATOM     29  C   UNL     1       9.281  10.544  19.940  0.00  0.00    +0.000 A 
ENDBRANCH  23  24
ENDBRANCH  21  22
ENDBRANCH  20  21
ENDBRANCH   6  20
TORSDOF 10
ENDMDL
MODEL 2
REMARK VINA RESULT:      -7.5      4.205      4.942
REMARK  Name = 
REMARK  12 active torsions:
REMARK  status: ('A' for Active; 'I' for Inactive)
REMARK    1  A    between atoms: C_1  and  O_2
REMARK    2  A    between atoms: O_2  and  C_3
REMARK    3  A    between atoms: C_7  and  C_8
REMARK    4  A    between atoms: N_9  and  N_10
REMARK    5  A    between atoms: C_11  and  C_13
REMARK    6  A    between atoms: C_13  and  C_14
REMARK    7  A    between atoms: C_14  and  C_15
REMARK    8  A    between atoms: C_14  and  O_16
REMARK    9  A    between atoms: C_17  and  O_18
REMARK   10  A    between atoms: O_18  and  C_19
REMARK   11  A    between atoms: C_19  and  C_20
REMARK   12  A    between atoms: C_21  and  C_22
REMARK                            x       y       z     vdW  Elec       q    Type
REMARK                         _______ _______ _______ _____ _____    ______ ____
ROOT
ATOM      1  C   UNL     1       5.100   4.856  16.482  0.00  0.00    +0.000 A 
ATOM      2  C   UNL     1       4.134   3.890  16.805  0.00  0.00    +0.000 A 
ATOM      3  C   UNL     1       3.016   4.209  17.569  0.00  0.00    +0.000 A 
ATOM      4  C   UNL     1       2.817   5.522  17.977  0.00  0.00    +0.000 A 
ATOM      5  C   UNL     1       3.736   6.516  17.616  0.00  0.00    +0.000 A 
ATOM      6  C   UNL     1       4.929   6.191  16.906  0.00  0.00    +0.000 A 
ENDROOT
BRANCH   1   8
ATOM      7  C   UNL     1       6.037   4.343  14.316  0.00  0.00    +0.000 C 
ATOM      8  O   UNL     1       6.114   4.314  15.733  0.00  0.00    +0.000 OA
ENDBRANCH   1   8
BRANCH   5   9
ATOM      9  C   UNL     1       3.326   7.887  18.013  0.00  0.00    +0.000 C 
ATOM     10  N   UNL     1       2.280   8.420  17.477  0.00  0.00    +0.000 NA
BRANCH  10  11
ATOM     11  N   UNL     1       2.041   9.751  17.656  0.00  0.00    +0.000 N 
ATOM     12  C   UNL     1       1.358  10.111  18.812  0.00  0.00    +0.000 C 
ATOM     13  O   UNL     1       0.978   9.317  19.675  0.00  0.00    +0.000 OA
ATOM     14  H   UNL     1       2.121  10.388  16.869  0.00  0.00    +0.000 HD
BRANCH  12  15
ATOM     15  C   UNL     1       1.085  11.585  18.978  0.00  0.00    +0.000 C 
BRANCH  15  16
ATOM     16  C   UNL     1      -0.369  11.985  18.750  0.00  0.00    +0.000 C 
ATOM     17  C   UNL     1      -0.564  13.411  18.255  0.00  0.00    +0.000 C 
BRANCH  16  18
ATOM     18  O   UNL     1      -0.926  11.092  17.778  0.00  0.00    +0.000 OA
ATOM     19  H   UNL     1      -0.428  11.213  16.946  0.00  0.00    +0.000 HD
ENDBRANCH  16  18
ENDBRANCH  15  16
ENDBRANCH  12  15
ENDBRANCH  10  11
ENDBRANCH   5   9
BRANCH   6  20
ATOM     20  O   UNL     1       5.949   7.050  16.578  0.00  0.00    +0.000 OA
BRANCH  20  21
ATOM     21  C   UNL     1       7.073   7.130  17.437  0.00  0.00    +0.000 C 
BRANCH  21  22
ATOM     22  C   UNL     1       7.534   8.534  17.628  0.00  0.00    +0.000 C 
ATOM     23  C   UNL     1       8.598   8.802  18.402  0.00  0.00    +0.000 C 
BRANCH  23  24
ATOM     24  C   UNL     1       8.953  10.144  18.844  0.00  0.00    +0.000 A 
ATOM     25  C   UNL     1       9.349  10.381  20.167  0.00  0.00    +0.000 A 
ATOM     26  C   UNL     1       9.719  11.660  20.565  0.00  0.00    +0.000 A 
ATOM     27  C   UNL     1       9.724  12.702  19.640  0.00  0.00    +0.000 A 
ATOM     28  C   UNL     1       9.368  12.465  18.311  0.00  0.00    +0.000 A 
ATOM     29  C   UNL     1       8.996  11.185  17.912  0.00  0.00    +0.000 A 
ENDBRANCH  23  24
ENDBRANCH  21  22
ENDBRANCH  20  21
ENDBRANCH   6  20
TORSDOF 10
ENDMDL
MODEL 3
REMARK VINA RESULT:      -7.5      1.269      1.461
REMARK  Name = 
REMARK  12 active torsions:
REMARK  status: ('A' for Active; 'I' for Inactive)
REMARK    1  A    between atoms: C_1  and  O_2
REMARK    2  A    between atoms: O_2  and  C_3
REMARK    3  A    between atoms: C_7  and  C_8
REMARK    4  A    between atoms: N_9  and  N_10
REMARK    5  A    between atoms: C_11  and  C_13
REMARK    6  A    between atoms: C_13  and  C_14
REMARK    7  A    between atoms: C_14  and  C_15
REMARK    8  A    between atoms: C_14  and  O_16
REMARK    9  A    between atoms: C_17  and  O_18
REMARK   10  A    between atoms: O_18  and  C_19
REMARK   11  A    between atoms: C_19  and  C_20
REMARK   12  A    between atoms: C_21  and  C_22
REMARK                            x       y       z     vdW  Elec       q    Type
REMARK                         _______ _______ _______ _____ _____    ______ ____
ROOT
ATOM      1  C   UNL     1       7.338   5.172  14.335  0.00  0.00    +0.000 A 
ATOM      2  C   UNL     1       6.656   4.406  13.377  0.00  0.00    +0.000 A 
ATOM      3  C   UNL     1       5.478   3.735  13.688  0.00  0.00    +0.000 A 
ATOM      4  C   UNL     1       4.930   3.868  14.957  0.00  0.00    +0.000 A 
ATOM      5  C   UNL     1       5.560   4.676  15.914  0.00  0.00    +0.000 A 
ATOM      6  C   UNL     1       6.810   5.302  15.637  0.00  0.00    +0.000 A 
ENDROOT
BRANCH   1   8
ATOM      7  C   UNL     1       8.554   5.988  12.413  0.00  0.00    +0.000 C 
ATOM      8  O   UNL     1       8.474   5.732  13.807  0.00  0.00    +0.000 OA
ENDBRANCH   1   8
BRANCH   5   9
ATOM      9  C   UNL     1       4.793   4.822  17.176  0.00  0.00    +0.000 C 
ATOM     10  N   UNL     1       3.747   4.094  17.376  0.00  0.00    +0.000 NA
BRANCH  10  11
ATOM     11  N   UNL     1       2.911   4.391  18.412  0.00  0.00    +0.000 N 
ATOM     12  C   UNL     1       1.934   3.449  18.712  0.00  0.00    +0.000 C 
ATOM     13  O   UNL     1       1.791   2.377  18.122  0.00  0.00    +0.000 OA
ATOM     14  H   UNL     1       2.847   5.346  18.750  0.00  0.00    +0.000 HD
BRANCH  12  15
ATOM     15  C   UNL     1       1.007   3.809  19.847  0.00  0.00    +0.000 C 
BRANCH  15  16
ATOM     16  C   UNL     1       1.683   3.895  21.210  0.00  0.00    +0.000 C 
ATOM     17  C   UNL     1       2.527   2.683  21.578  0.00  0.00    +0.000 C 
BRANCH  16  18
ATOM     18  O   UNL     1       2.532   5.050  21.209  0.00  0.00    +0.000 OA
ATOM     19  H   UNL     1       3.300   4.851  20.639  0.00  0.00    +0.000 HD
ENDBRANCH  16  18
ENDBRANCH  15  16
ENDBRANCH  12  15
ENDBRANCH  10  11
ENDBRANCH   5   9
BRANCH   6  20
ATOM     20  O   UNL     1       7.573   6.035  16.513  0.00  0.00    +0.000 OA
BRANCH  20  21
ATOM     21  C   UNL     1       6.935   7.021  17.307  0.00  0.00    +0.000 C 
BRANCH  21  22
ATOM     22  C   UNL     1       7.711   8.292  17.351  0.00  0.00    +0.000 C 
ATOM     23  C   UNL     1       8.349   8.662  18.473  0.00  0.00    +0.000 C 
BRANCH  23  24
ATOM     24  C   UNL     1       8.907   9.993  18.680  0.00  0.00    +0.000 A 
ATOM     25  C   UNL     1       8.687  11.014  17.746  0.00  0.00    +0.000 A 
ATOM     26  C   UNL     1       9.195  12.287  17.973  0.00  0.00    +0.000 A 
ATOM     27  C   UNL     1       9.899  12.556  19.145  0.00  0.00    +0.000 A 
ATOM     28  C   UNL     1      10.087  11.554  20.098  0.00  0.00    +0.000 A 
ATOM     29  C   UNL     1       9.580  10.278  19.870  0.00  0.00    +0.000 A 
ENDBRANCH  23  24
ENDBRANCH  21  22
ENDBRANCH  20  21
ENDBRANCH   6  20
TORSDOF 10
ENDMDL
MODEL 4
REMARK VINA RESULT:      -7.4      4.502      7.455
REMARK  Name = 
REMARK  12 active torsions:
REMARK  status: ('A' for Active; 'I' for Inactive)
REMARK    1  A    between atoms: C_1  and  O_2
REMARK    2  A    between atoms: O_2  and  C_3
REMARK    3  A    between atoms: C_7  and  C_8
REMARK    4  A    between atoms: N_9  and  N_10
REMARK    5  A    between atoms: C_11  and  C_13
REMARK    6  A    between atoms: C_13  and  C_14
REMARK    7  A    between atoms: C_14  and  C_15
REMARK    8  A    between atoms: C_14  and  O_16
REMARK    9  A    between atoms: C_17  and  O_18
REMARK   10  A    between atoms: O_18  and  C_19
REMARK   11  A    between atoms: C_19  and  C_20
REMARK   12  A    between atoms: C_21  and  C_22
REMARK                            x       y       z     vdW  Elec       q    Type
REMARK                         _______ _______ _______ _____ _____    ______ ____
ROOT
ATOM      1  C   UNL     1       3.169   3.292  18.986  0.00  0.00    +0.000 A 
ATOM      2  C   UNL     1       2.552   2.617  20.051  0.00  0.00    +0.000 A 
ATOM      3  C   UNL     1       1.973   3.308  21.110  0.00  0.00    +0.000 A 
ATOM      4  C   UNL     1       1.951   4.697  21.092  0.00  0.00    +0.000 A 
ATOM      5  C   UNL     1       2.507   5.393  20.010  0.00  0.00    +0.000 A 
ATOM      6  C   UNL     1       3.179   4.703  18.959  0.00  0.00    +0.000 A 
ENDROOT
BRANCH   1   8
ATOM      7  C   UNL     1       3.869   1.050  18.422  0.00  0.00    +0.000 C 
ATOM      8  O   UNL     1       3.676   2.410  18.065  0.00  0.00    +0.000 OA
ENDBRANCH   1   8
BRANCH   5   9
ATOM      9  C   UNL     1       2.297   6.862  20.069  0.00  0.00    +0.000 C 
ATOM     10  N   UNL     1       1.361   7.343  20.815  0.00  0.00    +0.000 NA
BRANCH  10  11
ATOM     11  N   UNL     1       1.011   8.655  20.688  0.00  0.00    +0.000 N 
ATOM     12  C   UNL     1      -0.154   9.054  21.334  0.00  0.00    +0.000 C 
ATOM     13  O   UNL     1      -0.864   8.312  22.015  0.00  0.00    +0.000 OA
ATOM     14  H   UNL     1       1.428   9.220  19.954  0.00  0.00    +0.000 HD
BRANCH  12  15
ATOM     15  C   UNL     1      -0.533  10.503  21.161  0.00  0.00    +0.000 C 
BRANCH  15  16
ATOM     16  C   UNL     1      -0.554  11.308  22.455  0.00  0.00    +0.000 C 
ATOM     17  C   UNL     1      -1.905  11.914  22.806  0.00  0.00    +0.000 C 
BRANCH  16  18
ATOM     18  O   UNL     1      -0.161  10.437  23.523  0.00  0.00    +0.000 OA
ATOM     19  H   UNL     1       0.525  10.899  24.043  0.00  0.00    +0.000 HD
ENDBRANCH  16  18
ENDBRANCH  15  16
ENDBRANCH  12  15
ENDBRANCH  10  11
ENDBRANCH   5   9
BRANCH   6  20
ATOM     20  O   UNL     1       3.844   5.268  17.899  0.00  0.00    +0.000 OA
BRANCH  20  21
ATOM     21  C   UNL     1       5.236   5.506  18.019  0.00  0.00    +0.000 C 
BRANCH  21  22
ATOM     22  C   UNL     1       5.980   5.109  16.791  0.00  0.00    +0.000 C 
ATOM     23  C   UNL     1       5.546   5.491  15.579  0.00  0.00    +0.000 C 
BRANCH  23  24
ATOM     24  C   UNL     1       6.058   4.939  14.331  0.00  0.00    +0.000 A 
ATOM     25  C   UNL     1       7.302   5.343  13.827  0.00  0.00    +0.000 A 
ATOM     26  C   UNL     1       7.794   4.783  12.655  0.00  0.00    +0.000 A 
ATOM     27  C   UNL     1       7.063   3.797  11.994  0.00  0.00    +0.000 A 
ATOM     28  C   UNL     1       5.842   3.362  12.512  0.00  0.00    +0.000 A 
ATOM     29  C   UNL     1       5.348   3.924  13.685  0.00  0.00    +0.000 A 
ENDBRANCH  23  24
ENDBRANCH  21  22
ENDBRANCH  20  21
ENDBRANCH   6  20
TORSDOF 10
ENDMDL
MODEL 5
REMARK VINA RESULT:      -7.4      4.577      7.476
REMARK  Name = 
REMARK  12 active torsions:
REMARK  status: ('A' for Active; 'I' for Inactive)
REMARK    1  A    between atoms: C_1  and  O_2
REMARK    2  A    between atoms: O_2  and  C_3
REMARK    3  A    between atoms: C_7  and  C_8
REMARK    4  A    between atoms: N_9  and  N_10
REMARK    5  A    between atoms: C_11  and  C_13
REMARK    6  A    between atoms: C_13  and  C_14
REMARK    7  A    between atoms: C_14  and  C_15
REMARK    8  A    between atoms: C_14  and  O_16
REMARK    9  A    between atoms: C_17  and  O_18
REMARK   10  A    between atoms: O_18  and  C_19
REMARK   11  A    between atoms: C_19  and  C_20
REMARK   12  A    between atoms: C_21  and  C_22
REMARK                            x       y       z     vdW  Elec       q    Type
REMARK                         _______ _______ _______ _____ _____    ______ ____
ROOT
ATOM      1  C   UNL     1       3.508   3.400  19.534  0.00  0.00    +0.000 A 
ATOM      2  C   UNL     1       2.740   2.980  20.632  0.00  0.00    +0.000 A 
ATOM      3  C   UNL     1       1.957   3.873  21.353  0.00  0.00    +0.000 A 
ATOM      4  C   UNL     1       1.883   5.200  20.950  0.00  0.00    +0.000 A 
ATOM      5  C   UNL     1       2.592   5.631  19.821  0.00  0.00    +0.000 A 
ATOM      6  C   UNL     1       3.465   4.749  19.121  0.00  0.00    +0.000 A 
ENDROOT
BRANCH   1   8
ATOM      7  C   UNL     1       3.550   1.454  18.103  0.00  0.00    +0.000 C 
ATOM      8  O   UNL     1       4.204   2.353  18.984  0.00  0.00    +0.000 OA
ENDBRANCH   1   8
BRANCH   5   9
ATOM      9  C   UNL     1       2.315   7.039  19.439  0.00  0.00    +0.000 C 
ATOM     10  N   UNL     1       1.779   7.839  20.296  0.00  0.00    +0.000 NA
BRANCH  10  11
ATOM     11  N   UNL     1       1.306   9.049  19.879  0.00  0.00    +0.000 N 
ATOM     12  C   UNL     1       0.166   9.525  20.516  0.00  0.00    +0.000 C 
ATOM     13  O   UNL     1      -0.422   8.940  21.427  0.00  0.00    +0.000 OA
ATOM     14  H   UNL     1       1.614   9.432  18.990  0.00  0.00    +0.000 HD
BRANCH  12  15
ATOM     15  C   UNL     1      -0.352  10.854  20.023  0.00  0.00    +0.000 C 
BRANCH  15  16
ATOM     16  C   UNL     1      -1.012  10.802  18.650  0.00  0.00    +0.000 C 
ATOM     17  C   UNL     1      -1.498  12.146  18.128  0.00  0.00    +0.000 C 
BRANCH  16  18
ATOM     18  O   UNL     1      -0.057  10.277  17.720  0.00  0.00    +0.000 OA
ATOM     19  H   UNL     1      -0.509   9.598  17.184  0.00  0.00    +0.000 HD
ENDBRANCH  16  18
ENDBRANCH  15  16
ENDBRANCH  12  15
ENDBRANCH  10  11
ENDBRANCH   5   9
BRANCH   6  20
ATOM     20  O   UNL     1       4.284   5.069  18.065  0.00  0.00    +0.000 OA
BRANCH  20  21
ATOM     21  C   UNL     1       5.672   4.808  18.179  0.00  0.00    +0.000 C 
BRANCH  21  22
ATOM     22  C   UNL     1       6.294   4.502  16.860  0.00  0.00    +0.000 C 
ATOM     23  C   UNL     1       5.954   5.206  15.768  0.00  0.00    +0.000 C 
BRANCH  23  24
ATOM     24  C   UNL     1       6.315   4.810  14.413  0.00  0.00    +0.000 A 
ATOM     25  C   UNL     1       7.458   5.333  13.795  0.00  0.00    +0.000 A 
ATOM     26  C   UNL     1       7.810   4.920  12.515  0.00  0.00    +0.000 A 
ATOM     27  C   UNL     1       7.040   3.964  11.857  0.00  0.00    +0.000 A 
ATOM     28  C   UNL     1       5.921   3.410  12.482  0.00  0.00    +0.000 A 
ATOM     29  C   UNL     1       5.568   3.823  13.763  0.00  0.00    +0.000 A 
ENDBRANCH  23  24
ENDBRANCH  21  22
ENDBRANCH  20  21
ENDBRANCH   6  20
TORSDOF 10
ENDMDL
MODEL 6
REMARK VINA RESULT:      -7.1      4.714      7.567
REMARK  Name = 
REMARK  12 active torsions:
REMARK  status: ('A' for Active; 'I' for Inactive)
REMARK    1  A    between atoms: C_1  and  O_2
REMARK    2  A    between atoms: O_2  and  C_3
REMARK    3  A    between atoms: C_7  and  C_8
REMARK    4  A    between atoms: N_9  and  N_10
REMARK    5  A    between atoms: C_11  and  C_13
REMARK    6  A    between atoms: C_13  and  C_14
REMARK    7  A    between atoms: C_14  and  C_15
REMARK    8  A    between atoms: C_14  and  O_16
REMARK    9  A    between atoms: C_17  and  O_18
REMARK   10  A    between atoms: O_18  and  C_19
REMARK   11  A    between atoms: C_19  and  C_20
REMARK   12  A    between atoms: C_21  and  C_22
REMARK                            x       y       z     vdW  Elec       q    Type
REMARK                         _______ _______ _______ _____ _____    ______ ____
ROOT
ATOM      1  C   UNL     1       2.537   3.303  18.781  0.00  0.00    +0.000 A 
ATOM      2  C   UNL     1       1.626   2.785  19.714  0.00  0.00    +0.000 A 
ATOM      3  C   UNL     1       1.075   3.584  20.710  0.00  0.00    +0.000 A 
ATOM      4  C   UNL     1       1.385   4.937  20.753  0.00  0.00    +0.000 A 
ATOM      5  C   UNL     1       2.245   5.491  19.795  0.00  0.00    +0.000 A 
ATOM      6  C   UNL     1       2.884   4.670  18.820  0.00  0.00    +0.000 A 
ENDROOT
BRANCH   1   8
ATOM      7  C   UNL     1       3.748   1.254  18.366  0.00  0.00    +0.000 C 
ATOM      8  O   UNL     1       2.953   2.335  17.902  0.00  0.00    +0.000 OA
ENDBRANCH   1   8
BRANCH   5   9
ATOM      9  C   UNL     1       2.382   6.966  19.891  0.00  0.00    +0.000 C 
ATOM     10  N   UNL     1       1.387   7.673  20.309  0.00  0.00    +0.000 NA
BRANCH  10  11
ATOM     11  N   UNL     1       1.424   9.030  20.171  0.00  0.00    +0.000 N 
ATOM     12  C   UNL     1       1.225   9.530  18.889  0.00  0.00    +0.000 C 
ATOM     13  O   UNL     1       1.005   8.837  17.894  0.00  0.00    +0.000 OA
ATOM     14  H   UNL     1       1.835   9.600  20.903  0.00  0.00    +0.000 HD
BRANCH  12  15
ATOM     15  C   UNL     1       1.294  11.031  18.756  0.00  0.00    +0.000 C 
BRANCH  15  16
ATOM     16  C   UNL     1      -0.064  11.722  18.710  0.00  0.00    +0.000 C 
ATOM     17  C   UNL     1      -0.005  13.223  18.466  0.00  0.00    +0.000 C 
BRANCH  16  18
ATOM     18  O   UNL     1      -0.827  11.125  17.654  0.00  0.00    +0.000 OA
ATOM     19  H   UNL     1      -1.187  10.282  17.991  0.00  0.00    +0.000 HD
ENDBRANCH  16  18
ENDBRANCH  15  16
ENDBRANCH  12  15
ENDBRANCH  10  11
ENDBRANCH   5   9
BRANCH   6  20
ATOM     20  O   UNL     1       3.815   5.070  17.893  0.00  0.00    +0.000 OA
BRANCH  20  21
ATOM     21  C   UNL     1       5.180   4.769  18.127  0.00  0.00    +0.000 C 
BRANCH  21  22
ATOM     22  C   UNL     1       5.910   4.460  16.866  0.00  0.00    +0.000 C 
ATOM     23  C   UNL     1       5.675   5.171  15.752  0.00  0.00    +0.000 C 
BRANCH  23  24
ATOM     24  C   UNL     1       6.147   4.775  14.431  0.00  0.00    +0.000 A 
ATOM     25  C   UNL     1       7.321   5.321  13.897  0.00  0.00    +0.000 A 
ATOM     26  C   UNL     1       7.778   4.908  12.651  0.00  0.00    +0.000 A 
ATOM     27  C   UNL     1       7.083   3.929  11.945  0.00  0.00    +0.000 A 
ATOM     28  C   UNL     1       5.934   3.353  12.488  0.00  0.00    +0.000 A 
ATOM     29  C   UNL     1       5.475   3.766  13.735  0.00  0.00    +0.000 A 
ENDBRANCH  23  24
ENDBRANCH  21  22
ENDBRANCH  20  21
ENDBRANCH   6  20
TORSDOF 10
ENDMDL
MODEL 7
REMARK VINA RESULT:      -7.1      1.009      1.091
REMARK  Name = 
REMARK  12 active torsions:
REMARK  status: ('A' for Active; 'I' for Inactive)
REMARK    1  A    between atoms: C_1  and  O_2
REMARK    2  A    between atoms: O_2  and  C_3
REMARK    3  A    between atoms: C_7  and  C_8
REMARK    4  A    between atoms: N_9  and  N_10
REMARK    5  A    between atoms: C_11  and  C_13
REMARK    6  A    between atoms: C_13  and  C_14
REMARK    7  A    between atoms: C_14  and  C_15
REMARK    8  A    between atoms: C_14  and  O_16
REMARK    9  A    between atoms: C_17  and  O_18
REMARK   10  A    between atoms: O_18  and  C_19
REMARK   11  A    between atoms: C_19  and  C_20
REMARK   12  A    between atoms: C_21  and  C_22
REMARK                            x       y       z     vdW  Elec       q    Type
REMARK                         _______ _______ _______ _____ _____    ______ ____
ROOT
ATOM      1  C   UNL     1       7.185   5.186  14.480  0.00  0.00    +0.000 A 
ATOM      2  C   UNL     1       6.815   4.104  13.665  0.00  0.00    +0.000 A 
ATOM      3  C   UNL     1       5.839   3.198  14.063  0.00  0.00    +0.000 A 
ATOM      4  C   UNL     1       5.172   3.392  15.265  0.00  0.00    +0.000 A 
ATOM      5  C   UNL     1       5.481   4.499  16.068  0.00  0.00    +0.000 A 
ATOM      6  C   UNL     1       6.536   5.390  15.716  0.00  0.00    +0.000 A 
ENDROOT
BRANCH   1   8
ATOM      7  C   UNL     1       8.381   5.852  12.489  0.00  0.00    +0.000 C 
ATOM      8  O   UNL     1       8.169   5.939  13.890  0.00  0.00    +0.000 OA
ENDBRANCH   1   8
BRANCH   5   9
ATOM      9  C   UNL     1       4.601   4.644  17.255  0.00  0.00    +0.000 C 
ATOM     10  N   UNL     1       4.750   3.850  18.261  0.00  0.00    +0.000 NA
BRANCH  10  11
ATOM     11  N   UNL     1       3.799   3.823  19.239  0.00  0.00    +0.000 N 
ATOM     12  C   UNL     1       3.907   2.808  20.183  0.00  0.00    +0.000 C 
ATOM     13  O   UNL     1       4.801   1.960  20.198  0.00  0.00    +0.000 OA
ATOM     14  H   UNL     1       2.935   4.342  19.117  0.00  0.00    +0.000 HD
BRANCH  12  15
ATOM     15  C   UNL     1       2.832   2.783  21.241  0.00  0.00    +0.000 C 
BRANCH  15  16
ATOM     16  C   UNL     1       1.409   2.780  20.693  0.00  0.00    +0.000 C 
ATOM     17  C   UNL     1       0.827   4.161  20.431  0.00  0.00    +0.000 C 
BRANCH  16  18
ATOM     18  O   UNL     1       1.413   2.052  19.459  0.00  0.00    +0.000 OA
ATOM     19  H   UNL     1       1.034   2.634  18.772  0.00  0.00    +0.000 HD
ENDBRANCH  16  18
ENDBRANCH  15  16
ENDBRANCH  12  15
ENDBRANCH  10  11
ENDBRANCH   5   9
BRANCH   6  20
ATOM     20  O   UNL     1       6.999   6.449  16.458  0.00  0.00    +0.000 OA
BRANCH  20  21
ATOM     21  C   UNL     1       7.616   6.184  17.707  0.00  0.00    +0.000 C 
BRANCH  21  22
ATOM     22  C   UNL     1       8.091   7.431  18.371  0.00  0.00    +0.000 C 
ATOM     23  C   UNL     1       7.892   8.627  17.795  0.00  0.00    +0.000 C 
BRANCH  23  24
ATOM     24  C   UNL     1       8.541   9.853  18.243  0.00  0.00    +0.000 A 
ATOM     25  C   UNL     1       8.352  11.057  17.552  0.00  0.00    +0.000 A 
ATOM     26  C   UNL     1       8.948  12.225  18.011  0.00  0.00    +0.000 A 
ATOM     27  C   UNL     1       9.713  12.205  19.175  0.00  0.00    +0.000 A 
ATOM     28  C   UNL     1       9.874  11.017  19.890  0.00  0.00    +0.000 A 
ATOM     29  C   UNL     1       9.277   9.846  19.431  0.00  0.00    +0.000 A 
ENDBRANCH  23  24
ENDBRANCH  21  22
ENDBRANCH  20  21
ENDBRANCH   6  20
TORSDOF 10
ENDMDL
MODEL 8
REMARK VINA RESULT:      -7.0      1.093      1.359
REMARK  Name = 
REMARK  12 active torsions:
REMARK  status: ('A' for Active; 'I' for Inactive)
REMARK    1  A    between atoms: C_1  and  O_2
REMARK    2  A    between atoms: O_2  and  C_3
REMARK    3  A    between atoms: C_7  and  C_8
REMARK    4  A    between atoms: N_9  and  N_10
REMARK    5  A    between atoms: C_11  and  C_13
REMARK    6  A    between atoms: C_13  and  C_14
REMARK    7  A    between atoms: C_14  and  C_15
REMARK    8  A    between atoms: C_14  and  O_16
REMARK    9  A    between atoms: C_17  and  O_18
REMARK   10  A    between atoms: O_18  and  C_19
REMARK   11  A    between atoms: C_19  and  C_20
REMARK   12  A    between atoms: C_21  and  C_22
REMARK                            x       y       z     vdW  Elec       q    Type
REMARK                         _______ _______ _______ _____ _____    ______ ____
ROOT
ATOM      1  C   UNL     1       7.427   5.277  14.505  0.00  0.00    +0.000 A 
ATOM      2  C   UNL     1       6.728   4.374  13.689  0.00  0.00    +0.000 A 
ATOM      3  C   UNL     1       5.601   3.703  14.149  0.00  0.00    +0.000 A 
ATOM      4  C   UNL     1       5.117   3.969  15.424  0.00  0.00    +0.000 A 
ATOM      5  C   UNL     1       5.762   4.913  16.236  0.00  0.00    +0.000 A 
ATOM      6  C   UNL     1       6.966   5.546  15.811  0.00  0.00    +0.000 A 
ENDROOT
BRANCH   1   8
ATOM      7  C   UNL     1       8.487   5.918  12.431  0.00  0.00    +0.000 C 
ATOM      8  O   UNL     1       8.506   5.811  13.846  0.00  0.00    +0.000 OA
ENDBRANCH   1   8
BRANCH   5   9
ATOM      9  C   UNL     1       5.060   5.184  17.515  0.00  0.00    +0.000 C 
ATOM     10  N   UNL     1       4.200   4.334  17.964  0.00  0.00    +0.000 NA
BRANCH  10  11
ATOM     11  N   UNL     1       3.386   4.687  19.000  0.00  0.00    +0.000 N 
ATOM     12  C   UNL     1       3.358   3.826  20.091  0.00  0.00    +0.000 C 
ATOM     13  O   UNL     1       4.024   2.793  20.184  0.00  0.00    +0.000 OA
ATOM     14  H   UNL     1       2.660   5.382  18.857  0.00  0.00    +0.000 HD
BRANCH  12  15
ATOM     15  C   UNL     1       2.434   4.225  21.215  0.00  0.00    +0.000 C 
BRANCH  15  16
ATOM     16  C   UNL     1       1.239   3.298  21.407  0.00  0.00    +0.000 C 
ATOM     17  C   UNL     1       0.614   2.792  20.115  0.00  0.00    +0.000 C 
BRANCH  16  18
ATOM     18  O   UNL     1       1.677   2.165  22.167  0.00  0.00    +0.000 OA
ATOM     19  H   UNL     1       2.270   1.639  21.598  0.00  0.00    +0.000 HD
ENDBRANCH  16  18
ENDBRANCH  15  16
ENDBRANCH  12  15
ENDBRANCH  10  11
ENDBRANCH   5   9
BRANCH   6  20
ATOM     20  O   UNL     1       7.742   6.410  16.545  0.00  0.00    +0.000 OA
BRANCH  20  21
ATOM     21  C   UNL     1       7.103   7.443  17.275  0.00  0.00    +0.000 C 
BRANCH  21  22
ATOM     22  C   UNL     1       8.083   8.385  17.886  0.00  0.00    +0.000 C 
ATOM     23  C   UNL     1       7.843   9.706  17.894  0.00  0.00    +0.000 C 
BRANCH  23  24
ATOM     24  C   UNL     1       8.849  10.704  18.233  0.00  0.00    +0.000 A 
ATOM     25  C   UNL     1       9.930  10.378  19.062  0.00  0.00    +0.000 A 
ATOM     26  C   UNL     1      10.902  11.330  19.348  0.00  0.00    +0.000 A 
ATOM     27  C   UNL     1      10.815  12.602  18.786  0.00  0.00    +0.000 A 
ATOM     28  C   UNL     1       9.762  12.922  17.928  0.00  0.00    +0.000 A 
ATOM     29  C   UNL     1       8.788  11.970  17.642  0.00  0.00    +0.000 A 
ENDBRANCH  23  24
ENDBRANCH  21  22
ENDBRANCH  20  21
ENDBRANCH   6  20
TORSDOF 10
ENDMDL
MODEL 9
REMARK VINA RESULT:      -7.0      3.688      4.330
REMARK  Name = 
REMARK  12 active torsions:
REMARK  status: ('A' for Active; 'I' for Inactive)
REMARK    1  A    between atoms: C_1  and  O_2
REMARK    2  A    between atoms: O_2  and  C_3
REMARK    3  A    between atoms: C_7  and  C_8
REMARK    4  A    between atoms: N_9  and  N_10
REMARK    5  A    between atoms: C_11  and  C_13
REMARK    6  A    between atoms: C_13  and  C_14
REMARK    7  A    between atoms: C_14  and  C_15
REMARK    8  A    between atoms: C_14  and  O_16
REMARK    9  A    between atoms: C_17  and  O_18
REMARK   10  A    between atoms: O_18  and  C_19
REMARK   11  A    between atoms: C_19  and  C_20
REMARK   12  A    between atoms: C_21  and  C_22
REMARK                            x       y       z     vdW  Elec       q    Type
REMARK                         _______ _______ _______ _____ _____    ______ ____
ROOT
ATOM      1  C   UNL     1       6.018   5.372  16.231  0.00  0.00    +0.000 A 
ATOM      2  C   UNL     1       5.420   4.136  15.941  0.00  0.00    +0.000 A 
ATOM      3  C   UNL     1       4.322   3.675  16.660  0.00  0.00    +0.000 A 
ATOM      4  C   UNL     1       3.766   4.476  17.649  0.00  0.00    +0.000 A 
ATOM      5  C   UNL     1       4.308   5.741  17.916  0.00  0.00    +0.000 A 
ATOM      6  C   UNL     1       5.484   6.191  17.248  0.00  0.00    +0.000 A 
ENDROOT
BRANCH   1   8
ATOM      7  C   UNL     1       7.175   4.949  14.152  0.00  0.00    +0.000 C 
ATOM      8  O   UNL     1       7.086   5.613  15.404  0.00  0.00    +0.000 OA
ENDBRANCH   1   8
BRANCH   5   9
ATOM      9  C   UNL     1       3.533   6.530  18.906  0.00  0.00    +0.000 C 
ATOM     10  N   UNL     1       2.578   7.297  18.504  0.00  0.00    +0.000 NA
BRANCH  10  11
ATOM     11  N   UNL     1       2.030   8.196  19.371  0.00  0.00    +0.000 N 
ATOM     12  C   UNL     1       1.316   9.249  18.809  0.00  0.00    +0.000 C 
ATOM     13  O   UNL     1       1.138   9.405  17.600  0.00  0.00    +0.000 OA
ATOM     14  H   UNL     1       2.355   8.232  20.333  0.00  0.00    +0.000 HD
BRANCH  12  15
ATOM     15  C   UNL     1       0.739  10.243  19.786  0.00  0.00    +0.000 C 
BRANCH  15  16
ATOM     16  C   UNL     1      -0.155  11.302  19.152  0.00  0.00    +0.000 C 
ATOM     17  C   UNL     1      -0.811  12.254  20.141  0.00  0.00    +0.000 C 
BRANCH  16  18
ATOM     18  O   UNL     1       0.646  12.074  18.249  0.00  0.00    +0.000 OA
ATOM     19  H   UNL     1       0.347  13.001  18.307  0.00  0.00    +0.000 HD
ENDBRANCH  16  18
ENDBRANCH  15  16
ENDBRANCH  12  15
ENDBRANCH  10  11
ENDBRANCH   5   9
BRANCH   6  20
ATOM     20  O   UNL     1       6.166   7.360  17.484  0.00  0.00    +0.000 OA
BRANCH  20  21
ATOM     21  C   UNL     1       7.570   7.378  17.290  0.00  0.00    +0.000 C 
BRANCH  21  22
ATOM     22  C   UNL     1       8.252   8.317  18.224  0.00  0.00    +0.000 C 
ATOM     23  C   UNL     1       8.385   9.615  17.906  0.00  0.00    +0.000 C 
BRANCH  23  24
ATOM     24  C   UNL     1       9.252  10.535  18.632  0.00  0.00    +0.000 A 
ATOM     25  C   UNL     1       9.225  10.591  20.032  0.00  0.00    +0.000 A 
ATOM     26  C   UNL     1      10.082  11.448  20.712  0.00  0.00    +0.000 A 
ATOM     27  C   UNL     1      10.989  12.232  20.002  0.00  0.00    +0.000 A 
ATOM     28  C   UNL     1      11.048  12.153  18.610  0.00  0.00    +0.000 A 
ATOM     29  C   UNL     1      10.189  11.296  17.928  0.00  0.00    +0.000 A 
ENDBRANCH  23  24
ENDBRANCH  21  22
ENDBRANCH  20  21
ENDBRANCH   6  20
TORSDOF 10
ENDMDL
