MODEL 1
REMARK VINA RESULT:      -7.4      0.000      0.000
REMARK  Name = 
REMARK  1 active torsions:
REMARK  status: ('A' for Active; 'I' for Inactive)
REMARK    1  A    between atoms: C_6  and  C_7
REMARK                            x       y       z     vdW  Elec       q    Type
REMARK                         _______ _______ _______ _____ _____    ______ ____
ROOT
ATOM      1  O   UNL     1       7.236   5.485  19.921  0.00  0.00    +0.000 OA
ATOM      2  C   UNL     1       6.258   5.213  19.231  0.00  0.00    +0.000 C 
ATOM      3  N   UNL     1       5.489   4.121  19.491  0.00  0.00    +0.000 N 
ATOM      4  C   UNL     1       4.569   3.605  18.628  0.00  0.00    +0.000 C 
ATOM      5  O   UNL     1       4.271   2.414  18.671  0.00  0.00    +0.000 OA
ATOM      6  C   UNL     1       3.972   4.562  17.623  0.00  0.00    +0.000 C 
ATOM      7  C   UNL     1       4.961   5.632  17.222  0.00  0.00    +0.000 C 
ATOM      8  O   UNL     1       4.883   6.241  16.158  0.00  0.00    +0.000 OA
ATOM      9  N   UNL     1       5.927   5.945  18.137  0.00  0.00    +0.000 N 
ATOM     10  H   UNL     1       5.854   3.488  20.190  0.00  0.00    +0.000 HD
ATOM     11  H   UNL     1       6.566   6.687  17.885  0.00  0.00    +0.000 HD
ENDROOT
BRANCH   6  12
ATOM     12  C   UNL     1       2.614   5.221  18.005  0.00  0.00    +0.000 C 
ATOM     13  C   UNL     1       1.380   4.350  17.713  0.00  0.00    +0.000 C 
ATOM     14  C   UNL     1       1.036   3.337  18.804  0.00  0.00    +0.000 C 
ATOM     15  C   UNL     1       1.011   3.939  20.204  0.00  0.00    +0.000 C 
ATOM     16  C   UNL     1       2.219   4.811  20.515  0.00  0.00    +0.000 C 
ATOM     17  C   UNL     1       2.507   5.825  19.417  0.00  0.00    +0.000 C 
ENDBRANCH   6  12
TORSDOF 1
ENDMDL
MODEL 2
REMARK VINA RESULT:      -7.3      1.940      3.503
REMARK  Name = 
REMARK  1 active torsions:
REMARK  status: ('A' for Active; 'I' for Inactive)
REMARK    1  A    between atoms: C_6  and  C_7
REMARK                            x       y       z     vdW  Elec       q    Type
REMARK                         _______ _______ _______ _____ _____    ______ ____
ROOT
ATOM      1  O   UNL     1       7.617   5.319  14.153  0.00  0.00    +0.000 OA
ATOM      2  C   UNL     1       7.003   5.264  15.214  0.00  0.00    +0.000 C 
ATOM      3  N   UNL     1       5.769   5.822  15.350  0.00  0.00    +0.000 N 
ATOM      4  C   UNL     1       5.150   6.041  16.544  0.00  0.00    +0.000 C 
ATOM      5  O   UNL     1       4.319   6.938  16.662  0.00  0.00    +0.000 OA
ATOM      6  C   UNL     1       5.559   5.148  17.692  0.00  0.00    +0.000 C 
ATOM      7  C   UNL     1       7.009   4.737  17.584  0.00  0.00    +0.000 C 
ATOM      8  O   UNL     1       7.673   4.390  18.558  0.00  0.00    +0.000 OA
ATOM      9  N   UNL     1       7.543   4.705  16.327  0.00  0.00    +0.000 N 
ATOM     10  H   UNL     1       5.462   6.392  14.573  0.00  0.00    +0.000 HD
ATOM     11  H   UNL     1       8.502   4.393  16.250  0.00  0.00    +0.000 HD
ENDROOT
BRANCH   6  12
ATOM     12  C   UNL     1       4.677   3.892  17.950  0.00  0.00    +0.000 C 
ATOM     13  C   UNL     1       4.391   3.611  19.436  0.00  0.00    +0.000 C 
ATOM     14  C   UNL     1       3.213   4.387  20.022  0.00  0.00    +0.000 C 
ATOM     15  C   UNL     1       1.957   4.324  19.161  0.00  0.00    +0.000 C 
ATOM     16  C   UNL     1       2.214   4.592  17.685  0.00  0.00    +0.000 C 
ATOM     17  C   UNL     1       3.375   3.776  17.136  0.00  0.00    +0.000 C 
ENDBRANCH   6  12
TORSDOF 1
ENDMDL
MODEL 3
REMARK VINA RESULT:      -7.1      1.697      3.165
REMARK  Name = 
REMARK  1 active torsions:
REMARK  status: ('A' for Active; 'I' for Inactive)
REMARK    1  A    between atoms: C_6  and  C_7
REMARK                            x       y       z     vdW  Elec       q    Type
REMARK                         _______ _______ _______ _____ _____    ______ ____
ROOT
ATOM      1  O   UNL     1       7.659   4.872  15.509  0.00  0.00    +0.000 OA
ATOM      2  C   UNL     1       6.933   5.079  16.476  0.00  0.00    +0.000 C 
ATOM      3  N   UNL     1       5.670   5.563  16.323  0.00  0.00    +0.000 N 
ATOM      4  C   UNL     1       4.912   6.069  17.337  0.00  0.00    +0.000 C 
ATOM      5  O   UNL     1       4.037   6.901  17.107  0.00  0.00    +0.000 OA
ATOM      6  C   UNL     1       5.224   5.573  18.728  0.00  0.00    +0.000 C 
ATOM      7  C   UNL     1       6.693   5.253  18.886  0.00  0.00    +0.000 C 
ATOM      8  O   UNL     1       7.256   5.247  19.978  0.00  0.00    +0.000 OA
ATOM      9  N   UNL     1       7.366   4.901  17.750  0.00  0.00    +0.000 N 
ATOM     10  H   UNL     1       5.430   5.863  15.388  0.00  0.00    +0.000 HD
ATOM     11  H   UNL     1       8.340   4.650  17.860  0.00  0.00    +0.000 HD
ENDROOT
BRANCH   6  12
ATOM     12  C   UNL     1       4.370   4.384  19.257  0.00  0.00    +0.000 C 
ATOM     13  C   UNL     1       3.077   4.801  19.980  0.00  0.00    +0.000 C 
ATOM     14  C   UNL     1       1.885   5.068  19.063  0.00  0.00    +0.000 C 
ATOM     15  C   UNL     1       1.653   3.968  18.034  0.00  0.00    +0.000 C 
ATOM     16  C   UNL     1       2.918   3.533  17.308  0.00  0.00    +0.000 C 
ATOM     17  C   UNL     1       4.070   3.248  18.262  0.00  0.00    +0.000 C 
ENDBRANCH   6  12
TORSDOF 1
ENDMDL
MODEL 4
REMARK VINA RESULT:      -7.0      1.093      1.195
REMARK  Name = 
REMARK  1 active torsions:
REMARK  status: ('A' for Active; 'I' for Inactive)
REMARK    1  A    between atoms: C_6  and  C_7
REMARK                            x       y       z     vdW  Elec       q    Type
REMARK                         _______ _______ _______ _____ _____    ______ ____
ROOT
ATOM      1  O   UNL     1       6.675   4.926  19.832  0.00  0.00    +0.000 OA
ATOM      2  C   UNL     1       5.614   4.787  19.231  0.00  0.00    +0.000 C 
ATOM      3  N   UNL     1       5.070   3.556  19.029  0.00  0.00    +0.000 N 
ATOM      4  C   UNL     1       4.058   3.297  18.152  0.00  0.00    +0.000 C 
ATOM      5  O   UNL     1       3.935   2.181  17.654  0.00  0.00    +0.000 OA
ATOM      6  C   UNL     1       3.137   4.446  17.823  0.00  0.00    +0.000 C 
ATOM      7  C   UNL     1       3.866   5.770  17.863  0.00  0.00    +0.000 C 
ATOM      8  O   UNL     1       3.478   6.759  17.245  0.00  0.00    +0.000 OA
ATOM      9  N   UNL     1       4.959   5.841  18.679  0.00  0.00    +0.000 N 
ATOM     10  H   UNL     1       5.658   2.774  19.281  0.00  0.00    +0.000 HD
ATOM     11  H   UNL     1       5.425   6.736  18.736  0.00  0.00    +0.000 HD
ENDROOT
BRANCH   6  12
ATOM     12  C   UNL     1       1.821   4.549  18.649  0.00  0.00    +0.000 C 
ATOM     13  C   UNL     1       1.065   3.219  18.809  0.00  0.00    +0.000 C 
ATOM     14  C   UNL     1       1.553   2.336  19.956  0.00  0.00    +0.000 C 
ATOM     15  C   UNL     1       1.707   3.086  21.275  0.00  0.00    +0.000 C 
ATOM     16  C   UNL     1       2.446   4.410  21.142  0.00  0.00    +0.000 C 
ATOM     17  C   UNL     1       1.908   5.269  20.007  0.00  0.00    +0.000 C 
ENDBRANCH   6  12
TORSDOF 1
ENDMDL
MODEL 5
REMARK VINA RESULT:      -6.9      1.732      3.004
REMARK  Name = 
REMARK  1 active torsions:
REMARK  status: ('A' for Active; 'I' for Inactive)
REMARK    1  A    between atoms: C_6  and  C_7
REMARK                            x       y       z     vdW  Elec       q    Type
REMARK                         _______ _______ _______ _____ _____    ______ ____
ROOT
ATOM      1  O   UNL     1       5.937   3.757  15.576  0.00  0.00    +0.000 OA
ATOM      2  C   UNL     1       5.410   4.072  16.639  0.00  0.00    +0.000 C 
ATOM      3  N   UNL     1       4.089   4.393  16.709  0.00  0.00    +0.000 N 
ATOM      4  C   UNL     1       3.502   5.007  17.774  0.00  0.00    +0.000 C 
ATOM      5  O   UNL     1       2.493   5.691  17.623  0.00  0.00    +0.000 OA
ATOM      6  C   UNL     1       4.167   4.817  19.116  0.00  0.00    +0.000 C 
ATOM      7  C   UNL     1       5.666   4.676  18.977  0.00  0.00    +0.000 C 
ATOM      8  O   UNL     1       6.444   4.932  19.893  0.00  0.00    +0.000 OA
ATOM      9  N   UNL     1       6.125   4.182  17.788  0.00  0.00    +0.000 N 
ATOM     10  H   UNL     1       3.617   4.486  15.819  0.00  0.00    +0.000 HD
ATOM     11  H   UNL     1       7.124   4.052  17.707  0.00  0.00    +0.000 HD
ENDROOT
BRANCH   6  12
ATOM     12  C   UNL     1       3.617   3.671  20.016  0.00  0.00    +0.000 C 
ATOM     13  C   UNL     1       2.474   4.095  20.956  0.00  0.00    +0.000 C 
ATOM     14  C   UNL     1       1.083   4.079  20.323  0.00  0.00    +0.000 C 
ATOM     15  C   UNL     1       0.775   2.791  19.567  0.00  0.00    +0.000 C 
ATOM     16  C   UNL     1       1.894   2.347  18.636  0.00  0.00    +0.000 C 
ATOM     17  C   UNL     1       3.256   2.349  19.315  0.00  0.00    +0.000 C 
ENDBRANCH   6  12
TORSDOF 1
ENDMDL
MODEL 6
REMARK VINA RESULT:      -6.8      1.509      3.046
REMARK  Name = 
REMARK  1 active torsions:
REMARK  status: ('A' for Active; 'I' for Inactive)
REMARK    1  A    between atoms: C_6  and  C_7
REMARK                            x       y       z     vdW  Elec       q    Type
REMARK                         _______ _______ _______ _____ _____    ______ ____
ROOT
ATOM      1  O   UNL     1       5.634   6.700  15.806  0.00  0.00    +0.000 OA
ATOM      2  C   UNL     1       5.249   6.267  16.888  0.00  0.00    +0.000 C 
ATOM      3  N   UNL     1       3.946   6.369  17.270  0.00  0.00    +0.000 N 
ATOM      4  C   UNL     1       3.498   6.167  18.541  0.00  0.00    +0.000 C 
ATOM      5  O   UNL     1       2.474   6.716  18.938  0.00  0.00    +0.000 OA
ATOM      6  C   UNL     1       4.334   5.264  19.417  0.00  0.00    +0.000 C 
ATOM      7  C   UNL     1       5.803   5.362  19.072  0.00  0.00    +0.000 C 
ATOM      8  O   UNL     1       6.692   5.079  19.872  0.00  0.00    +0.000 OA
ATOM      9  N   UNL     1       6.106   5.723  17.789  0.00  0.00    +0.000 N 
ATOM     10  H   UNL     1       3.362   6.939  16.672  0.00  0.00    +0.000 HD
ATOM     11  H   UNL     1       7.087   5.752  17.547  0.00  0.00    +0.000 HD
ENDROOT
BRANCH   6  12
ATOM     12  C   UNL     1       3.912   3.767  19.485  0.00  0.00    +0.000 C 
ATOM     13  C   UNL     1       2.850   3.454  20.554  0.00  0.00    +0.000 C 
ATOM     14  C   UNL     1       1.407   3.697  20.116  0.00  0.00    +0.000 C 
ATOM     15  C   UNL     1       1.073   3.085  18.760  0.00  0.00    +0.000 C 
ATOM     16  C   UNL     1       2.113   3.375  17.687  0.00  0.00    +0.000 C 
ATOM     17  C   UNL     1       3.533   3.090  18.156  0.00  0.00    +0.000 C 
ENDBRANCH   6  12
TORSDOF 1
ENDMDL
MODEL 7
REMARK VINA RESULT:      -6.8      1.616      2.015
REMARK  Name = 
REMARK  1 active torsions:
REMARK  status: ('A' for Active; 'I' for Inactive)
REMARK    1  A    between atoms: C_6  and  C_7
REMARK                            x       y       z     vdW  Elec       q    Type
REMARK                         _______ _______ _______ _____ _____    ______ ____
ROOT
ATOM      1  O   UNL     1       7.576   7.525  17.049  0.00  0.00    +0.000 OA
ATOM      2  C   UNL     1       6.790   6.584  17.097  0.00  0.00    +0.000 C 
ATOM      3  N   UNL     1       6.442   6.010  18.281  0.00  0.00    +0.000 N 
ATOM      4  C   UNL     1       5.804   4.811  18.398  0.00  0.00    +0.000 C 
ATOM      5  O   UNL     1       5.941   4.126  19.408  0.00  0.00    +0.000 OA
ATOM      6  C   UNL     1       4.958   4.378  17.225  0.00  0.00    +0.000 C 
ATOM      7  C   UNL     1       5.526   4.880  15.917  0.00  0.00    +0.000 C 
ATOM      8  O   UNL     1       5.289   4.337  14.840  0.00  0.00    +0.000 OA
ATOM      9  N   UNL     1       6.275   6.021  15.974  0.00  0.00    +0.000 N 
ATOM     10  H   UNL     1       6.973   6.317  19.086  0.00  0.00    +0.000 HD
ATOM     11  H   UNL     1       6.624   6.378  15.095  0.00  0.00    +0.000 HD
ENDROOT
BRANCH   6  12
ATOM     12  C   UNL     1       3.438   4.711  17.296  0.00  0.00    +0.000 C 
ATOM     13  C   UNL     1       2.553   3.541  17.763  0.00  0.00    +0.000 C 
ATOM     14  C   UNL     1       2.447   3.381  19.278  0.00  0.00    +0.000 C 
ATOM     15  C   UNL     1       2.132   4.682  20.006  0.00  0.00    +0.000 C 
ATOM     16  C   UNL     1       2.990   5.857  19.557  0.00  0.00    +0.000 C 
ATOM     17  C   UNL     1       3.042   5.998  18.042  0.00  0.00    +0.000 C 
ENDBRANCH   6  12
TORSDOF 1
ENDMDL
MODEL 8
REMARK VINA RESULT:      -6.8      2.200      4.504
REMARK  Name = 
REMARK  1 active torsions:
REMARK  status: ('A' for Active; 'I' for Inactive)
REMARK    1  A    between atoms: C_6  and  C_7
REMARK                            x       y       z     vdW  Elec       q    Type
REMARK                         _______ _______ _______ _____ _____    ______ ____
ROOT
ATOM      1  O   UNL     1       1.939   2.956  17.232  0.00  0.00    +0.000 OA
ATOM      2  C   UNL     1       2.756   3.782  17.626  0.00  0.00    +0.000 C 
ATOM      3  N   UNL     1       3.990   3.407  18.062  0.00  0.00    +0.000 N 
ATOM      4  C   UNL     1       4.838   4.214  18.759  0.00  0.00    +0.000 C 
ATOM      5  O   UNL     1       5.673   3.734  19.522  0.00  0.00    +0.000 OA
ATOM      6  C   UNL     1       4.676   5.702  18.557  0.00  0.00    +0.000 C 
ATOM      7  C   UNL     1       3.235   6.070  18.284  0.00  0.00    +0.000 C 
ATOM      8  O   UNL     1       2.785   7.192  18.502  0.00  0.00    +0.000 OA
ATOM      9  N   UNL     1       2.456   5.103  17.713  0.00  0.00    +0.000 N 
ATOM     10  H   UNL     1       4.130   2.411  18.166  0.00  0.00    +0.000 HD
ATOM     11  H   UNL     1       1.503   5.360  17.495  0.00  0.00    +0.000 HD
ENDROOT
BRANCH   6  12
ATOM     12  C   UNL     1       5.597   6.370  17.494  0.00  0.00    +0.000 C 
ATOM     13  C   UNL     1       7.077   5.961  17.588  0.00  0.00    +0.000 C 
ATOM     14  C   UNL     1       7.431   4.658  16.874  0.00  0.00    +0.000 C 
ATOM     15  C   UNL     1       6.891   4.580  15.451  0.00  0.00    +0.000 C 
ATOM     16  C   UNL     1       5.429   4.986  15.329  0.00  0.00    +0.000 C 
ATOM     17  C   UNL     1       5.128   6.304  16.029  0.00  0.00    +0.000 C 
ENDBRANCH   6  12
TORSDOF 1
ENDMDL
MODEL 9
REMARK VINA RESULT:      -6.8      2.493      4.345
REMARK  Name = 
REMARK  1 active torsions:
REMARK  status: ('A' for Active; 'I' for Inactive)
REMARK    1  A    between atoms: C_6  and  C_7
REMARK                            x       y       z     vdW  Elec       q    Type
REMARK                         _______ _______ _______ _____ _____    ______ ____
ROOT
ATOM      1  O   UNL     1       0.990   3.454  21.104  0.00  0.00    +0.000 OA
ATOM      2  C   UNL     1       1.944   3.339  20.340  0.00  0.00    +0.000 C 
ATOM      3  N   UNL     1       1.858   3.716  19.035  0.00  0.00    +0.000 N 
ATOM      4  C   UNL     1       2.761   3.374  18.074  0.00  0.00    +0.000 C 
ATOM      5  O   UNL     1       2.423   3.305  16.895  0.00  0.00    +0.000 OA
ATOM      6  C   UNL     1       4.164   3.068  18.542  0.00  0.00    +0.000 C 
ATOM      7  C   UNL     1       4.166   2.454  19.923  0.00  0.00    +0.000 C 
ATOM      8  O   UNL     1       5.087   1.752  20.334  0.00  0.00    +0.000 OA
ATOM      9  N   UNL     1       3.112   2.770  20.733  0.00  0.00    +0.000 N 
ATOM     10  H   UNL     1       0.931   3.962  18.714  0.00  0.00    +0.000 HD
ATOM     11  H   UNL     1       3.132   2.390  21.670  0.00  0.00    +0.000 HD
ENDROOT
BRANCH   6  12
ATOM     12  C   UNL     1       5.191   4.237  18.488  0.00  0.00    +0.000 C 
ATOM     13  C   UNL     1       5.940   4.365  17.149  0.00  0.00    +0.000 C 
ATOM     14  C   UNL     1       5.197   5.152  16.071  0.00  0.00    +0.000 C 
ATOM     15  C   UNL     1       4.645   6.484  16.564  0.00  0.00    +0.000 C 
ATOM     16  C   UNL     1       3.905   6.386  17.891  0.00  0.00    +0.000 C 
ATOM     17  C   UNL     1       4.694   5.621  18.944  0.00  0.00    +0.000 C 
ENDBRANCH   6  12
TORSDOF 1
ENDMDL
