MODEL 1
REMARK VINA RESULT:      -7.0      0.000      0.000
REMARK  Name = 
REMARK  8 active torsions:
REMARK  status: ('A' for Active; 'I' for Inactive)
REMARK    1  A    between atoms: C_1  and  N_2
REMARK    2  A    between atoms: N_2  and  C_3
REMARK    3  A    between atoms: N_2  and  C_4
REMARK    4  A    between atoms: C_7  and  C_8
REMARK    5  A    between atoms: C_8  and  S_10
REMARK    6  A    between atoms: S_10  and  C_11
REMARK    7  A    between atoms: CA_16  and  C_17
REMARK    8  A    between atoms: C_17  and  OXT_19
REMARK                            x       y       z     vdW  Elec       q    Type
REMARK                         _______ _______ _______ _____ _____    ______ ____
ROOT
ATOM      1  C   UNL     1       5.098   5.469  18.724  0.00  0.00    +0.000 C 
ATOM      2  O   UNL     1       5.801   5.362  19.722  0.00  0.00    +0.000 OA
ENDROOT
BRANCH   1   6
ATOM      3  C   UNL     1       6.616   4.770  14.702  0.00  0.00    +0.000 A 
ATOM      4  C   UNL     1       7.409   4.534  15.838  0.00  0.00    +0.000 A 
ATOM      5  C   UNL     1       6.950   4.769  17.142  0.00  0.00    +0.000 A 
ATOM      6  C   UNL     1       5.656   5.236  17.361  0.00  0.00    +0.000 A 
ATOM      7  C   UNL     1       4.848   5.496  16.252  0.00  0.00    +0.000 A 
ATOM      8  C   UNL     1       5.322   5.259  14.950  0.00  0.00    +0.000 A 
BRANCH   3  10
ATOM      9  C   UNL     1       8.052   5.403  12.789  0.00  0.00    +0.000 C 
ATOM     10  N   UNL     1       7.080   4.511  13.415  0.00  0.00    +0.000 N 
ATOM     11  C   UNL     1       6.337   3.616  12.535  0.00  0.00    +0.000 C 
ENDBRANCH   3  10
ENDBRANCH   1   6
BRANCH   1  12
ATOM     12  S   UNL     1       3.401   5.929  18.860  0.00  0.00    +0.000 S 
BRANCH  12  13
ATOM     13  C   UNL     1       2.738   4.509  19.705  0.00  0.00    +0.000 A 
ATOM     14  C   UNL     1       2.420   4.650  21.062  0.00  0.00    +0.000 A 
ATOM     15  C   UNL     1       1.931   3.574  21.800  0.00  0.00    +0.000 A 
ATOM     16  C   UNL     1       1.773   2.357  21.167  0.00  0.00    +0.000 A 
ATOM     17  N   UNL     1       2.072   2.152  19.868  0.00  0.00    +0.000 NA
ATOM     18  CA  UNL     1       2.553   3.234  19.161  0.00  0.00    +0.000 A 
BRANCH  18  19
ATOM     19  C   UNL     1       2.871   2.880  17.735  0.00  0.00    +0.000 C 
ATOM     20  O   UNL     1       2.208   3.134  16.749  0.00  0.00    +0.000 OA
BRANCH  19  21
ATOM     21  OXT UNL     1       4.052   2.204  17.681  0.00  0.00    +0.000 OA
ATOM     22  HXT UNL     1       4.368   2.056  18.605  0.00  0.00    +0.000 HD
ENDBRANCH  19  21
ENDBRANCH  18  19
ENDBRANCH  12  13
ENDBRANCH   1  12
TORSDOF 6
ENDMDL
MODEL 2
REMARK VINA RESULT:      -7.0      3.140      7.028
REMARK  Name = 
REMARK  8 active torsions:
REMARK  status: ('A' for Active; 'I' for Inactive)
REMARK    1  A    between atoms: C_1  and  N_2
REMARK    2  A    between atoms: N_2  and  C_3
REMARK    3  A    between atoms: N_2  and  C_4
REMARK    4  A    between atoms: C_7  and  C_8
REMARK    5  A    between atoms: C_8  and  S_10
REMARK    6  A    between atoms: S_10  and  C_11
REMARK    7  A    between atoms: CA_16  and  C_17
REMARK    8  A    between atoms: C_17  and  OXT_19
REMARK                            x       y       z     vdW  Elec       q    Type
REMARK                         _______ _______ _______ _____ _____    ______ ____
ROOT
ATOM      1  C   UNL     1       3.477   4.558  18.166  0.00  0.00    +0.000 C 
ATOM      2  O   UNL     1       2.848   3.807  17.430  0.00  0.00    +0.000 OA
ENDROOT
BRANCH   1   6
ATOM      3  C   UNL     1       1.664   8.120  19.896  0.00  0.00    +0.000 A 
ATOM      4  C   UNL     1       1.697   6.900  20.592  0.00  0.00    +0.000 A 
ATOM      5  C   UNL     1       2.257   5.735  20.050  0.00  0.00    +0.000 A 
ATOM      6  C   UNL     1       2.832   5.753  18.781  0.00  0.00    +0.000 A 
ATOM      7  C   UNL     1       2.802   6.946  18.056  0.00  0.00    +0.000 A 
ATOM      8  C   UNL     1       2.234   8.106  18.611  0.00  0.00    +0.000 A 
BRANCH   3  10
ATOM      9  C   UNL     1       0.957   9.379  21.904  0.00  0.00    +0.000 C 
ATOM     10  N   UNL     1       1.123   9.273  20.458  0.00  0.00    +0.000 N 
ATOM     11  C   UNL     1       0.359  10.201  19.633  0.00  0.00    +0.000 C 
ENDBRANCH   3  10
ENDBRANCH   1   6
BRANCH   1  12
ATOM     12  S   UNL     1       5.183   4.267  18.507  0.00  0.00    +0.000 S 
BRANCH  12  13
ATOM     13  C   UNL     1       5.900   4.585  16.908  0.00  0.00    +0.000 A 
ATOM     14  C   UNL     1       5.550   3.728  15.857  0.00  0.00    +0.000 A 
ATOM     15  C   UNL     1       6.099   3.890  14.585  0.00  0.00    +0.000 A 
ATOM     16  C   UNL     1       7.004   4.912  14.383  0.00  0.00    +0.000 A 
ATOM     17  N   UNL     1       7.392   5.763  15.355  0.00  0.00    +0.000 NA
ATOM     18  CA  UNL     1       6.834   5.581  16.603  0.00  0.00    +0.000 A 
BRANCH  18  19
ATOM     19  C   UNL     1       7.357   6.571  17.606  0.00  0.00    +0.000 C 
ATOM     20  O   UNL     1       7.884   6.327  18.673  0.00  0.00    +0.000 OA
BRANCH  19  21
ATOM     21  OXT UNL     1       7.156   7.837  17.150  0.00  0.00    +0.000 OA
ATOM     22  HXT UNL     1       7.177   7.820  16.163  0.00  0.00    +0.000 HD
ENDBRANCH  19  21
ENDBRANCH  18  19
ENDBRANCH  12  13
ENDBRANCH   1  12
TORSDOF 6
ENDMDL
MODEL 3
REMARK VINA RESULT:      -6.9      3.224      6.834
REMARK  Name = 
REMARK  8 active torsions:
REMARK  status: ('A' for Active; 'I' for Inactive)
REMARK    1  A    between atoms: C_1  and  N_2
REMARK    2  A    between atoms: N_2  and  C_3
REMARK    3  A    between atoms: N_2  and  C_4
REMARK    4  A    between atoms: C_7  and  C_8
REMARK    5  A    between atoms: C_8  and  S_10
REMARK    6  A    between atoms: S_10  and  C_11
REMARK    7  A    between atoms: CA_16  and  C_17
REMARK    8  A    between atoms: C_17  and  OXT_19
REMARK                            x       y       z     vdW  Elec       q    Type
REMARK                         _______ _______ _______ _____ _____    ______ ____
ROOT
ATOM      1  C   UNL     1       3.262   4.412  18.584  0.00  0.00    +0.000 C 
ATOM      2  O   UNL     1       2.546   3.565  18.064  0.00  0.00    +0.000 OA
ENDROOT
BRANCH   1   6
ATOM      3  C   UNL     1       1.655   8.328  19.607  0.00  0.00    +0.000 A 
ATOM      4  C   UNL     1       2.261   8.085  18.363  0.00  0.00    +0.000 A 
ATOM      5  C   UNL     1       2.803   6.838  18.017  0.00  0.00    +0.000 A 
ATOM      6  C   UNL     1       2.739   5.769  18.908  0.00  0.00    +0.000 A 
ATOM      7  C   UNL     1       2.156   5.983  20.159  0.00  0.00    +0.000 A 
ATOM      8  C   UNL     1       1.620   7.239  20.494  0.00  0.00    +0.000 A 
BRANCH   3  10
ATOM      9  C   UNL     1       1.132  10.656  18.956  0.00  0.00    +0.000 C 
ATOM     10  N   UNL     1       1.102   9.566  19.925  0.00  0.00    +0.000 N 
ATOM     11  C   UNL     1       0.858   9.922  21.318  0.00  0.00    +0.000 C 
ENDBRANCH   3  10
ENDBRANCH   1   6
BRANCH   1  12
ATOM     12  S   UNL     1       4.953   4.064  18.946  0.00  0.00    +0.000 S 
BRANCH  12  13
ATOM     13  C   UNL     1       5.721   4.502  17.400  0.00  0.00    +0.000 A 
ATOM     14  C   UNL     1       5.164   3.978  16.227  0.00  0.00    +0.000 A 
ATOM     15  C   UNL     1       5.731   4.245  14.981  0.00  0.00    +0.000 A 
ATOM     16  C   UNL     1       6.862   5.034  14.927  0.00  0.00    +0.000 A 
ATOM     17  N   UNL     1       7.454   5.558  16.020  0.00  0.00    +0.000 NA
ATOM     18  CA  UNL     1       6.873   5.279  17.239  0.00  0.00    +0.000 A 
BRANCH  18  19
ATOM     19  C   UNL     1       7.630   5.897  18.381  0.00  0.00    +0.000 C 
ATOM     20  O   UNL     1       8.035   5.339  19.381  0.00  0.00    +0.000 OA
BRANCH  19  21
ATOM     21  OXT UNL     1       7.816   7.225  18.145  0.00  0.00    +0.000 OA
ATOM     22  HXT UNL     1       8.768   7.372  17.926  0.00  0.00    +0.000 HD
ENDBRANCH  19  21
ENDBRANCH  18  19
ENDBRANCH  12  13
ENDBRANCH   1  12
TORSDOF 6
ENDMDL
MODEL 4
REMARK VINA RESULT:      -6.9      3.945      7.218
REMARK  Name = 
REMARK  8 active torsions:
REMARK  status: ('A' for Active; 'I' for Inactive)
REMARK    1  A    between atoms: C_1  and  N_2
REMARK    2  A    between atoms: N_2  and  C_3
REMARK    3  A    between atoms: N_2  and  C_4
REMARK    4  A    between atoms: C_7  and  C_8
REMARK    5  A    between atoms: C_8  and  S_10
REMARK    6  A    between atoms: S_10  and  C_11
REMARK    7  A    between atoms: CA_16  and  C_17
REMARK    8  A    between atoms: C_17  and  OXT_19
REMARK                            x       y       z     vdW  Elec       q    Type
REMARK                         _______ _______ _______ _____ _____    ______ ____
ROOT
ATOM      1  C   UNL     1       3.159   5.726  18.280  0.00  0.00    +0.000 C 
ATOM      2  O   UNL     1       2.553   4.916  17.589  0.00  0.00    +0.000 OA
ENDROOT
BRANCH   1   6
ATOM      3  C   UNL     1       1.308   9.497  19.429  0.00  0.00    +0.000 A 
ATOM      4  C   UNL     1       1.814   9.292  18.134  0.00  0.00    +0.000 A 
ATOM      5  C   UNL     1       2.431   8.094  17.745  0.00  0.00    +0.000 A 
ATOM      6  C   UNL     1       2.548   7.036  18.644  0.00  0.00    +0.000 A 
ATOM      7  C   UNL     1       2.069   7.214  19.944  0.00  0.00    +0.000 A 
ATOM      8  C   UNL     1       1.456   8.422  20.322  0.00  0.00    +0.000 A 
BRANCH   3  10
ATOM      9  C   UNL     1       0.684  11.828  18.885  0.00  0.00    +0.000 C 
ATOM     10  N   UNL     1       0.678  10.685  19.792  0.00  0.00    +0.000 N 
ATOM     11  C   UNL     1       0.365  10.950  21.191  0.00  0.00    +0.000 C 
ENDBRANCH   3  10
ENDBRANCH   1   6
BRANCH   1  12
ATOM     12  S   UNL     1       4.793   5.384  18.848  0.00  0.00    +0.000 S 
BRANCH  12  13
ATOM     13  C   UNL     1       5.649   5.188  17.298  0.00  0.00    +0.000 A 
ATOM     14  C   UNL     1       5.161   4.227  16.404  0.00  0.00    +0.000 A 
ATOM     15  C   UNL     1       5.799   3.989  15.187  0.00  0.00    +0.000 A 
ATOM     16  C   UNL     1       6.932   4.717  14.883  0.00  0.00    +0.000 A 
ATOM     17  N   UNL     1       7.460   5.647  15.705  0.00  0.00    +0.000 NA
ATOM     18  CA  UNL     1       6.808   5.863  16.902  0.00  0.00    +0.000 A 
BRANCH  18  19
ATOM     19  C   UNL     1       7.499   6.902  17.741  0.00  0.00    +0.000 C 
ATOM     20  O   UNL     1       8.108   6.724  18.777  0.00  0.00    +0.000 OA
BRANCH  19  21
ATOM     21  OXT UNL     1       7.349   8.129  17.170  0.00  0.00    +0.000 OA
ATOM     22  HXT UNL     1       7.631   8.069  16.225  0.00  0.00    +0.000 HD
ENDBRANCH  19  21
ENDBRANCH  18  19
ENDBRANCH  12  13
ENDBRANCH   1  12
TORSDOF 6
ENDMDL
MODEL 5
REMARK VINA RESULT:      -6.9      3.909      7.166
REMARK  Name = 
REMARK  8 active torsions:
REMARK  status: ('A' for Active; 'I' for Inactive)
REMARK    1  A    between atoms: C_1  and  N_2
REMARK    2  A    between atoms: N_2  and  C_3
REMARK    3  A    between atoms: N_2  and  C_4
REMARK    4  A    between atoms: C_7  and  C_8
REMARK    5  A    between atoms: C_8  and  S_10
REMARK    6  A    between atoms: S_10  and  C_11
REMARK    7  A    between atoms: CA_16  and  C_17
REMARK    8  A    between atoms: C_17  and  OXT_19
REMARK                            x       y       z     vdW  Elec       q    Type
REMARK                         _______ _______ _______ _____ _____    ______ ____
ROOT
ATOM      1  C   UNL     1       3.234   5.642  18.289  0.00  0.00    +0.000 C 
ATOM      2  O   UNL     1       2.627   4.803  17.636  0.00  0.00    +0.000 OA
ENDROOT
BRANCH   1   6
ATOM      3  C   UNL     1       1.351   9.421  19.355  0.00  0.00    +0.000 A 
ATOM      4  C   UNL     1       1.871   9.196  18.069  0.00  0.00    +0.000 A 
ATOM      5  C   UNL     1       2.499   7.996  17.707  0.00  0.00    +0.000 A 
ATOM      6  C   UNL     1       2.613   6.954  18.625  0.00  0.00    +0.000 A 
ATOM      7  C   UNL     1       2.119   7.152  19.917  0.00  0.00    +0.000 A 
ATOM      8  C   UNL     1       1.496   8.362  20.268  0.00  0.00    +0.000 A 
BRANCH   3  10
ATOM      9  C   UNL     1      -0.502  10.591  20.504  0.00  0.00    +0.000 C 
ATOM     10  N   UNL     1       0.711  10.611  19.691  0.00  0.00    +0.000 N 
ATOM     11  C   UNL     1       0.982  11.828  18.934  0.00  0.00    +0.000 C 
ENDBRANCH   3  10
ENDBRANCH   1   6
BRANCH   1  12
ATOM     12  S   UNL     1       4.884   5.339  18.836  0.00  0.00    +0.000 S 
BRANCH  12  13
ATOM     13  C   UNL     1       5.722   5.153  17.276  0.00  0.00    +0.000 A 
ATOM     14  C   UNL     1       5.319   4.101  16.444  0.00  0.00    +0.000 A 
ATOM     15  C   UNL     1       5.952   3.868  15.224  0.00  0.00    +0.000 A 
ATOM     16  C   UNL     1       6.996   4.693  14.854  0.00  0.00    +0.000 A 
ATOM     17  N   UNL     1       7.440   5.714  15.615  0.00  0.00    +0.000 NA
ATOM     18  CA  UNL     1       6.796   5.923  16.816  0.00  0.00    +0.000 A 
BRANCH  18  19
ATOM     19  C   UNL     1       7.391   7.070  17.585  0.00  0.00    +0.000 C 
ATOM     20  O   UNL     1       7.335   8.251  17.304  0.00  0.00    +0.000 OA
BRANCH  19  21
ATOM     21  OXT UNL     1       8.034   6.600  18.689  0.00  0.00    +0.000 OA
ATOM     22  HXT UNL     1       8.516   7.351  19.112  0.00  0.00    +0.000 HD
ENDBRANCH  19  21
ENDBRANCH  18  19
ENDBRANCH  12  13
ENDBRANCH   1  12
TORSDOF 6
ENDMDL
MODEL 6
REMARK VINA RESULT:      -6.8      2.090      2.795
REMARK  Name = 
REMARK  8 active torsions:
REMARK  status: ('A' for Active; 'I' for Inactive)
REMARK    1  A    between atoms: C_1  and  N_2
REMARK    2  A    between atoms: N_2  and  C_3
REMARK    3  A    between atoms: N_2  and  C_4
REMARK    4  A    between atoms: C_7  and  C_8
REMARK    5  A    between atoms: C_8  and  S_10
REMARK    6  A    between atoms: S_10  and  C_11
REMARK    7  A    between atoms: CA_16  and  C_17
REMARK    8  A    between atoms: C_17  and  OXT_19
REMARK                            x       y       z     vdW  Elec       q    Type
REMARK                         _______ _______ _______ _____ _____    ______ ____
ROOT
ATOM      1  C   UNL     1       5.775   4.401  18.776  0.00  0.00    +0.000 C 
ATOM      2  O   UNL     1       6.481   4.969  19.601  0.00  0.00    +0.000 OA
ENDROOT
BRANCH   1   6
ATOM      3  C   UNL     1       6.598   4.535  14.501  0.00  0.00    +0.000 A 
ATOM      4  C   UNL     1       7.445   5.159  15.433  0.00  0.00    +0.000 A 
ATOM      5  C   UNL     1       7.192   5.147  16.812  0.00  0.00    +0.000 A 
ATOM      6  C   UNL     1       6.077   4.483  17.319  0.00  0.00    +0.000 A 
ATOM      7  C   UNL     1       5.207   3.865  16.418  0.00  0.00    +0.000 A 
ATOM      8  C   UNL     1       5.471   3.888  15.037  0.00  0.00    +0.000 A 
BRANCH   3  10
ATOM      9  C   UNL     1       6.394   3.456  12.285  0.00  0.00    +0.000 C 
ATOM     10  N   UNL     1       6.876   4.538  13.137  0.00  0.00    +0.000 N 
ATOM     11  C   UNL     1       7.956   5.366  12.612  0.00  0.00    +0.000 C 
ENDBRANCH   3  10
ENDBRANCH   1   6
BRANCH   1  12
ATOM     12  S   UNL     1       4.355   3.486  19.281  0.00  0.00    +0.000 S 
BRANCH  12  13
ATOM     13  C   UNL     1       3.235   4.809  19.691  0.00  0.00    +0.000 A 
ATOM     14  C   UNL     1       3.459   6.057  19.096  0.00  0.00    +0.000 A 
ATOM     15  C   UNL     1       2.648   7.151  19.396  0.00  0.00    +0.000 A 
ATOM     16  C   UNL     1       1.619   6.981  20.301  0.00  0.00    +0.000 A 
ATOM     17  N   UNL     1       1.359   5.810  20.917  0.00  0.00    +0.000 NA
ATOM     18  CA  UNL     1       2.176   4.744  20.602  0.00  0.00    +0.000 A 
BRANCH  18  19
ATOM     19  C   UNL     1       1.805   3.503  21.365  0.00  0.00    +0.000 C 
ATOM     20  O   UNL     1       2.406   3.004  22.295  0.00  0.00    +0.000 OA
BRANCH  19  21
ATOM     21  OXT UNL     1       0.654   2.979  20.859  0.00  0.00    +0.000 OA
ATOM     22  HXT UNL     1       0.100   3.720  20.513  0.00  0.00    +0.000 HD
ENDBRANCH  19  21
ENDBRANCH  18  19
ENDBRANCH  12  13
ENDBRANCH   1  12
TORSDOF 6
ENDMDL
MODEL 7
REMARK VINA RESULT:      -6.8      4.031      6.220
REMARK  Name = 
REMARK  8 active torsions:
REMARK  status: ('A' for Active; 'I' for Inactive)
REMARK    1  A    between atoms: C_1  and  N_2
REMARK    2  A    between atoms: N_2  and  C_3
REMARK    3  A    between atoms: N_2  and  C_4
REMARK    4  A    between atoms: C_7  and  C_8
REMARK    5  A    between atoms: C_8  and  S_10
REMARK    6  A    between atoms: S_10  and  C_11
REMARK    7  A    between atoms: CA_16  and  C_17
REMARK    8  A    between atoms: C_17  and  OXT_19
REMARK                            x       y       z     vdW  Elec       q    Type
REMARK                         _______ _______ _______ _____ _____    ______ ____
ROOT
ATOM      1  C   UNL     1       2.982   6.344  18.200  0.00  0.00    +0.000 C 
ATOM      2  O   UNL     1       4.193   6.390  18.023  0.00  0.00    +0.000 OA
ENDROOT
BRANCH   1   6
ATOM      3  C   UNL     1       0.875   9.783  19.844  0.00  0.00    +0.000 A 
ATOM      4  C   UNL     1       1.244   8.693  20.650  0.00  0.00    +0.000 A 
ATOM      5  C   UNL     1       1.906   7.566  20.141  0.00  0.00    +0.000 A 
ATOM      6  C   UNL     1       2.245   7.496  18.792  0.00  0.00    +0.000 A 
ATOM      7  C   UNL     1       1.879   8.557  17.960  0.00  0.00    +0.000 A 
ATOM      8  C   UNL     1       1.213   9.679  18.483  0.00  0.00    +0.000 A 
BRANCH   3  10
ATOM      9  C   UNL     1       0.298  12.181  19.667  0.00  0.00    +0.000 C 
ATOM     10  N   UNL     1       0.238  10.903  20.370  0.00  0.00    +0.000 N 
ATOM     11  C   UNL     1      -0.142  10.937  21.777  0.00  0.00    +0.000 C 
ENDBRANCH   3  10
ENDBRANCH   1   6
BRANCH   1  12
ATOM     12  S   UNL     1       2.064   4.896  17.784  0.00  0.00    +0.000 S 
BRANCH  12  13
ATOM     13  C   UNL     1       2.242   3.949  19.281  0.00  0.00    +0.000 A 
ATOM     14  C   UNL     1       1.163   3.936  20.174  0.00  0.00    +0.000 A 
ATOM     15  C   UNL     1       1.241   3.248  21.384  0.00  0.00    +0.000 A 
ATOM     16  C   UNL     1       2.410   2.581  21.691  0.00  0.00    +0.000 A 
ATOM     17  N   UNL     1       3.489   2.565  20.881  0.00  0.00    +0.000 NA
ATOM     18  CA  UNL     1       3.385   3.253  19.690  0.00  0.00    +0.000 A 
BRANCH  18  19
ATOM     19  C   UNL     1       4.652   3.182  18.884  0.00  0.00    +0.000 C 
ATOM     20  O   UNL     1       5.688   3.784  19.088  0.00  0.00    +0.000 OA
BRANCH  19  21
ATOM     21  OXT UNL     1       4.489   2.317  17.846  0.00  0.00    +0.000 OA
ATOM     22  HXT UNL     1       3.998   1.525  18.174  0.00  0.00    +0.000 HD
ENDBRANCH  19  21
ENDBRANCH  18  19
ENDBRANCH  12  13
ENDBRANCH   1  12
TORSDOF 6
ENDMDL
MODEL 8
REMARK VINA RESULT:      -6.8      3.847      7.103
REMARK  Name = 
REMARK  8 active torsions:
REMARK  status: ('A' for Active; 'I' for Inactive)
REMARK    1  A    between atoms: C_1  and  N_2
REMARK    2  A    between atoms: N_2  and  C_3
REMARK    3  A    between atoms: N_2  and  C_4
REMARK    4  A    between atoms: C_7  and  C_8
REMARK    5  A    between atoms: C_8  and  S_10
REMARK    6  A    between atoms: S_10  and  C_11
REMARK    7  A    between atoms: CA_16  and  C_17
REMARK    8  A    between atoms: C_17  and  OXT_19
REMARK                            x       y       z     vdW  Elec       q    Type
REMARK                         _______ _______ _______ _____ _____    ______ ____
ROOT
ATOM      1  C   UNL     1       3.281   5.545  18.368  0.00  0.00    +0.000 C 
ATOM      2  O   UNL     1       2.697   4.699  17.701  0.00  0.00    +0.000 OA
ENDROOT
BRANCH   1   6
ATOM      3  C   UNL     1       1.385   9.325  19.411  0.00  0.00    +0.000 A 
ATOM      4  C   UNL     1       1.523   8.288  20.350  0.00  0.00    +0.000 A 
ATOM      5  C   UNL     1       2.113   7.056  20.034  0.00  0.00    +0.000 A 
ATOM      6  C   UNL     1       2.610   6.819  18.754  0.00  0.00    +0.000 A 
ATOM      7  C   UNL     1       2.474   7.824  17.793  0.00  0.00    +0.000 A 
ATOM      8  C   UNL     1       1.877   9.053  18.123  0.00  0.00    +0.000 A 
BRANCH   3  10
ATOM      9  C   UNL     1       0.991  11.707  18.875  0.00  0.00    +0.000 C 
ATOM     10  N   UNL     1       0.817  10.550  19.748  0.00  0.00    +0.000 N 
ATOM     11  C   UNL     1       0.400  10.812  21.121  0.00  0.00    +0.000 C 
ENDBRANCH   3  10
ENDBRANCH   1   6
BRANCH   1  12
ATOM     12  S   UNL     1       4.952   5.299  18.875  0.00  0.00    +0.000 S 
BRANCH  12  13
ATOM     13  C   UNL     1       5.759   5.139  17.295  0.00  0.00    +0.000 A 
ATOM     14  C   UNL     1       5.353   4.089  16.462  0.00  0.00    +0.000 A 
ATOM     15  C   UNL     1       5.963   3.877  15.226  0.00  0.00    +0.000 A 
ATOM     16  C   UNL     1       6.985   4.721  14.841  0.00  0.00    +0.000 A 
ATOM     17  N   UNL     1       7.430   5.742  15.602  0.00  0.00    +0.000 NA
ATOM     18  CA  UNL     1       6.809   5.930  16.819  0.00  0.00    +0.000 A 
BRANCH  18  19
ATOM     19  C   UNL     1       7.404   7.080  17.584  0.00  0.00    +0.000 C 
ATOM     20  O   UNL     1       7.355   8.259  17.295  0.00  0.00    +0.000 OA
BRANCH  19  21
ATOM     21  OXT UNL     1       8.036   6.614  18.696  0.00  0.00    +0.000 OA
ATOM     22  HXT UNL     1       8.766   6.013  18.411  0.00  0.00    +0.000 HD
ENDBRANCH  19  21
ENDBRANCH  18  19
ENDBRANCH  12  13
ENDBRANCH   1  12
TORSDOF 6
ENDMDL
MODEL 9
REMARK VINA RESULT:      -6.8      0.135      1.050
REMARK  Name = 
REMARK  8 active torsions:
REMARK  status: ('A' for Active; 'I' for Inactive)
REMARK    1  A    between atoms: C_1  and  N_2
REMARK    2  A    between atoms: N_2  and  C_3
REMARK    3  A    between atoms: N_2  and  C_4
REMARK    4  A    between atoms: C_7  and  C_8
REMARK    5  A    between atoms: C_8  and  S_10
REMARK    6  A    between atoms: S_10  and  C_11
REMARK    7  A    between atoms: CA_16  and  C_17
REMARK    8  A    between atoms: C_17  and  OXT_19
REMARK                            x       y       z     vdW  Elec       q    Type
REMARK                         _______ _______ _______ _____ _____    ______ ____
ROOT
ATOM      1  C   UNL     1       5.145   5.318  18.741  0.00  0.00    +0.000 C 
ATOM      2  O   UNL     1       5.882   5.130  19.701  0.00  0.00    +0.000 OA
ENDROOT
BRANCH   1   6
ATOM      3  C   UNL     1       6.673   4.724  14.706  0.00  0.00    +0.000 A 
ATOM      4  C   UNL     1       5.391   5.252  14.936  0.00  0.00    +0.000 A 
ATOM      5  C   UNL     1       4.869   5.435  16.225  0.00  0.00    +0.000 A 
ATOM      6  C   UNL     1       5.629   5.111  17.347  0.00  0.00    +0.000 A 
ATOM      7  C   UNL     1       6.902   4.570  17.152  0.00  0.00    +0.000 A 
ATOM      8  C   UNL     1       7.411   4.388  15.854  0.00  0.00    +0.000 A 
BRANCH   3  10
ATOM      9  C   UNL     1       8.132   5.541  12.884  0.00  0.00    +0.000 C 
ATOM     10  N   UNL     1       7.184   4.570  13.420  0.00  0.00    +0.000 N 
ATOM     11  C   UNL     1       6.507   3.704  12.462  0.00  0.00    +0.000 C 
ENDBRANCH   3  10
ENDBRANCH   1   6
BRANCH   1  12
ATOM     12  S   UNL     1       3.486   5.871  18.971  0.00  0.00    +0.000 S 
BRANCH  12  13
ATOM     13  C   UNL     1       2.774   4.454  19.783  0.00  0.00    +0.000 A 
ATOM     14  C   UNL     1       2.473   4.570  21.146  0.00  0.00    +0.000 A 
ATOM     15  C   UNL     1       1.949   3.493  21.860  0.00  0.00    +0.000 A 
ATOM     16  C   UNL     1       1.737   2.302  21.195  0.00  0.00    +0.000 A 
ATOM     17  N   UNL     1       2.017   2.121  19.888  0.00  0.00    +0.000 NA
ATOM     18  CA  UNL     1       2.535   3.203  19.206  0.00  0.00    +0.000 A 
BRANCH  18  19
ATOM     19  C   UNL     1       2.826   2.877  17.768  0.00  0.00    +0.000 C 
ATOM     20  O   UNL     1       2.192   3.225  16.792  0.00  0.00    +0.000 OA
BRANCH  19  21
ATOM     21  OXT UNL     1       3.943   2.103  17.689  0.00  0.00    +0.000 OA
ATOM     22  HXT UNL     1       4.305   2.170  16.772  0.00  0.00    +0.000 HD
ENDBRANCH  19  21
ENDBRANCH  18  19
ENDBRANCH  12  13
ENDBRANCH   1  12
TORSDOF 6
ENDMDL
