MODEL 1
REMARK VINA RESULT:      -7.3      0.000      0.000
REMARK  Name = 
REMARK  9 active torsions:
REMARK  status: ('A' for Active; 'I' for Inactive)
REMARK    1  A    between atoms: C_1  and  C_2
REMARK    2  A    between atoms: C_2  and  O_3
REMARK    3  A    between atoms: C_2  and  C_4
REMARK    4  A    between atoms: C_4  and  N_5
REMARK    5  A    between atoms: C_8  and  C_9
REMARK    6  A    between atoms: C_9  and  N_10
REMARK    7  A    between atoms: N_10  and  C_11
REMARK    8  A    between atoms: C_11  and  C_12
REMARK    9  A    between atoms: N_14  and  C_15
REMARK                            x       y       z     vdW  Elec       q    Type
REMARK                         _______ _______ _______ _____ _____    ______ ____
ROOT
ATOM      1  N   UNL     1       8.607   8.793  18.541  0.00  0.00    +0.000 NA
ATOM      2  H   UNL     1       8.167   8.548  19.429  0.00  0.00    +0.000 HD
ENDROOT
BRANCH   1   3
ATOM      3  C   UNL     1       8.709  10.250  18.434  0.00  0.00    +0.000 C 
BRANCH   3   7
ATOM      4  N   UNL     1      10.116  13.698  18.449  0.00  0.00    +0.000 NA
ATOM      5  C   UNL     1       9.244  13.150  19.500  0.00  0.00    +0.000 C 
ATOM      6  C   UNL     1       9.793  11.845  20.085  0.00  0.00    +0.000 C 
ATOM      7  C   UNL     1      10.042  10.780  19.007  0.00  0.00    +0.000 C 
ATOM      8  C   UNL     1      10.959  11.399  17.944  0.00  0.00    +0.000 C 
ATOM      9  C   UNL     1      10.396  12.710  17.391  0.00  0.00    +0.000 C 
BRANCH   4  10
ATOM     10  C   UNL     1       9.533  14.909  17.839  0.00  0.00    +0.000 C 
BRANCH  10  12
ATOM     11  C   UNL     1      11.824  15.970  18.248  0.00  0.00    +0.000 C 
ATOM     12  C   UNL     1      10.521  16.037  17.462  0.00  0.00    +0.000 C 
BRANCH  12  13
ATOM     13  O   UNL     1      10.823  15.950  16.064  0.00  0.00    +0.000 OA
ATOM     14  H   UNL     1      10.912  16.857  15.725  0.00  0.00    +0.000 HD
ENDBRANCH  12  13
ENDBRANCH  10  12
ENDBRANCH   4  10
ENDBRANCH   3   7
ENDBRANCH   1   3
BRANCH   1  15
ATOM     15  C   UNL     1       7.781   8.263  17.450  0.00  0.00    +0.000 C 
BRANCH  15  16
ATOM     16  C   UNL     1       7.189   6.960  17.857  0.00  0.00    +0.000 A 
ATOM     17  C   UNL     1       6.015   6.362  17.454  0.00  0.00    +0.000 A 
ATOM     18  N   UNL     1       5.911   5.223  18.216  0.00  0.00    +0.000 N 
ATOM     19  N   UNL     1       7.003   5.121  19.015  0.00  0.00    +0.000 NA
ATOM     20  N   UNL     1       7.782   6.175  18.807  0.00  0.00    +0.000 NA
BRANCH  18  21
ATOM     21  C   UNL     1       4.858   4.276  18.249  0.00  0.00    +0.000 A 
ATOM     22  C   UNL     1       4.733   3.379  19.321  0.00  0.00    +0.000 A 
ATOM     23  C   UNL     1       3.701   2.439  19.332  0.00  0.00    +0.000 A 
ATOM     24  C   UNL     1       2.791   2.384  18.277  0.00  0.00    +0.000 A 
ATOM     25  C   UNL     1       2.910   3.271  17.208  0.00  0.00    +0.000 A 
ATOM     26  C   UNL     1       3.939   4.215  17.190  0.00  0.00    +0.000 A 
ENDBRANCH  18  21
ENDBRANCH  15  16
ENDBRANCH   1  15
TORSDOF 8
ENDMDL
MODEL 2
REMARK VINA RESULT:      -7.2      6.894      9.320
REMARK  Name = 
REMARK  9 active torsions:
REMARK  status: ('A' for Active; 'I' for Inactive)
REMARK    1  A    between atoms: C_1  and  C_2
REMARK    2  A    between atoms: C_2  and  O_3
REMARK    3  A    between atoms: C_2  and  C_4
REMARK    4  A    between atoms: C_4  and  N_5
REMARK    5  A    between atoms: C_8  and  C_9
REMARK    6  A    between atoms: C_9  and  N_10
REMARK    7  A    between atoms: N_10  and  C_11
REMARK    8  A    between atoms: C_11  and  C_12
REMARK    9  A    between atoms: N_14  and  C_15
REMARK                            x       y       z     vdW  Elec       q    Type
REMARK                         _______ _______ _______ _____ _____    ______ ____
ROOT
ATOM      1  N   UNL     1       6.734   6.102  17.884  0.00  0.00    +0.000 NA
ATOM      2  H   UNL     1       7.342   6.537  18.579  0.00  0.00    +0.000 HD
ENDROOT
BRANCH   1   3
ATOM      3  C   UNL     1       5.477   5.702  18.520  0.00  0.00    +0.000 C 
BRANCH   3   7
ATOM      4  N   UNL     1       1.845   5.183  19.156  0.00  0.00    +0.000 NA
ATOM      5  C   UNL     1       2.582   6.411  19.492  0.00  0.00    +0.000 C 
ATOM      6  C   UNL     1       3.309   7.000  18.280  0.00  0.00    +0.000 C 
ATOM      7  C   UNL     1       4.256   5.988  17.618  0.00  0.00    +0.000 C 
ATOM      8  C   UNL     1       3.438   4.734  17.282  0.00  0.00    +0.000 C 
ATOM      9  C   UNL     1       2.708   4.179  18.507  0.00  0.00    +0.000 C 
BRANCH   4  10
ATOM     10  C   UNL     1       1.218   4.582  20.350  0.00  0.00    +0.000 C 
BRANCH  10  12
ATOM     11  C   UNL     1       1.429   2.533  21.867  0.00  0.00    +0.000 C 
ATOM     12  C   UNL     1       1.243   3.039  20.442  0.00  0.00    +0.000 C 
BRANCH  12  13
ATOM     13  O   UNL     1       0.013   2.517  19.926  0.00  0.00    +0.000 OA
ATOM     14  H   UNL     1      -0.693   3.145  20.157  0.00  0.00    +0.000 HD
ENDBRANCH  12  13
ENDBRANCH  10  12
ENDBRANCH   4  10
ENDBRANCH   3   7
ENDBRANCH   1   3
BRANCH   1  15
ATOM     15  C   UNL     1       7.420   4.926  17.337  0.00  0.00    +0.000 C 
BRANCH  15  16
ATOM     16  C   UNL     1       7.111   4.793  15.888  0.00  0.00    +0.000 A 
ATOM     17  C   UNL     1       6.312   3.877  15.238  0.00  0.00    +0.000 A 
ATOM     18  N   UNL     1       6.463   4.153  13.901  0.00  0.00    +0.000 N 
ATOM     19  N   UNL     1       7.288   5.222  13.756  0.00  0.00    +0.000 NA
ATOM     20  N   UNL     1       7.690   5.613  14.959  0.00  0.00    +0.000 NA
BRANCH  18  21
ATOM     21  C   UNL     1       5.913   3.467  12.789  0.00  0.00    +0.000 A 
ATOM     22  C   UNL     1       4.612   3.745  12.346  0.00  0.00    +0.000 A 
ATOM     23  C   UNL     1       4.076   3.048  11.261  0.00  0.00    +0.000 A 
ATOM     24  C   UNL     1       4.830   2.069  10.616  0.00  0.00    +0.000 A 
ATOM     25  C   UNL     1       6.124   1.785  11.052  0.00  0.00    +0.000 A 
ATOM     26  C   UNL     1       6.667   2.479  12.136  0.00  0.00    +0.000 A 
ENDBRANCH  18  21
ENDBRANCH  15  16
ENDBRANCH   1  15
TORSDOF 8
ENDMDL
MODEL 3
REMARK VINA RESULT:      -7.2      1.039      1.238
REMARK  Name = 
REMARK  9 active torsions:
REMARK  status: ('A' for Active; 'I' for Inactive)
REMARK    1  A    between atoms: C_1  and  C_2
REMARK    2  A    between atoms: C_2  and  O_3
REMARK    3  A    between atoms: C_2  and  C_4
REMARK    4  A    between atoms: C_4  and  N_5
REMARK    5  A    between atoms: C_8  and  C_9
REMARK    6  A    between atoms: C_9  and  N_10
REMARK    7  A    between atoms: N_10  and  C_11
REMARK    8  A    between atoms: C_11  and  C_12
REMARK    9  A    between atoms: N_14  and  C_15
REMARK                            x       y       z     vdW  Elec       q    Type
REMARK                         _______ _______ _______ _____ _____    ______ ____
ROOT
ATOM      1  N   UNL     1       9.074   9.186  19.141  0.00  0.00    +0.000 NA
ATOM      2  H   UNL     1       8.556   8.743  19.902  0.00  0.00    +0.000 HD
ENDROOT
BRANCH   1   3
ATOM      3  C   UNL     1       9.160  10.627  19.387  0.00  0.00    +0.000 C 
BRANCH   3   7
ATOM      4  N   UNL     1      10.594  13.934  18.452  0.00  0.00    +0.000 NA
ATOM      5  C   UNL     1      10.106  13.588  19.796  0.00  0.00    +0.000 C 
ATOM      6  C   UNL     1      10.778  12.329  20.350  0.00  0.00    +0.000 C 
ATOM      7  C   UNL     1      10.623  11.122  19.413  0.00  0.00    +0.000 C 
ATOM      8  C   UNL     1      11.153  11.533  18.032  0.00  0.00    +0.000 C 
ATOM      9  C   UNL     1      10.477  12.803  17.512  0.00  0.00    +0.000 C 
BRANCH   4  10
ATOM     10  C   UNL     1       9.879  15.100  17.898  0.00  0.00    +0.000 C 
BRANCH  10  12
ATOM     11  C   UNL     1      12.103  16.341  17.668  0.00  0.00    +0.000 C 
ATOM     12  C   UNL     1      10.721  16.101  17.075  0.00  0.00    +0.000 C 
BRANCH  12  13
ATOM     13  O   UNL     1      10.874  15.601  15.741  0.00  0.00    +0.000 OA
ATOM     14  H   UNL     1      11.792  15.295  15.644  0.00  0.00    +0.000 HD
ENDBRANCH  12  13
ENDBRANCH  10  12
ENDBRANCH   4  10
ENDBRANCH   3   7
ENDBRANCH   1   3
BRANCH   1  15
ATOM     15  C   UNL     1       8.362   8.930  17.884  0.00  0.00    +0.000 C 
BRANCH  15  16
ATOM     16  C   UNL     1       7.562   7.681  18.006  0.00  0.00    +0.000 A 
ATOM     17  C   UNL     1       6.342   7.360  17.452  0.00  0.00    +0.000 A 
ATOM     18  N   UNL     1       6.025   6.128  17.971  0.00  0.00    +0.000 N 
ATOM     19  N   UNL     1       7.037   5.708  18.773  0.00  0.00    +0.000 NA
ATOM     20  N   UNL     1       7.973   6.649  18.803  0.00  0.00    +0.000 NA
BRANCH  18  21
ATOM     21  C   UNL     1       4.845   5.366  17.781  0.00  0.00    +0.000 A 
ATOM     22  C   UNL     1       3.588   5.901  18.098  0.00  0.00    +0.000 A 
ATOM     23  C   UNL     1       2.434   5.133  17.923  0.00  0.00    +0.000 A 
ATOM     24  C   UNL     1       2.527   3.829  17.437  0.00  0.00    +0.000 A 
ATOM     25  C   UNL     1       3.774   3.290  17.122  0.00  0.00    +0.000 A 
ATOM     26  C   UNL     1       4.932   4.053  17.294  0.00  0.00    +0.000 A 
ENDBRANCH  18  21
ENDBRANCH  15  16
ENDBRANCH   1  15
TORSDOF 8
ENDMDL
MODEL 4
REMARK VINA RESULT:      -7.1      0.771      1.025
REMARK  Name = 
REMARK  9 active torsions:
REMARK  status: ('A' for Active; 'I' for Inactive)
REMARK    1  A    between atoms: C_1  and  C_2
REMARK    2  A    between atoms: C_2  and  O_3
REMARK    3  A    between atoms: C_2  and  C_4
REMARK    4  A    between atoms: C_4  and  N_5
REMARK    5  A    between atoms: C_8  and  C_9
REMARK    6  A    between atoms: C_9  and  N_10
REMARK    7  A    between atoms: N_10  and  C_11
REMARK    8  A    between atoms: C_11  and  C_12
REMARK    9  A    between atoms: N_14  and  C_15
REMARK                            x       y       z     vdW  Elec       q    Type
REMARK                         _______ _______ _______ _____ _____    ______ ____
ROOT
ATOM      1  N   UNL     1       8.544   8.850  18.623  0.00  0.00    +0.000 NA
ATOM      2  H   UNL     1       7.837   8.735  19.351  0.00  0.00    +0.000 HD
ENDROOT
BRANCH   1   3
ATOM      3  C   UNL     1       8.726  10.276  18.343  0.00  0.00    +0.000 C 
BRANCH   3   7
ATOM      4  N   UNL     1      10.041  13.757  18.464  0.00  0.00    +0.000 NA
ATOM      5  C   UNL     1       9.129  13.177  19.461  0.00  0.00    +0.000 C 
ATOM      6  C   UNL     1       9.678  11.880  20.064  0.00  0.00    +0.000 C 
ATOM      7  C   UNL     1      10.012  10.833  18.991  0.00  0.00    +0.000 C 
ATOM      8  C   UNL     1      10.970  11.486  17.985  0.00  0.00    +0.000 C 
ATOM      9  C   UNL     1      10.404  12.788  17.414  0.00  0.00    +0.000 C 
BRANCH   4  10
ATOM     10  C   UNL     1       9.462  14.960  17.833  0.00  0.00    +0.000 C 
BRANCH  10  12
ATOM     11  C   UNL     1      11.744  16.039  18.244  0.00  0.00    +0.000 C 
ATOM     12  C   UNL     1      10.453  16.079  17.438  0.00  0.00    +0.000 C 
BRANCH  12  13
ATOM     13  O   UNL     1      10.776  15.951  16.048  0.00  0.00    +0.000 OA
ATOM     14  H   UNL     1      11.222  15.096  15.926  0.00  0.00    +0.000 HD
ENDBRANCH  12  13
ENDBRANCH  10  12
ENDBRANCH   4  10
ENDBRANCH   3   7
ENDBRANCH   1   3
BRANCH   1  15
ATOM     15  C   UNL     1       8.086   8.152  17.417  0.00  0.00    +0.000 C 
BRANCH  15  16
ATOM     16  C   UNL     1       7.193   7.025  17.798  0.00  0.00    +0.000 A 
ATOM     17  C   UNL     1       5.931   6.709  17.343  0.00  0.00    +0.000 A 
ATOM     18  N   UNL     1       5.534   5.634  18.101  0.00  0.00    +0.000 N 
ATOM     19  N   UNL     1       6.537   5.292  18.949  0.00  0.00    +0.000 NA
ATOM     20  N   UNL     1       7.547   6.136  18.774  0.00  0.00    +0.000 NA
BRANCH  18  21
ATOM     21  C   UNL     1       4.290   4.955  18.088  0.00  0.00    +0.000 A 
ATOM     22  C   UNL     1       4.102   3.816  17.292  0.00  0.00    +0.000 A 
ATOM     23  C   UNL     1       2.865   3.168  17.275  0.00  0.00    +0.000 A 
ATOM     24  C   UNL     1       1.810   3.653  18.047  0.00  0.00    +0.000 A 
ATOM     25  C   UNL     1       1.988   4.786  18.839  0.00  0.00    +0.000 A 
ATOM     26  C   UNL     1       3.223   5.438  18.861  0.00  0.00    +0.000 A 
ENDBRANCH  18  21
ENDBRANCH  15  16
ENDBRANCH   1  15
TORSDOF 8
ENDMDL
MODEL 5
REMARK VINA RESULT:      -7.0      6.328      7.919
REMARK  Name = 
REMARK  9 active torsions:
REMARK  status: ('A' for Active; 'I' for Inactive)
REMARK    1  A    between atoms: C_1  and  C_2
REMARK    2  A    between atoms: C_2  and  O_3
REMARK    3  A    between atoms: C_2  and  C_4
REMARK    4  A    between atoms: C_4  and  N_5
REMARK    5  A    between atoms: C_8  and  C_9
REMARK    6  A    between atoms: C_9  and  N_10
REMARK    7  A    between atoms: N_10  and  C_11
REMARK    8  A    between atoms: C_11  and  C_12
REMARK    9  A    between atoms: N_14  and  C_15
REMARK                            x       y       z     vdW  Elec       q    Type
REMARK                         _______ _______ _______ _____ _____    ______ ____
ROOT
ATOM      1  N   UNL     1       6.338   4.077  18.526  0.00  0.00    +0.000 NA
ATOM      2  H   UNL     1       5.958   3.430  17.833  0.00  0.00    +0.000 HD
ENDROOT
BRANCH   1   3
ATOM      3  C   UNL     1       5.239   4.785  19.185  0.00  0.00    +0.000 C 
BRANCH   3   7
ATOM      4  N   UNL     1       2.267   6.986  18.757  0.00  0.00    +0.000 NA
ATOM      5  C   UNL     1       3.386   6.905  17.807  0.00  0.00    +0.000 C 
ATOM      6  C   UNL     1       3.642   5.470  17.335  0.00  0.00    +0.000 C 
ATOM      7  C   UNL     1       3.881   4.505  18.505  0.00  0.00    +0.000 C 
ATOM      8  C   UNL     1       2.684   4.623  19.459  0.00  0.00    +0.000 C 
ATOM      9  C   UNL     1       2.441   6.069  19.898  0.00  0.00    +0.000 C 
BRANCH   4  10
ATOM     10  C   UNL     1       2.086   8.361  19.266  0.00  0.00    +0.000 C 
BRANCH  10  12
ATOM     11  C   UNL     1       0.601  10.444  19.219  0.00  0.00    +0.000 C 
ATOM     12  C   UNL     1       1.209   9.304  18.411  0.00  0.00    +0.000 C 
BRANCH  12  13
ATOM     13  O   UNL     1       2.006   9.862  17.358  0.00  0.00    +0.000 OA
ATOM     14  H   UNL     1       1.763  10.799  17.269  0.00  0.00    +0.000 HD
ENDBRANCH  12  13
ENDBRANCH  10  12
ENDBRANCH   4  10
ENDBRANCH   3   7
ENDBRANCH   1   3
BRANCH   1  15
ATOM     15  C   UNL     1       7.214   5.032  17.838  0.00  0.00    +0.000 C 
BRANCH  15  16
ATOM     16  C   UNL     1       6.998   4.944  16.369  0.00  0.00    +0.000 A 
ATOM     17  C   UNL     1       6.275   4.025  15.639  0.00  0.00    +0.000 A 
ATOM     18  N   UNL     1       6.495   4.357  14.324  0.00  0.00    +0.000 N 
ATOM     19  N   UNL     1       7.285   5.459  14.269  0.00  0.00    +0.000 NA
ATOM     20  N   UNL     1       7.599   5.819  15.507  0.00  0.00    +0.000 NA
BRANCH  18  21
ATOM     21  C   UNL     1       6.040   3.693  13.157  0.00  0.00    +0.000 A 
ATOM     22  C   UNL     1       4.733   3.887  12.686  0.00  0.00    +0.000 A 
ATOM     23  C   UNL     1       4.291   3.213  11.546  0.00  0.00    +0.000 A 
ATOM     24  C   UNL     1       5.146   2.341  10.872  0.00  0.00    +0.000 A 
ATOM     25  C   UNL     1       6.445   2.142  11.336  0.00  0.00    +0.000 A 
ATOM     26  C   UNL     1       6.894   2.814  12.475  0.00  0.00    +0.000 A 
ENDBRANCH  18  21
ENDBRANCH  15  16
ENDBRANCH   1  15
TORSDOF 8
ENDMDL
MODEL 6
REMARK VINA RESULT:      -6.9      1.382      1.836
REMARK  Name = 
REMARK  9 active torsions:
REMARK  status: ('A' for Active; 'I' for Inactive)
REMARK    1  A    between atoms: C_1  and  C_2
REMARK    2  A    between atoms: C_2  and  O_3
REMARK    3  A    between atoms: C_2  and  C_4
REMARK    4  A    between atoms: C_4  and  N_5
REMARK    5  A    between atoms: C_8  and  C_9
REMARK    6  A    between atoms: C_9  and  N_10
REMARK    7  A    between atoms: N_10  and  C_11
REMARK    8  A    between atoms: C_11  and  C_12
REMARK    9  A    between atoms: N_14  and  C_15
REMARK                            x       y       z     vdW  Elec       q    Type
REMARK                         _______ _______ _______ _____ _____    ______ ____
ROOT
ATOM      1  N   UNL     1       8.645   8.579  18.751  0.00  0.00    +0.000 NA
ATOM      2  H   UNL     1       8.072   8.351  19.565  0.00  0.00    +0.000 HD
ENDROOT
BRANCH   1   3
ATOM      3  C   UNL     1       8.750  10.034  18.622  0.00  0.00    +0.000 C 
BRANCH   3   7
ATOM      4  N   UNL     1       9.919  13.540  19.077  0.00  0.00    +0.000 NA
ATOM      5  C   UNL     1       9.112  12.798  20.058  0.00  0.00    +0.000 C 
ATOM      6  C   UNL     1       9.761  11.469  20.455  0.00  0.00    +0.000 C 
ATOM      7  C   UNL     1      10.057  10.577  19.240  0.00  0.00    +0.000 C 
ATOM      8  C   UNL     1      10.905  11.394  18.257  0.00  0.00    +0.000 C 
ATOM      9  C   UNL     1      10.240  12.723  17.892  0.00  0.00    +0.000 C 
BRANCH   4  10
ATOM     10  C   UNL     1       9.241  14.777  18.642  0.00  0.00    +0.000 C 
BRANCH  10  12
ATOM     11  C   UNL     1       7.044  15.921  19.282  0.00  0.00    +0.000 C 
ATOM     12  C   UNL     1       7.697  14.735  18.583  0.00  0.00    +0.000 C 
BRANCH  12  13
ATOM     13  O   UNL     1       7.279  14.724  17.212  0.00  0.00    +0.000 OA
ATOM     14  H   UNL     1       6.652  13.989  17.101  0.00  0.00    +0.000 HD
ENDBRANCH  12  13
ENDBRANCH  10  12
ENDBRANCH   4  10
ENDBRANCH   3   7
ENDBRANCH   1   3
BRANCH   1  15
ATOM     15  C   UNL     1       8.005   8.011  17.559  0.00  0.00    +0.000 C 
BRANCH  15  16
ATOM     16  C   UNL     1       7.108   6.892  17.956  0.00  0.00    +0.000 A 
ATOM     17  C   UNL     1       5.843   6.578  17.510  0.00  0.00    +0.000 A 
ATOM     18  N   UNL     1       5.444   5.513  18.281  0.00  0.00    +0.000 N 
ATOM     19  N   UNL     1       6.450   5.175  19.128  0.00  0.00    +0.000 NA
ATOM     20  N   UNL     1       7.462   6.012  18.940  0.00  0.00    +0.000 NA
BRANCH  18  21
ATOM     21  C   UNL     1       4.197   4.840  18.281  0.00  0.00    +0.000 A 
ATOM     22  C   UNL     1       3.863   3.948  17.252  0.00  0.00    +0.000 A 
ATOM     23  C   UNL     1       2.623   3.306  17.254  0.00  0.00    +0.000 A 
ATOM     24  C   UNL     1       1.708   3.552  18.278  0.00  0.00    +0.000 A 
ATOM     25  C   UNL     1       2.033   4.440  19.303  0.00  0.00    +0.000 A 
ATOM     26  C   UNL     1       3.272   5.085  19.307  0.00  0.00    +0.000 A 
ENDBRANCH  18  21
ENDBRANCH  15  16
ENDBRANCH   1  15
TORSDOF 8
ENDMDL
MODEL 7
REMARK VINA RESULT:      -6.9      6.641      8.702
REMARK  Name = 
REMARK  9 active torsions:
REMARK  status: ('A' for Active; 'I' for Inactive)
REMARK    1  A    between atoms: C_1  and  C_2
REMARK    2  A    between atoms: C_2  and  O_3
REMARK    3  A    between atoms: C_2  and  C_4
REMARK    4  A    between atoms: C_4  and  N_5
REMARK    5  A    between atoms: C_8  and  C_9
REMARK    6  A    between atoms: C_9  and  N_10
REMARK    7  A    between atoms: N_10  and  C_11
REMARK    8  A    between atoms: C_11  and  C_12
REMARK    9  A    between atoms: N_14  and  C_15
REMARK                            x       y       z     vdW  Elec       q    Type
REMARK                         _______ _______ _______ _____ _____    ______ ____
ROOT
ATOM      1  N   UNL     1       4.906   2.660  19.395  0.00  0.00    +0.000 NA
ATOM      2  H   UNL     1       5.711   2.098  19.116  0.00  0.00    +0.000 HD
ENDROOT
BRANCH   1   3
ATOM      3  C   UNL     1       3.764   2.334  18.539  0.00  0.00    +0.000 C 
BRANCH   3   7
ATOM      4  N   UNL     1       1.831   5.300  19.694  0.00  0.00    +0.000 NA
ATOM      5  C   UNL     1       1.674   4.665  18.376  0.00  0.00    +0.000 C 
ATOM      6  C   UNL     1       1.367   3.169  18.487  0.00  0.00    +0.000 C 
ATOM      7  C   UNL     1       2.425   2.415  19.305  0.00  0.00    +0.000 C 
ATOM      8  C   UNL     1       2.543   3.110  20.668  0.00  0.00    +0.000 C 
ATOM      9  C   UNL     1       2.831   4.606  20.527  0.00  0.00    +0.000 C 
BRANCH   4  10
ATOM     10  C   UNL     1       2.207   6.722  19.570  0.00  0.00    +0.000 C 
BRANCH  10  12
ATOM     11  C   UNL     1       1.989   8.660  17.915  0.00  0.00    +0.000 C 
ATOM     12  C   UNL     1       2.492   7.240  18.142  0.00  0.00    +0.000 C 
BRANCH  12  13
ATOM     13  O   UNL     1       3.904   7.209  17.903  0.00  0.00    +0.000 OA
ATOM     14  H   UNL     1       4.162   8.077  17.548  0.00  0.00    +0.000 HD
ENDBRANCH  12  13
ENDBRANCH  10  12
ENDBRANCH   4  10
ENDBRANCH   3   7
ENDBRANCH   1   3
BRANCH   1  15
ATOM     15  C   UNL     1       5.257   4.078  19.252  0.00  0.00    +0.000 C 
BRANCH  15  16
ATOM     16  C   UNL     1       6.007   4.283  17.983  0.00  0.00    +0.000 A 
ATOM     17  C   UNL     1       5.554   4.274  16.682  0.00  0.00    +0.000 A 
ATOM     18  N   UNL     1       6.681   4.415  15.908  0.00  0.00    +0.000 N 
ATOM     19  N   UNL     1       7.764   4.546  16.716  0.00  0.00    +0.000 NA
ATOM     20  N   UNL     1       7.363   4.461  17.979  0.00  0.00    +0.000 NA
BRANCH  18  21
ATOM     21  C   UNL     1       6.790   4.403  14.495  0.00  0.00    +0.000 A 
ATOM     22  C   UNL     1       6.036   3.505  13.725  0.00  0.00    +0.000 A 
ATOM     23  C   UNL     1       6.166   3.491  12.335  0.00  0.00    +0.000 A 
ATOM     24  C   UNL     1       7.049   4.368  11.705  0.00  0.00    +0.000 A 
ATOM     25  C   UNL     1       7.803   5.262  12.464  0.00  0.00    +0.000 A 
ATOM     26  C   UNL     1       7.677   5.282  13.855  0.00  0.00    +0.000 A 
ENDBRANCH  18  21
ENDBRANCH  15  16
ENDBRANCH   1  15
TORSDOF 8
ENDMDL
MODEL 8
REMARK VINA RESULT:      -6.9      0.977      1.148
REMARK  Name = 
REMARK  9 active torsions:
REMARK  status: ('A' for Active; 'I' for Inactive)
REMARK    1  A    between atoms: C_1  and  C_2
REMARK    2  A    between atoms: C_2  and  O_3
REMARK    3  A    between atoms: C_2  and  C_4
REMARK    4  A    between atoms: C_4  and  N_5
REMARK    5  A    between atoms: C_8  and  C_9
REMARK    6  A    between atoms: C_9  and  N_10
REMARK    7  A    between atoms: N_10  and  C_11
REMARK    8  A    between atoms: C_11  and  C_12
REMARK    9  A    between atoms: N_14  and  C_15
REMARK                            x       y       z     vdW  Elec       q    Type
REMARK                         _______ _______ _______ _____ _____    ______ ____
ROOT
ATOM      1  N   UNL     1       8.634   8.585  18.692  0.00  0.00    +0.000 NA
ATOM      2  H   UNL     1       8.130   8.340  19.546  0.00  0.00    +0.000 HD
ENDROOT
BRANCH   1   3
ATOM      3  C   UNL     1       8.686  10.043  18.559  0.00  0.00    +0.000 C 
BRANCH   3   7
ATOM      4  N   UNL     1       9.629  13.533  19.449  0.00  0.00    +0.000 NA
ATOM      5  C   UNL     1       9.081  12.551  20.398  0.00  0.00    +0.000 C 
ATOM      6  C   UNL     1       9.900  11.257  20.428  0.00  0.00    +0.000 C 
ATOM      7  C   UNL     1      10.036  10.619  19.038  0.00  0.00    +0.000 C 
ATOM      8  C   UNL     1      10.617  11.679  18.093  0.00  0.00    +0.000 C 
ATOM      9  C   UNL     1       9.790  12.967  18.097  0.00  0.00    +0.000 C 
BRANCH   4  10
ATOM     10  C   UNL     1       8.783  14.741  19.370  0.00  0.00    +0.000 C 
BRANCH  10  12
ATOM     11  C   UNL     1       8.262  17.007  18.305  0.00  0.00    +0.000 C 
ATOM     12  C   UNL     1       9.235  15.837  18.379  0.00  0.00    +0.000 C 
BRANCH  12  13
ATOM     13  O   UNL     1      10.518  16.333  18.778  0.00  0.00    +0.000 OA
ATOM     14  H   UNL     1      11.058  15.570  19.048  0.00  0.00    +0.000 HD
ENDBRANCH  12  13
ENDBRANCH  10  12
ENDBRANCH   4  10
ENDBRANCH   3   7
ENDBRANCH   1   3
BRANCH   1  15
ATOM     15  C   UNL     1       7.924   7.998  17.549  0.00  0.00    +0.000 C 
BRANCH  15  16
ATOM     16  C   UNL     1       7.243   6.745  17.972  0.00  0.00    +0.000 A 
ATOM     17  C   UNL     1       6.064   6.190  17.524  0.00  0.00    +0.000 A 
ATOM     18  N   UNL     1       5.858   5.091  18.323  0.00  0.00    +0.000 N 
ATOM     19  N   UNL     1       6.896   4.968  19.188  0.00  0.00    +0.000 NA
ATOM     20  N   UNL     1       7.740   5.972  18.984  0.00  0.00    +0.000 NA
BRANCH  18  21
ATOM     21  C   UNL     1       4.755   4.200  18.332  0.00  0.00    +0.000 A 
ATOM     22  C   UNL     1       4.586   3.280  19.377  0.00  0.00    +0.000 A 
ATOM     23  C   UNL     1       3.506   2.395  19.364  0.00  0.00    +0.000 A 
ATOM     24  C   UNL     1       2.592   2.420  18.311  0.00  0.00    +0.000 A 
ATOM     25  C   UNL     1       2.755   3.331  17.268  0.00  0.00    +0.000 A 
ATOM     26  C   UNL     1       3.833   4.220  17.275  0.00  0.00    +0.000 A 
ENDBRANCH  18  21
ENDBRANCH  15  16
ENDBRANCH   1  15
TORSDOF 8
ENDMDL
MODEL 9
REMARK VINA RESULT:      -6.9      1.507      2.112
REMARK  Name = 
REMARK  9 active torsions:
REMARK  status: ('A' for Active; 'I' for Inactive)
REMARK    1  A    between atoms: C_1  and  C_2
REMARK    2  A    between atoms: C_2  and  O_3
REMARK    3  A    between atoms: C_2  and  C_4
REMARK    4  A    between atoms: C_4  and  N_5
REMARK    5  A    between atoms: C_8  and  C_9
REMARK    6  A    between atoms: C_9  and  N_10
REMARK    7  A    between atoms: N_10  and  C_11
REMARK    8  A    between atoms: C_11  and  C_12
REMARK    9  A    between atoms: N_14  and  C_15
REMARK                            x       y       z     vdW  Elec       q    Type
REMARK                         _______ _______ _______ _____ _____    ______ ____
ROOT
ATOM      1  N   UNL     1       9.426   9.707  19.469  0.00  0.00    +0.000 NA
ATOM      2  H   UNL     1       8.987   9.215  20.249  0.00  0.00    +0.000 HD
ENDROOT
BRANCH   1   3
ATOM      3  C   UNL     1       9.688  11.095  19.856  0.00  0.00    +0.000 C 
BRANCH   3   7
ATOM      4  N   UNL     1      10.722  14.295  18.258  0.00  0.00    +0.000 NA
ATOM      5  C   UNL     1      10.675  14.067  19.710  0.00  0.00    +0.000 C 
ATOM      6  C   UNL     1      11.502  12.849  20.132  0.00  0.00    +0.000 C 
ATOM      7  C   UNL     1      11.081  11.572  19.390  0.00  0.00    +0.000 C 
ATOM      8  C   UNL     1      11.156  11.861  17.885  0.00  0.00    +0.000 C 
ATOM      9  C   UNL     1      10.337  13.093  17.495  0.00  0.00    +0.000 C 
BRANCH   4  10
ATOM     10  C   UNL     1       9.856  15.421  17.857  0.00  0.00    +0.000 C 
BRANCH  10  12
ATOM     11  C   UNL     1      11.844  16.991  17.503  0.00  0.00    +0.000 C 
ATOM     12  C   UNL     1      10.502  16.509  16.968  0.00  0.00    +0.000 C 
BRANCH  12  13
ATOM     13  O   UNL     1      10.695  15.984  15.649  0.00  0.00    +0.000 OA
ATOM     14  H   UNL     1      11.640  16.068  15.434  0.00  0.00    +0.000 HD
ENDBRANCH  12  13
ENDBRANCH  10  12
ENDBRANCH   4  10
ENDBRANCH   3   7
ENDBRANCH   1   3
BRANCH   1  15
ATOM     15  C   UNL     1       8.515   9.665  18.320  0.00  0.00    +0.000 C 
BRANCH  15  16
ATOM     16  C   UNL     1       8.105   8.260  18.055  0.00  0.00    +0.000 A 
ATOM     17  C   UNL     1       7.371   7.738  17.012  0.00  0.00    +0.000 A 
ATOM     18  N   UNL     1       7.205   6.409  17.319  0.00  0.00    +0.000 N 
ATOM     19  N   UNL     1       7.852   6.135  18.480  0.00  0.00    +0.000 NA
ATOM     20  N   UNL     1       8.397   7.256  18.937  0.00  0.00    +0.000 NA
BRANCH  18  21
ATOM     21  C   UNL     1       6.469   5.425  16.613  0.00  0.00    +0.000 A 
ATOM     22  C   UNL     1       5.300   4.875  17.159  0.00  0.00    +0.000 A 
ATOM     23  C   UNL     1       4.594   3.893  16.461  0.00  0.00    +0.000 A 
ATOM     24  C   UNL     1       5.049   3.452  15.219  0.00  0.00    +0.000 A 
ATOM     25  C   UNL     1       6.211   3.992  14.671  0.00  0.00    +0.000 A 
ATOM     26  C   UNL     1       6.922   4.976  15.363  0.00  0.00    +0.000 A 
ENDBRANCH  18  21
ENDBRANCH  15  16
ENDBRANCH   1  15
TORSDOF 8
ENDMDL
