MODEL 1
REMARK VINA RESULT:      -7.6      0.000      0.000
REMARK  Name = 
REMARK  13 active torsions:
REMARK  status: ('A' for Active; 'I' for Inactive)
REMARK    1  A    between atoms: C_1  and  C_2
REMARK    2  A    between atoms: N_4  and  C_5
REMARK    3  A    between atoms: C_5  and  C_6
REMARK    4  A    between atoms: C_5  and  C_7
REMARK    5  A    between atoms: C_10  and  O_11
REMARK    6  A    between atoms: O_11  and  C_12
REMARK    7  A    between atoms: N_15  and  C_16
REMARK    8  A    between atoms: C_20  and  O_21
REMARK    9  A    between atoms: O_21  and  C_22
REMARK   10  A    between atoms: C_22  and  C_23
REMARK   11  A    between atoms: C_23  and  C_24
REMARK   12  A    between atoms: C_23  and  C_25
REMARK   13  A    between atoms: C_23  and  O_26
REMARK                            x       y       z     vdW  Elec       q    Type
REMARK                         _______ _______ _______ _____ _____    ______ ____
ROOT
ATOM      1  C   UNL     1       2.707   6.103  18.614  0.00  0.00    +0.000 C 
ATOM      2  C   UNL     1       2.268   7.129  17.577  0.00  0.00    +0.000 C 
ATOM      3  C   UNL     1       2.210   8.456  18.331  0.00  0.00    +0.000 C 
ATOM      4  N   UNL     1       1.916   8.102  19.720  0.00  0.00    +0.000 N 
ATOM      5  C   UNL     1       2.125   6.660  19.931  0.00  0.00    +0.000 C 
ENDROOT
BRANCH   4   6
ATOM      6  C   UNL     1       1.133   8.854  20.590  0.00  0.00    +0.000 A 
ATOM      7  C   UNL     1       1.163   8.588  21.970  0.00  0.00    +0.000 A 
ATOM      8  C   UNL     1       0.413   9.343  22.861  0.00  0.00    +0.000 A 
ATOM      9  N   UNL     1      -0.376  10.360  22.496  0.00  0.00    +0.000 NA
ATOM     10  C   UNL     1      -0.441  10.629  21.172  0.00  0.00    +0.000 A 
ATOM     11  C   UNL     1       0.268   9.910  20.193  0.00  0.00    +0.000 A 
ATOM     12 CL   UNL     1      -0.047  10.287  18.526  0.00  0.00    +0.000 Cl
BRANCH  10  13
ATOM     13  O   UNL     1      -1.267  11.674  20.772  0.00  0.00    +0.000 OA
BRANCH  13  14
ATOM     14  C   UNL     1      -0.754  12.958  21.163  0.00  0.00    +0.000 C 
BRANCH  14  15
ATOM     15  C   UNL     1      -0.944  13.987  20.032  0.00  0.00    +0.000 C 
ATOM     16  C   UNL     1      -1.744  15.205  20.491  0.00  0.00    +0.000 C 
ATOM     17  C   UNL     1       0.426  14.415  19.502  0.00  0.00    +0.000 C 
BRANCH  15  18
ATOM     18  O   UNL     1      -1.656  13.379  18.945  0.00  0.00    +0.000 OA
ATOM     19  H   UNL     1      -1.671  14.035  18.225  0.00  0.00    +0.000 HD
ENDBRANCH  15  18
ENDBRANCH  14  15
ENDBRANCH  13  14
ENDBRANCH  10  13
ENDBRANCH   4   6
BRANCH   1  20
ATOM     20  O   UNL     1       4.142   6.028  18.604  0.00  0.00    +0.000 OA
BRANCH  20  24
ATOM     21  C   UNL     1       5.746   4.481  15.046  0.00  0.00    +0.000 A 
ATOM     22  C   UNL     1       5.350   3.657  16.109  0.00  0.00    +0.000 A 
ATOM     23  C   UNL     1       4.841   4.211  17.293  0.00  0.00    +0.000 A 
ATOM     24  C   UNL     1       4.735   5.596  17.446  0.00  0.00    +0.000 A 
ATOM     25  C   UNL     1       5.168   6.421  16.410  0.00  0.00    +0.000 A 
ATOM     26  C   UNL     1       5.664   5.870  15.223  0.00  0.00    +0.000 A 
BRANCH  21  27
ATOM     27  C   UNL     1       6.172   3.879  13.717  0.00  0.00    +0.000 C 
ATOM     28  C   UNL     1       7.354   4.625  13.094  0.00  0.00    +0.000 C 
BRANCH  27  32
ATOM     29  C   UNL     1       3.663   3.189  10.959  0.00  0.00    +0.000 C 
ATOM     30  C   UNL     1       4.916   2.984  11.766  0.00  0.00    +0.000 C 
ATOM     31  O   UNL     1       5.736   2.110  11.513  0.00  0.00    +0.000 OA
ATOM     32  N   UNL     1       5.033   3.870  12.810  0.00  0.00    +0.000 N 
ATOM     33  H   UNL     1       4.334   4.594  12.912  0.00  0.00    +0.000 HD
ENDBRANCH  27  32
ENDBRANCH  21  27
ENDBRANCH  20  24
ENDBRANCH   1  20
TORSDOF 9
ENDMDL
MODEL 2
REMARK VINA RESULT:      -7.5      2.562     10.623
REMARK  Name = 
REMARK  13 active torsions:
REMARK  status: ('A' for Active; 'I' for Inactive)
REMARK    1  A    between atoms: C_1  and  C_2
REMARK    2  A    between atoms: N_4  and  C_5
REMARK    3  A    between atoms: C_5  and  C_6
REMARK    4  A    between atoms: C_5  and  C_7
REMARK    5  A    between atoms: C_10  and  O_11
REMARK    6  A    between atoms: O_11  and  C_12
REMARK    7  A    between atoms: N_15  and  C_16
REMARK    8  A    between atoms: C_20  and  O_21
REMARK    9  A    between atoms: O_21  and  C_22
REMARK   10  A    between atoms: C_22  and  C_23
REMARK   11  A    between atoms: C_23  and  C_24
REMARK   12  A    between atoms: C_23  and  C_25
REMARK   13  A    between atoms: C_23  and  O_26
REMARK                            x       y       z     vdW  Elec       q    Type
REMARK                         _______ _______ _______ _____ _____    ______ ____
ROOT
ATOM      1  C   UNL     1       2.311   7.077  18.524  0.00  0.00    +0.000 C 
ATOM      2  C   UNL     1       2.264   5.726  19.225  0.00  0.00    +0.000 C 
ATOM      3  C   UNL     1       3.724   5.358  19.480  0.00  0.00    +0.000 C 
ATOM      4  N   UNL     1       4.482   6.019  18.417  0.00  0.00    +0.000 N 
ATOM      5  C   UNL     1       3.643   7.024  17.744  0.00  0.00    +0.000 C 
ENDROOT
BRANCH   4   6
ATOM      6  C   UNL     1       5.623   5.505  17.809  0.00  0.00    +0.000 A 
ATOM      7  C   UNL     1       6.711   5.087  18.597  0.00  0.00    +0.000 A 
ATOM      8  C   UNL     1       7.848   4.545  18.016  0.00  0.00    +0.000 A 
ATOM      9  N   UNL     1       8.002   4.373  16.697  0.00  0.00    +0.000 NA
ATOM     10  C   UNL     1       6.981   4.782  15.912  0.00  0.00    +0.000 A 
ATOM     11  C   UNL     1       5.797   5.358  16.407  0.00  0.00    +0.000 A 
ATOM     12 CL   UNL     1       4.651   5.968  15.251  0.00  0.00    +0.000 Cl
BRANCH  10  13
ATOM     13  O   UNL     1       7.129   4.625  14.538  0.00  0.00    +0.000 OA
BRANCH  13  14
ATOM     14  C   UNL     1       6.224   3.648  13.998  0.00  0.00    +0.000 C 
BRANCH  14  15
ATOM     15  C   UNL     1       6.324   3.605  12.460  0.00  0.00    +0.000 C 
ATOM     16  C   UNL     1       4.952   3.674  11.792  0.00  0.00    +0.000 C 
ATOM     17  C   UNL     1       7.212   4.754  11.979  0.00  0.00    +0.000 C 
BRANCH  15  18
ATOM     18  O   UNL     1       6.949   2.379  12.055  0.00  0.00    +0.000 OA
ATOM     19  H   UNL     1       6.230   1.736  11.919  0.00  0.00    +0.000 HD
ENDBRANCH  15  18
ENDBRANCH  14  15
ENDBRANCH  13  14
ENDBRANCH  10  13
ENDBRANCH   4   6
BRANCH   1  20
ATOM     20  O   UNL     1       2.267   8.111  19.520  0.00  0.00    +0.000 OA
BRANCH  20  24
ATOM     21  C   UNL     1      -0.758  11.023  19.499  0.00  0.00    +0.000 A 
ATOM     22  C   UNL     1      -0.411  10.312  20.657  0.00  0.00    +0.000 A 
ATOM     23  C   UNL     1       0.589   9.329  20.620  0.00  0.00    +0.000 A 
ATOM     24  C   UNL     1       1.247   9.023  19.426  0.00  0.00    +0.000 A 
ATOM     25  C   UNL     1       0.874   9.694  18.263  0.00  0.00    +0.000 A 
ATOM     26  C   UNL     1      -0.114  10.684  18.300  0.00  0.00    +0.000 A 
BRANCH  21  27
ATOM     27  C   UNL     1      -1.745  12.177  19.565  0.00  0.00    +0.000 C 
ATOM     28  C   UNL     1      -3.075  11.842  18.886  0.00  0.00    +0.000 C 
BRANCH  27  32
ATOM     29  C   UNL     1       0.060  15.432  18.845  0.00  0.00    +0.000 C 
ATOM     30  C   UNL     1      -0.448  14.294  19.689  0.00  0.00    +0.000 C 
ATOM     31  O   UNL     1      -0.250  14.219  20.895  0.00  0.00    +0.000 OA
ATOM     32  N   UNL     1      -1.141  13.357  18.962  0.00  0.00    +0.000 N 
ATOM     33  H   UNL     1      -1.303  13.527  17.979  0.00  0.00    +0.000 HD
ENDBRANCH  27  32
ENDBRANCH  21  27
ENDBRANCH  20  24
ENDBRANCH   1  20
TORSDOF 9
ENDMDL
MODEL 3
REMARK VINA RESULT:      -7.4      2.951     11.209
REMARK  Name = 
REMARK  13 active torsions:
REMARK  status: ('A' for Active; 'I' for Inactive)
REMARK    1  A    between atoms: C_1  and  C_2
REMARK    2  A    between atoms: N_4  and  C_5
REMARK    3  A    between atoms: C_5  and  C_6
REMARK    4  A    between atoms: C_5  and  C_7
REMARK    5  A    between atoms: C_10  and  O_11
REMARK    6  A    between atoms: O_11  and  C_12
REMARK    7  A    between atoms: N_15  and  C_16
REMARK    8  A    between atoms: C_20  and  O_21
REMARK    9  A    between atoms: O_21  and  C_22
REMARK   10  A    between atoms: C_22  and  C_23
REMARK   11  A    between atoms: C_23  and  C_24
REMARK   12  A    between atoms: C_23  and  C_25
REMARK   13  A    between atoms: C_23  and  O_26
REMARK                            x       y       z     vdW  Elec       q    Type
REMARK                         _______ _______ _______ _____ _____    ______ ____
ROOT
ATOM      1  C   UNL     1       1.038  10.210  19.571  0.00  0.00    +0.000 C 
ATOM      2  C   UNL     1       1.817  10.168  18.262  0.00  0.00    +0.000 C 
ATOM      3  C   UNL     1       1.836   8.696  17.857  0.00  0.00    +0.000 C 
ATOM      4  N   UNL     1       1.752   7.947  19.112  0.00  0.00    +0.000 N 
ATOM      5  C   UNL     1       1.347   8.839  20.210  0.00  0.00    +0.000 C 
ENDROOT
BRANCH   4   6
ATOM      6  C   UNL     1       2.382   6.731  19.362  0.00  0.00    +0.000 A 
ATOM      7  C   UNL     1       1.869   5.864  20.343  0.00  0.00    +0.000 A 
ATOM      8  C   UNL     1       2.463   4.634  20.591  0.00  0.00    +0.000 A 
ATOM      9  N   UNL     1       3.538   4.180  19.936  0.00  0.00    +0.000 NA
ATOM     10  C   UNL     1       4.066   5.000  18.999  0.00  0.00    +0.000 A 
ATOM     11  C   UNL     1       3.545   6.269  18.689  0.00  0.00    +0.000 A 
ATOM     12 CL   UNL     1       4.435   7.256  17.569  0.00  0.00    +0.000 Cl
BRANCH  10  13
ATOM     13  O   UNL     1       5.192   4.550  18.318  0.00  0.00    +0.000 OA
BRANCH  13  14
ATOM     14  C   UNL     1       4.867   3.974  17.043  0.00  0.00    +0.000 C 
BRANCH  14  15
ATOM     15  C   UNL     1       6.009   4.207  16.034  0.00  0.00    +0.000 C 
ATOM     16  C   UNL     1       5.682   5.321  15.042  0.00  0.00    +0.000 C 
ATOM     17  C   UNL     1       7.298   4.528  16.794  0.00  0.00    +0.000 C 
BRANCH  15  18
ATOM     18  O   UNL     1       6.239   3.006  15.285  0.00  0.00    +0.000 OA
ATOM     19  H   UNL     1       5.625   3.031  14.529  0.00  0.00    +0.000 HD
ENDBRANCH  15  18
ENDBRANCH  14  15
ENDBRANCH  13  14
ENDBRANCH  10  13
ENDBRANCH   4   6
BRANCH   1  20
ATOM     20  O   UNL     1      -0.353  10.405  19.269  0.00  0.00    +0.000 OA
BRANCH  20  24
ATOM     21  C   UNL     1      -2.819  12.701  21.774  0.00  0.00    +0.000 A 
ATOM     22  C   UNL     1      -2.984  12.674  20.381  0.00  0.00    +0.000 A 
ATOM     23  C   UNL     1      -2.125  11.914  19.574  0.00  0.00    +0.000 A 
ATOM     24  C   UNL     1      -1.076  11.182  20.137  0.00  0.00    +0.000 A 
ATOM     25  C   UNL     1      -0.880  11.241  21.515  0.00  0.00    +0.000 A 
ATOM     26  C   UNL     1      -1.743  11.989  22.324  0.00  0.00    +0.000 A 
BRANCH  21  27
ATOM     27  C   UNL     1      -3.827  13.416  22.659  0.00  0.00    +0.000 C 
ATOM     28  C   UNL     1      -3.303  13.627  24.081  0.00  0.00    +0.000 C 
BRANCH  27  32
ATOM     29  C   UNL     1      -7.389  12.172  22.280  0.00  0.00    +0.000 C 
ATOM     30  C   UNL     1      -6.236  13.126  22.116  0.00  0.00    +0.000 C 
ATOM     31  O   UNL     1      -6.337  14.200  21.537  0.00  0.00    +0.000 OA
ATOM     32  N   UNL     1      -5.071  12.659  22.674  0.00  0.00    +0.000 N 
ATOM     33  H   UNL     1      -5.092  11.784  23.180  0.00  0.00    +0.000 HD
ENDBRANCH  27  32
ENDBRANCH  21  27
ENDBRANCH  20  24
ENDBRANCH   1  20
TORSDOF 9
ENDMDL
MODEL 4
REMARK VINA RESULT:      -7.4      1.081      1.278
REMARK  Name = 
REMARK  13 active torsions:
REMARK  status: ('A' for Active; 'I' for Inactive)
REMARK    1  A    between atoms: C_1  and  C_2
REMARK    2  A    between atoms: N_4  and  C_5
REMARK    3  A    between atoms: C_5  and  C_6
REMARK    4  A    between atoms: C_5  and  C_7
REMARK    5  A    between atoms: C_10  and  O_11
REMARK    6  A    between atoms: O_11  and  C_12
REMARK    7  A    between atoms: N_15  and  C_16
REMARK    8  A    between atoms: C_20  and  O_21
REMARK    9  A    between atoms: O_21  and  C_22
REMARK   10  A    between atoms: C_22  and  C_23
REMARK   11  A    between atoms: C_23  and  C_24
REMARK   12  A    between atoms: C_23  and  C_25
REMARK   13  A    between atoms: C_23  and  O_26
REMARK                            x       y       z     vdW  Elec       q    Type
REMARK                         _______ _______ _______ _____ _____    ______ ____
ROOT
ATOM      1  C   UNL     1       2.705   5.863  19.091  0.00  0.00    +0.000 C 
ATOM      2  C   UNL     1       2.377   6.754  17.900  0.00  0.00    +0.000 C 
ATOM      3  C   UNL     1       2.305   8.169  18.469  0.00  0.00    +0.000 C 
ATOM      4  N   UNL     1       1.898   8.006  19.865  0.00  0.00    +0.000 N 
ATOM      5  C   UNL     1       2.044   6.600  20.276  0.00  0.00    +0.000 C 
ENDROOT
BRANCH   4   6
ATOM      6  C   UNL     1       1.077   8.883  20.567  0.00  0.00    +0.000 A 
ATOM      7  C   UNL     1       0.500   8.482  21.785  0.00  0.00    +0.000 A 
ATOM      8  C   UNL     1      -0.299   9.348  22.518  0.00  0.00    +0.000 A 
ATOM      9  N   UNL     1      -0.578  10.602  22.143  0.00  0.00    +0.000 NA
ATOM     10  C   UNL     1      -0.053  11.011  20.966  0.00  0.00    +0.000 A 
ATOM     11  C   UNL     1       0.754  10.202  20.147  0.00  0.00    +0.000 A 
ATOM     12 CL   UNL     1       1.219  10.831  18.595  0.00  0.00    +0.000 Cl
BRANCH  10  13
ATOM     13  O   UNL     1      -0.344  12.308  20.553  0.00  0.00    +0.000 OA
BRANCH  13  14
ATOM     14  C   UNL     1       0.449  13.291  21.238  0.00  0.00    +0.000 C 
BRANCH  14  15
ATOM     15  C   UNL     1       0.522  14.596  20.420  0.00  0.00    +0.000 C 
ATOM     16  C   UNL     1       1.363  14.435  19.154  0.00  0.00    +0.000 C 
ATOM     17  C   UNL     1      -0.895  15.051  20.066  0.00  0.00    +0.000 C 
BRANCH  15  18
ATOM     18  O   UNL     1       1.120  15.628  21.216  0.00  0.00    +0.000 OA
ATOM     19  H   UNL     1       1.007  15.358  22.146  0.00  0.00    +0.000 HD
ENDBRANCH  15  18
ENDBRANCH  14  15
ENDBRANCH  13  14
ENDBRANCH  10  13
ENDBRANCH   4   6
BRANCH   1  20
ATOM     20  O   UNL     1       4.133   5.755  19.203  0.00  0.00    +0.000 OA
BRANCH  20  24
ATOM     21  C   UNL     1       5.967   4.513  15.636  0.00  0.00    +0.000 A 
ATOM     22  C   UNL     1       5.029   3.719  16.312  0.00  0.00    +0.000 A 
ATOM     23  C   UNL     1       4.455   4.157  17.514  0.00  0.00    +0.000 A 
ATOM     24  C   UNL     1       4.819   5.384  18.075  0.00  0.00    +0.000 A 
ATOM     25  C   UNL     1       5.784   6.157  17.431  0.00  0.00    +0.000 A 
ATOM     26  C   UNL     1       6.348   5.728  16.224  0.00  0.00    +0.000 A 
BRANCH  21  27
ATOM     27  C   UNL     1       6.488   4.100  14.269  0.00  0.00    +0.000 C 
ATOM     28  C   UNL     1       7.507   5.098  13.712  0.00  0.00    +0.000 C 
BRANCH  27  32
ATOM     29  C   UNL     1       4.164   3.248  11.397  0.00  0.00    +0.000 C 
ATOM     30  C   UNL     1       5.450   3.243  12.179  0.00  0.00    +0.000 C 
ATOM     31  O   UNL     1       6.459   2.663  11.798  0.00  0.00    +0.000 OA
ATOM     32  N   UNL     1       5.364   3.947  13.356  0.00  0.00    +0.000 N 
ATOM     33  H   UNL     1       4.507   4.440  13.565  0.00  0.00    +0.000 HD
ENDBRANCH  27  32
ENDBRANCH  21  27
ENDBRANCH  20  24
ENDBRANCH   1  20
TORSDOF 9
ENDMDL
MODEL 5
REMARK VINA RESULT:      -7.3      1.153      1.410
REMARK  Name = 
REMARK  13 active torsions:
REMARK  status: ('A' for Active; 'I' for Inactive)
REMARK    1  A    between atoms: C_1  and  C_2
REMARK    2  A    between atoms: N_4  and  C_5
REMARK    3  A    between atoms: C_5  and  C_6
REMARK    4  A    between atoms: C_5  and  C_7
REMARK    5  A    between atoms: C_10  and  O_11
REMARK    6  A    between atoms: O_11  and  C_12
REMARK    7  A    between atoms: N_15  and  C_16
REMARK    8  A    between atoms: C_20  and  O_21
REMARK    9  A    between atoms: O_21  and  C_22
REMARK   10  A    between atoms: C_22  and  C_23
REMARK   11  A    between atoms: C_23  and  C_24
REMARK   12  A    between atoms: C_23  and  C_25
REMARK   13  A    between atoms: C_23  and  O_26
REMARK                            x       y       z     vdW  Elec       q    Type
REMARK                         _______ _______ _______ _____ _____    ______ ____
ROOT
ATOM      1  C   UNL     1       2.397   5.212  19.428  0.00  0.00    +0.000 C 
ATOM      2  C   UNL     1       2.301   6.070  18.173  0.00  0.00    +0.000 C 
ATOM      3  C   UNL     1       2.488   7.507  18.657  0.00  0.00    +0.000 C 
ATOM      4  N   UNL     1       2.001   7.518  20.037  0.00  0.00    +0.000 N 
ATOM      5  C   UNL     1       1.849   6.141  20.533  0.00  0.00    +0.000 C 
ENDROOT
BRANCH   4   6
ATOM      6  C   UNL     1       1.342   8.583  20.644  0.00  0.00    +0.000 A 
ATOM      7  C   UNL     1       1.222   8.627  22.045  0.00  0.00    +0.000 A 
ATOM      8  C   UNL     1       0.595   9.692  22.676  0.00  0.00    +0.000 A 
ATOM      9  N   UNL     1       0.071  10.739  22.028  0.00  0.00    +0.000 NA
ATOM     10  C   UNL     1       0.153  10.716  20.678  0.00  0.00    +0.000 A 
ATOM     11  C   UNL     1       0.755   9.674  19.950  0.00  0.00    +0.000 A 
ATOM     12 CL   UNL     1       0.639   9.729  18.216  0.00  0.00    +0.000 Cl
BRANCH  10  13
ATOM     13  O   UNL     1      -0.399  11.789  19.986  0.00  0.00    +0.000 OA
BRANCH  13  14
ATOM     14  C   UNL     1      -0.509  12.967  20.800  0.00  0.00    +0.000 C 
BRANCH  14  15
ATOM     15  C   UNL     1      -1.922  13.574  20.691  0.00  0.00    +0.000 C 
ATOM     16  C   UNL     1      -2.929  12.584  20.108  0.00  0.00    +0.000 C 
ATOM     17  C   UNL     1      -2.377  14.049  22.072  0.00  0.00    +0.000 C 
BRANCH  15  18
ATOM     18  O   UNL     1      -1.885  14.721  19.831  0.00  0.00    +0.000 OA
ATOM     19  H   UNL     1      -2.813  14.953  19.642  0.00  0.00    +0.000 HD
ENDBRANCH  15  18
ENDBRANCH  14  15
ENDBRANCH  13  14
ENDBRANCH  10  13
ENDBRANCH   4   6
BRANCH   1  20
ATOM     20  O   UNL     1       3.770   4.835  19.620  0.00  0.00    +0.000 OA
BRANCH  20  24
ATOM     21  C   UNL     1       5.788   4.142  16.004  0.00  0.00    +0.000 A 
ATOM     22  C   UNL     1       4.525   3.594  16.275  0.00  0.00    +0.000 A 
ATOM     23  C   UNL     1       3.892   3.828  17.504  0.00  0.00    +0.000 A 
ATOM     24  C   UNL     1       4.513   4.595  18.494  0.00  0.00    +0.000 A 
ATOM     25  C   UNL     1       5.787   5.105  18.248  0.00  0.00    +0.000 A 
ATOM     26  C   UNL     1       6.415   4.884  17.016  0.00  0.00    +0.000 A 
BRANCH  21  27
ATOM     27  C   UNL     1       6.414   3.999  14.627  0.00  0.00    +0.000 C 
ATOM     28  C   UNL     1       7.294   5.198  14.263  0.00  0.00    +0.000 C 
BRANCH  27  32
ATOM     29  C   UNL     1       4.350   3.250  11.536  0.00  0.00    +0.000 C 
ATOM     30  C   UNL     1       5.595   3.325  12.379  0.00  0.00    +0.000 C 
ATOM     31  O   UNL     1       6.697   2.974  11.973  0.00  0.00    +0.000 OA
ATOM     32  N   UNL     1       5.360   3.816  13.639  0.00  0.00    +0.000 N 
ATOM     33  H   UNL     1       4.428   4.132  13.871  0.00  0.00    +0.000 HD
ENDBRANCH  27  32
ENDBRANCH  21  27
ENDBRANCH  20  24
ENDBRANCH   1  20
TORSDOF 9
ENDMDL
MODEL 6
REMARK VINA RESULT:      -7.3      2.881     10.589
REMARK  Name = 
REMARK  13 active torsions:
REMARK  status: ('A' for Active; 'I' for Inactive)
REMARK    1  A    between atoms: C_1  and  C_2
REMARK    2  A    between atoms: N_4  and  C_5
REMARK    3  A    between atoms: C_5  and  C_6
REMARK    4  A    between atoms: C_5  and  C_7
REMARK    5  A    between atoms: C_10  and  O_11
REMARK    6  A    between atoms: O_11  and  C_12
REMARK    7  A    between atoms: N_15  and  C_16
REMARK    8  A    between atoms: C_20  and  O_21
REMARK    9  A    between atoms: O_21  and  C_22
REMARK   10  A    between atoms: C_22  and  C_23
REMARK   11  A    between atoms: C_23  and  C_24
REMARK   12  A    between atoms: C_23  and  C_25
REMARK   13  A    between atoms: C_23  and  O_26
REMARK                            x       y       z     vdW  Elec       q    Type
REMARK                         _______ _______ _______ _____ _____    ______ ____
ROOT
ATOM      1  C   UNL     1       0.613  10.340  19.467  0.00  0.00    +0.000 C 
ATOM      2  C   UNL     1       0.161   9.832  20.830  0.00  0.00    +0.000 C 
ATOM      3  C   UNL     1       1.207   8.796  21.235  0.00  0.00    +0.000 C 
ATOM      4  N   UNL     1       1.727   8.257  19.979  0.00  0.00    +0.000 N 
ATOM      5  C   UNL     1       1.327   9.117  18.853  0.00  0.00    +0.000 C 
ENDROOT
BRANCH   4   6
ATOM      6  C   UNL     1       2.125   6.939  19.777  0.00  0.00    +0.000 A 
ATOM      7  C   UNL     1       1.692   5.932  20.659  0.00  0.00    +0.000 A 
ATOM      8  C   UNL     1       2.053   4.606  20.462  0.00  0.00    +0.000 A 
ATOM      9  N   UNL     1       2.815   4.183  19.447  0.00  0.00    +0.000 NA
ATOM     10  C   UNL     1       3.262   5.131  18.592  0.00  0.00    +0.000 A 
ATOM     11  C   UNL     1       2.965   6.500  18.718  0.00  0.00    +0.000 A 
ATOM     12 CL   UNL     1       3.746   7.600  17.623  0.00  0.00    +0.000 Cl
BRANCH  10  13
ATOM     13  O   UNL     1       4.068   4.712  17.538  0.00  0.00    +0.000 OA
BRANCH  13  14
ATOM     14  C   UNL     1       5.452   4.619  17.911  0.00  0.00    +0.000 C 
BRANCH  14  15
ATOM     15  C   UNL     1       6.359   5.081  16.753  0.00  0.00    +0.000 C 
ATOM     16  C   UNL     1       5.566   5.363  15.478  0.00  0.00    +0.000 C 
ATOM     17  C   UNL     1       7.137   6.325  17.186  0.00  0.00    +0.000 C 
BRANCH  15  18
ATOM     18  O   UNL     1       7.317   4.055  16.456  0.00  0.00    +0.000 OA
ATOM     19  H   UNL     1       6.987   3.592  15.664  0.00  0.00    +0.000 HD
ENDBRANCH  15  18
ENDBRANCH  14  15
ENDBRANCH  13  14
ENDBRANCH  10  13
ENDBRANCH   4   6
BRANCH   1  20
ATOM     20  O   UNL     1       1.475  11.472  19.664  0.00  0.00    +0.000 OA
BRANCH  20  24
ATOM     21  C   UNL     1      -0.036  15.389  19.582  0.00  0.00    +0.000 A 
ATOM     22  C   UNL     1       1.084  15.034  20.348  0.00  0.00    +0.000 A 
ATOM     23  C   UNL     1       1.546  13.709  20.370  0.00  0.00    +0.000 A 
ATOM     24  C   UNL     1       0.890  12.712  19.644  0.00  0.00    +0.000 A 
ATOM     25  C   UNL     1      -0.250  13.050  18.917  0.00  0.00    +0.000 A 
ATOM     26  C   UNL     1      -0.705  14.373  18.883  0.00  0.00    +0.000 A 
BRANCH  21  27
ATOM     27  C   UNL     1      -0.456  16.844  19.453  0.00  0.00    +0.000 C 
ATOM     28  C   UNL     1      -1.908  17.068  19.881  0.00  0.00    +0.000 C 
BRANCH  27  32
ATOM     29  C   UNL     1       0.813  18.366  16.220  0.00  0.00    +0.000 C 
ATOM     30  C   UNL     1       0.838  18.018  17.685  0.00  0.00    +0.000 C 
ATOM     31  O   UNL     1       1.745  18.358  18.435  0.00  0.00    +0.000 OA
ATOM     32  N   UNL     1      -0.251  17.280  18.078  0.00  0.00    +0.000 N 
ATOM     33  H   UNL     1      -0.979  17.090  17.403  0.00  0.00    +0.000 HD
ENDBRANCH  27  32
ENDBRANCH  21  27
ENDBRANCH  20  24
ENDBRANCH   1  20
TORSDOF 9
ENDMDL
MODEL 7
REMARK VINA RESULT:      -7.3      1.772      2.471
REMARK  Name = 
REMARK  13 active torsions:
REMARK  status: ('A' for Active; 'I' for Inactive)
REMARK    1  A    between atoms: C_1  and  C_2
REMARK    2  A    between atoms: N_4  and  C_5
REMARK    3  A    between atoms: C_5  and  C_6
REMARK    4  A    between atoms: C_5  and  C_7
REMARK    5  A    between atoms: C_10  and  O_11
REMARK    6  A    between atoms: O_11  and  C_12
REMARK    7  A    between atoms: N_15  and  C_16
REMARK    8  A    between atoms: C_20  and  O_21
REMARK    9  A    between atoms: O_21  and  C_22
REMARK   10  A    between atoms: C_22  and  C_23
REMARK   11  A    between atoms: C_23  and  C_24
REMARK   12  A    between atoms: C_23  and  C_25
REMARK   13  A    between atoms: C_23  and  O_26
REMARK                            x       y       z     vdW  Elec       q    Type
REMARK                         _______ _______ _______ _____ _____    ______ ____
ROOT
ATOM      1  C   UNL     1       2.489   6.229  19.380  0.00  0.00    +0.000 C 
ATOM      2  C   UNL     1       1.872   6.538  18.022  0.00  0.00    +0.000 C 
ATOM      3  C   UNL     1       1.927   8.059  17.896  0.00  0.00    +0.000 C 
ATOM      4  N   UNL     1       1.874   8.564  19.268  0.00  0.00    +0.000 N 
ATOM      5  C   UNL     1       2.130   7.472  20.222  0.00  0.00    +0.000 C 
ENDROOT
BRANCH   4   6
ATOM      6  C   UNL     1       1.241   9.738  19.665  0.00  0.00    +0.000 A 
ATOM      7  C   UNL     1       0.924  10.722  18.711  0.00  0.00    +0.000 A 
ATOM      8  C   UNL     1       0.267  11.888  19.078  0.00  0.00    +0.000 A 
ATOM      9  N   UNL     1      -0.114  12.167  20.330  0.00  0.00    +0.000 NA
ATOM     10  C   UNL     1       0.193  11.248  21.273  0.00  0.00    +0.000 A 
ATOM     11  C   UNL     1       0.870  10.046  21.002  0.00  0.00    +0.000 A 
ATOM     12 CL   UNL     1       1.321   9.049  22.353  0.00  0.00    +0.000 Cl
BRANCH  10  13
ATOM     13  O   UNL     1      -0.183  11.527  22.583  0.00  0.00    +0.000 OA
BRANCH  13  14
ATOM     14  C   UNL     1      -1.509  11.062  22.883  0.00  0.00    +0.000 C 
BRANCH  14  15
ATOM     15  C   UNL     1      -2.470  12.250  23.086  0.00  0.00    +0.000 C 
ATOM     16  C   UNL     1      -1.748  13.491  23.609  0.00  0.00    +0.000 C 
ATOM     17  C   UNL     1      -3.176  12.560  21.764  0.00  0.00    +0.000 C 
BRANCH  15  18
ATOM     18  O   UNL     1      -3.479  11.893  24.040  0.00  0.00    +0.000 OA
ATOM     19  H   UNL     1      -3.172  12.226  24.903  0.00  0.00    +0.000 HD
ENDBRANCH  15  18
ENDBRANCH  14  15
ENDBRANCH  13  14
ENDBRANCH  10  13
ENDBRANCH   4   6
BRANCH   1  20
ATOM     20  O   UNL     1       3.903   6.038  19.207  0.00  0.00    +0.000 OA
BRANCH  20  24
ATOM     21  C   UNL     1       5.436   4.592  15.576  0.00  0.00    +0.000 A 
ATOM     22  C   UNL     1       5.543   5.939  15.951  0.00  0.00    +0.000 A 
ATOM     23  C   UNL     1       4.997   6.391  17.161  0.00  0.00    +0.000 A 
ATOM     24  C   UNL     1       4.318   5.513  18.011  0.00  0.00    +0.000 A 
ATOM     25  C   UNL     1       4.169   4.183  17.622  0.00  0.00    +0.000 A 
ATOM     26  C   UNL     1       4.725   3.727  16.421  0.00  0.00    +0.000 A 
BRANCH  21  27
ATOM     27  C   UNL     1       6.140   4.076  14.332  0.00  0.00    +0.000 C 
ATOM     28  C   UNL     1       7.302   4.978  13.907  0.00  0.00    +0.000 C 
BRANCH  27  32
ATOM     29  C   UNL     1       4.250   3.214  11.159  0.00  0.00    +0.000 C 
ATOM     30  C   UNL     1       5.390   3.170  12.141  0.00  0.00    +0.000 C 
ATOM     31  O   UNL     1       6.401   2.503  11.958  0.00  0.00    +0.000 OA
ATOM     32  N   UNL     1       5.169   3.944  13.254  0.00  0.00    +0.000 N 
ATOM     33  H   UNL     1       4.329   4.505  13.296  0.00  0.00    +0.000 HD
ENDBRANCH  27  32
ENDBRANCH  21  27
ENDBRANCH  20  24
ENDBRANCH   1  20
TORSDOF 9
ENDMDL
MODEL 8
REMARK VINA RESULT:      -7.3      3.052      3.936
REMARK  Name = 
REMARK  13 active torsions:
REMARK  status: ('A' for Active; 'I' for Inactive)
REMARK    1  A    between atoms: C_1  and  C_2
REMARK    2  A    between atoms: N_4  and  C_5
REMARK    3  A    between atoms: C_5  and  C_6
REMARK    4  A    between atoms: C_5  and  C_7
REMARK    5  A    between atoms: C_10  and  O_11
REMARK    6  A    between atoms: O_11  and  C_12
REMARK    7  A    between atoms: N_15  and  C_16
REMARK    8  A    between atoms: C_20  and  O_21
REMARK    9  A    between atoms: O_21  and  C_22
REMARK   10  A    between atoms: C_22  and  C_23
REMARK   11  A    between atoms: C_23  and  C_24
REMARK   12  A    between atoms: C_23  and  C_25
REMARK   13  A    between atoms: C_23  and  O_26
REMARK                            x       y       z     vdW  Elec       q    Type
REMARK                         _______ _______ _______ _____ _____    ______ ____
ROOT
ATOM      1  C   UNL     1       2.106   8.888  18.744  0.00  0.00    +0.000 C 
ATOM      2  C   UNL     1       1.892   8.703  20.240  0.00  0.00    +0.000 C 
ATOM      3  C   UNL     1       0.384   8.834  20.446  0.00  0.00    +0.000 C 
ATOM      4  N   UNL     1      -0.080   9.708  19.368  0.00  0.00    +0.000 N 
ATOM      5  C   UNL     1       0.963   9.843  18.339  0.00  0.00    +0.000 C 
ENDROOT
BRANCH   4   6
ATOM      6  C   UNL     1      -1.112  10.635  19.479  0.00  0.00    +0.000 A 
ATOM      7  C   UNL     1      -1.181  11.478  20.602  0.00  0.00    +0.000 A 
ATOM      8  C   UNL     1      -2.185  12.429  20.721  0.00  0.00    +0.000 A 
ATOM      9  N   UNL     1      -3.141  12.624  19.805  0.00  0.00    +0.000 NA
ATOM     10  C   UNL     1      -3.112  11.815  18.722  0.00  0.00    +0.000 A 
ATOM     11  C   UNL     1      -2.146  10.812  18.521  0.00  0.00    +0.000 A 
ATOM     12 CL   UNL     1      -2.345   9.762  17.150  0.00  0.00    +0.000 Cl
BRANCH  10  13
ATOM     13  O   UNL     1      -4.106  11.993  17.765  0.00  0.00    +0.000 OA
BRANCH  13  14
ATOM     14  C   UNL     1      -5.397  11.570  18.232  0.00  0.00    +0.000 C 
BRANCH  14  15
ATOM     15  C   UNL     1      -6.364  12.768  18.318  0.00  0.00    +0.000 C 
ATOM     16  C   UNL     1      -6.906  13.169  16.947  0.00  0.00    +0.000 C 
ATOM     17  C   UNL     1      -7.514  12.422  19.267  0.00  0.00    +0.000 C 
BRANCH  15  18
ATOM     18  O   UNL     1      -5.677  13.900  18.867  0.00  0.00    +0.000 OA
ATOM     19  H   UNL     1      -5.080  14.225  18.169  0.00  0.00    +0.000 HD
ENDBRANCH  15  18
ENDBRANCH  14  15
ENDBRANCH  13  14
ENDBRANCH  10  13
ENDBRANCH   4   6
BRANCH   1  20
ATOM     20  O   UNL     1       2.035   7.601  18.109  0.00  0.00    +0.000 OA
BRANCH  20  24
ATOM     21  C   UNL     1       5.523   5.495  17.097  0.00  0.00    +0.000 A 
ATOM     22  C   UNL     1       4.591   5.000  18.019  0.00  0.00    +0.000 A 
ATOM     23  C   UNL     1       3.448   5.743  18.351  0.00  0.00    +0.000 A 
ATOM     24  C   UNL     1       3.224   7.001  17.784  0.00  0.00    +0.000 A 
ATOM     25  C   UNL     1       4.170   7.517  16.901  0.00  0.00    +0.000 A 
ATOM     26  C   UNL     1       5.304   6.772  16.558  0.00  0.00    +0.000 A 
BRANCH  21  27
ATOM     27  C   UNL     1       6.690   4.635  16.638  0.00  0.00    +0.000 C 
ATOM     28  C   UNL     1       7.761   4.486  17.721  0.00  0.00    +0.000 C 
BRANCH  27  32
ATOM     29  C   UNL     1       7.753   5.436  13.087  0.00  0.00    +0.000 C 
ATOM     30  C   UNL     1       7.040   4.681  14.177  0.00  0.00    +0.000 C 
ATOM     31  O   UNL     1       6.336   3.702  13.959  0.00  0.00    +0.000 OA
ATOM     32  N   UNL     1       7.258   5.209  15.426  0.00  0.00    +0.000 N 
ATOM     33  H   UNL     1       7.898   5.986  15.519  0.00  0.00    +0.000 HD
ENDBRANCH  27  32
ENDBRANCH  21  27
ENDBRANCH  20  24
ENDBRANCH   1  20
TORSDOF 9
ENDMDL
MODEL 9
REMARK VINA RESULT:      -7.3      3.576      5.267
REMARK  Name = 
REMARK  13 active torsions:
REMARK  status: ('A' for Active; 'I' for Inactive)
REMARK    1  A    between atoms: C_1  and  C_2
REMARK    2  A    between atoms: N_4  and  C_5
REMARK    3  A    between atoms: C_5  and  C_6
REMARK    4  A    between atoms: C_5  and  C_7
REMARK    5  A    between atoms: C_10  and  O_11
REMARK    6  A    between atoms: O_11  and  C_12
REMARK    7  A    between atoms: N_15  and  C_16
REMARK    8  A    between atoms: C_20  and  O_21
REMARK    9  A    between atoms: O_21  and  C_22
REMARK   10  A    between atoms: C_22  and  C_23
REMARK   11  A    between atoms: C_23  and  C_24
REMARK   12  A    between atoms: C_23  and  C_25
REMARK   13  A    between atoms: C_23  and  O_26
REMARK                            x       y       z     vdW  Elec       q    Type
REMARK                         _______ _______ _______ _____ _____    ______ ____
ROOT
ATOM      1  C   UNL     1       1.080   9.543  18.655  0.00  0.00    +0.000 C 
ATOM      2  C   UNL     1       1.610  10.963  18.503  0.00  0.00    +0.000 C 
ATOM      3  C   UNL     1       0.872  11.780  19.562  0.00  0.00    +0.000 C 
ATOM      4  N   UNL     1      -0.409  11.099  19.753  0.00  0.00    +0.000 N 
ATOM      5  C   UNL     1      -0.368   9.758  19.147  0.00  0.00    +0.000 C 
ENDROOT
BRANCH   4   6
ATOM      6  C   UNL     1      -1.618  11.731  20.028  0.00  0.00    +0.000 A 
ATOM      7  C   UNL     1      -2.607  11.819  19.032  0.00  0.00    +0.000 A 
ATOM      8  C   UNL     1      -3.831  12.420  19.292  0.00  0.00    +0.000 A 
ATOM      9  N   UNL     1      -4.168  12.947  20.475  0.00  0.00    +0.000 NA
ATOM     10  C   UNL     1      -3.230  12.895  21.447  0.00  0.00    +0.000 A 
ATOM     11  C   UNL     1      -1.957  12.322  21.275  0.00  0.00    +0.000 A 
ATOM     12 CL   UNL     1      -0.818  12.476  22.580  0.00  0.00    +0.000 Cl
BRANCH  10  13
ATOM     13  O   UNL     1      -3.556  13.451  22.680  0.00  0.00    +0.000 OA
BRANCH  13  14
ATOM     14  C   UNL     1      -4.887  13.992  22.702  0.00  0.00    +0.000 C 
BRANCH  14  15
ATOM     15  C   UNL     1      -5.834  13.076  23.501  0.00  0.00    +0.000 C 
ATOM     16  C   UNL     1      -5.126  12.399  24.673  0.00  0.00    +0.000 C 
ATOM     17  C   UNL     1      -7.029  13.894  23.997  0.00  0.00    +0.000 C 
BRANCH  15  18
ATOM     18  O   UNL     1      -6.344  12.047  22.642  0.00  0.00    +0.000 OA
ATOM     19  H   UNL     1      -6.532  11.280  23.212  0.00  0.00    +0.000 HD
ENDBRANCH  15  18
ENDBRANCH  14  15
ENDBRANCH  13  14
ENDBRANCH  10  13
ENDBRANCH   4   6
BRANCH   1  20
ATOM     20  O   UNL     1       1.911   8.842  19.594  0.00  0.00    +0.000 OA
BRANCH  20  24
ATOM     21  C   UNL     1       3.257   5.019  18.501  0.00  0.00    +0.000 A 
ATOM     22  C   UNL     1       3.400   6.131  17.660  0.00  0.00    +0.000 A 
ATOM     23  C   UNL     1       2.916   7.389  18.049  0.00  0.00    +0.000 A 
ATOM     24  C   UNL     1       2.264   7.557  19.274  0.00  0.00    +0.000 A 
ATOM     25  C   UNL     1       2.079   6.445  20.094  0.00  0.00    +0.000 A 
ATOM     26  C   UNL     1       2.573   5.192  19.714  0.00  0.00    +0.000 A 
BRANCH  21  27
ATOM     27  C   UNL     1       3.896   3.688  18.140  0.00  0.00    +0.000 C 
ATOM     28  C   UNL     1       3.995   2.747  19.343  0.00  0.00    +0.000 C 
BRANCH  27  32
ATOM     29  C   UNL     1       7.497   4.662  17.461  0.00  0.00    +0.000 C 
ATOM     30  C   UNL     1       6.245   4.490  18.279  0.00  0.00    +0.000 C 
ATOM     31  O   UNL     1       6.171   4.812  19.459  0.00  0.00    +0.000 OA
ATOM     32  N   UNL     1       5.213   3.931  17.566  0.00  0.00    +0.000 N 
ATOM     33  H   UNL     1       5.347   3.746  16.581  0.00  0.00    +0.000 HD
ENDBRANCH  27  32
ENDBRANCH  21  27
ENDBRANCH  20  24
ENDBRANCH   1  20
TORSDOF 9
ENDMDL
