MODEL 1
REMARK VINA RESULT:      -7.5      0.000      0.000
REMARK  Name = 
REMARK  4 active torsions:
REMARK  status: ('A' for Active; 'I' for Inactive)
REMARK    1  A    between atoms: C_2  and  C_3
REMARK    2  A    between atoms: C_8  and  S_9
REMARK    3  A    between atoms: S_9  and  C_10
REMARK    4  A    between atoms: N_14  and  C_15
REMARK                            x       y       z     vdW  Elec       q    Type
REMARK                         _______ _______ _______ _____ _____    ______ ____
ROOT
ATOM      1  C   UNL     1      -0.028   9.248  21.053  0.00  0.00    +0.000 C 
ATOM      2  C   UNL     1      -0.383  10.080  19.846  0.00  0.00    +0.000 C 
ATOM      3  C   UNL     1      -1.172  11.221  20.415  0.00  0.00    +0.000 C 
ATOM      4  O   UNL     1      -1.757  12.004  19.675  0.00  0.00    +0.000 OA
ATOM      5  N   UNL     1      -1.106  11.203  21.794  0.00  0.00    +0.000 N 
ATOM      6  C   UNL     1      -0.498  10.041  22.238  0.00  0.00    +0.000 C 
ATOM      7  O   UNL     1      -0.416   9.610  23.384  0.00  0.00    +0.000 OA
ENDROOT
BRANCH   5   8
ATOM      8  C   UNL     1      -1.615  12.233  22.657  0.00  0.00    +0.000 A 
ATOM      9  C   UNL     1      -2.889  12.159  23.241  0.00  0.00    +0.000 A 
ATOM     10  C   UNL     1      -3.391  13.189  24.045  0.00  0.00    +0.000 A 
ATOM     11  C   UNL     1      -2.631  14.324  24.289  0.00  0.00    +0.000 A 
ATOM     12  C   UNL     1      -1.366  14.428  23.726  0.00  0.00    +0.000 A 
ATOM     13  C   UNL     1      -0.867  13.392  22.921  0.00  0.00    +0.000 A 
ENDBRANCH   5   8
BRANCH   1  14
ATOM     14  S   UNL     1       1.713   8.708  21.182  0.00  0.00    +0.000 S 
BRANCH  14  20
ATOM     15  C   UNL     1       2.156   7.226  18.853  0.00  0.00    +0.000 A 
ATOM     16  C   UNL     1       2.306   6.018  18.157  0.00  0.00    +0.000 A 
ATOM     17  C   UNL     1       1.990   4.853  18.819  0.00  0.00    +0.000 A 
ATOM     18  C   UNL     1       1.580   4.914  20.141  0.00  0.00    +0.000 A 
ATOM     19  N   UNL     1       1.501   6.043  20.868  0.00  0.00    +0.000 NA
ATOM     20  C   UNL     1       1.784   7.199  20.211  0.00  0.00    +0.000 A 
ATOM     21  C   UNL     1       1.198   3.546  20.640  0.00  0.00    +0.000 C 
ATOM     22  C   UNL     1       1.018   2.797  19.310  0.00  0.00    +0.000 C 
ATOM     23  C   UNL     1       1.977   3.451  18.305  0.00  0.00    +0.000 C 
BRANCH  15  25
ATOM     24  N   UNL     1       2.378   9.446  17.540  0.00  0.00    +0.000 NA
ATOM     25  C   UNL     1       2.324   8.444  18.116  0.00  0.00    +0.000 C 
ENDBRANCH  15  25
ENDBRANCH  14  20
ENDBRANCH   1  14
TORSDOF 4
ENDMDL
MODEL 2
REMARK VINA RESULT:      -7.0      3.229      8.701
REMARK  Name = 
REMARK  4 active torsions:
REMARK  status: ('A' for Active; 'I' for Inactive)
REMARK    1  A    between atoms: C_2  and  C_3
REMARK    2  A    between atoms: C_8  and  S_9
REMARK    3  A    between atoms: S_9  and  C_10
REMARK    4  A    between atoms: N_14  and  C_15
REMARK                            x       y       z     vdW  Elec       q    Type
REMARK                         _______ _______ _______ _____ _____    ______ ____
ROOT
ATOM      1  C   UNL     1       1.816   6.720  19.843  0.00  0.00    +0.000 C 
ATOM      2  C   UNL     1       1.784   5.329  20.425  0.00  0.00    +0.000 C 
ATOM      3  C   UNL     1       2.819   4.584  19.636  0.00  0.00    +0.000 C 
ATOM      4  O   UNL     1       2.932   3.368  19.746  0.00  0.00    +0.000 OA
ATOM      5  N   UNL     1       3.535   5.461  18.846  0.00  0.00    +0.000 N 
ATOM      6  C   UNL     1       2.965   6.722  18.876  0.00  0.00    +0.000 C 
ATOM      7  O   UNL     1       3.227   7.698  18.180  0.00  0.00    +0.000 OA
ENDROOT
BRANCH   5   8
ATOM      8  C   UNL     1       4.701   5.117  18.080  0.00  0.00    +0.000 A 
ATOM      9  C   UNL     1       6.001   5.272  18.585  0.00  0.00    +0.000 A 
ATOM     10  C   UNL     1       7.131   4.974  17.813  0.00  0.00    +0.000 A 
ATOM     11  C   UNL     1       6.991   4.511  16.512  0.00  0.00    +0.000 A 
ATOM     12  C   UNL     1       5.718   4.347  15.983  0.00  0.00    +0.000 A 
ATOM     13  C   UNL     1       4.589   4.646  16.761  0.00  0.00    +0.000 A 
ENDBRANCH   5   8
BRANCH   1  14
ATOM     14  S   UNL     1       1.870   8.099  21.042  0.00  0.00    +0.000 S 
BRANCH  14  20
ATOM     15  C   UNL     1      -0.121  10.026  21.410  0.00  0.00    +0.000 A 
ATOM     16  C   UNL     1      -1.048  10.964  20.932  0.00  0.00    +0.000 A 
ATOM     17  C   UNL     1      -1.299  10.986  19.578  0.00  0.00    +0.000 A 
ATOM     18  C   UNL     1      -0.608  10.119  18.747  0.00  0.00    +0.000 A 
ATOM     19  N   UNL     1       0.345   9.262  19.154  0.00  0.00    +0.000 NA
ATOM     20  C   UNL     1       0.577   9.216  20.493  0.00  0.00    +0.000 A 
ATOM     21  C   UNL     1      -1.099  10.243  17.330  0.00  0.00    +0.000 C 
ATOM     22  C   UNL     1      -2.444  10.951  17.554  0.00  0.00    +0.000 C 
ATOM     23  C   UNL     1      -2.282  11.810  18.816  0.00  0.00    +0.000 C 
BRANCH  15  25
ATOM     24  N   UNL     1       0.198   9.734  23.962  0.00  0.00    +0.000 NA
ATOM     25  C   UNL     1       0.016   9.890  22.831  0.00  0.00    +0.000 C 
ENDBRANCH  15  25
ENDBRANCH  14  20
ENDBRANCH   1  14
TORSDOF 4
ENDMDL
MODEL 3
REMARK VINA RESULT:      -7.0      3.303      4.939
REMARK  Name = 
REMARK  4 active torsions:
REMARK  status: ('A' for Active; 'I' for Inactive)
REMARK    1  A    between atoms: C_2  and  C_3
REMARK    2  A    between atoms: C_8  and  S_9
REMARK    3  A    between atoms: S_9  and  C_10
REMARK    4  A    between atoms: N_14  and  C_15
REMARK                            x       y       z     vdW  Elec       q    Type
REMARK                         _______ _______ _______ _____ _____    ______ ____
ROOT
ATOM      1  C   UNL     1       2.121   7.530  19.859  0.00  0.00    +0.000 C 
ATOM      2  C   UNL     1       1.690   7.949  21.242  0.00  0.00    +0.000 C 
ATOM      3  C   UNL     1       1.175   9.344  21.052  0.00  0.00    +0.000 C 
ATOM      4  O   UNL     1       0.895  10.043  22.019  0.00  0.00    +0.000 OA
ATOM      5  N   UNL     1       1.094   9.640  19.705  0.00  0.00    +0.000 N 
ATOM      6  C   UNL     1       1.686   8.642  18.949  0.00  0.00    +0.000 C 
ATOM      7  O   UNL     1       1.944   8.642  17.750  0.00  0.00    +0.000 OA
ENDROOT
BRANCH   5   8
ATOM      8  C   UNL     1       0.499  10.828  19.157  0.00  0.00    +0.000 A 
ATOM      9  C   UNL     1       1.210  12.032  19.032  0.00  0.00    +0.000 A 
ATOM     10  C   UNL     1       0.607  13.194  18.536  0.00  0.00    +0.000 A 
ATOM     11  C   UNL     1      -0.726  13.185  18.150  0.00  0.00    +0.000 A 
ATOM     12  C   UNL     1      -1.457  12.010  18.262  0.00  0.00    +0.000 A 
ATOM     13  C   UNL     1      -0.847  10.847  18.758  0.00  0.00    +0.000 A 
ENDBRANCH   5   8
BRANCH   1  14
ATOM     14  S   UNL     1       1.571   5.877  19.304  0.00  0.00    +0.000 S 
BRANCH  14  20
ATOM     15  C   UNL     1       2.922   3.953  17.792  0.00  0.00    +0.000 A 
ATOM     16  C   UNL     1       3.969   3.538  16.956  0.00  0.00    +0.000 A 
ATOM     17  C   UNL     1       5.032   4.396  16.784  0.00  0.00    +0.000 A 
ATOM     18  C   UNL     1       5.009   5.636  17.403  0.00  0.00    +0.000 A 
ATOM     19  N   UNL     1       3.989   6.103  18.145  0.00  0.00    +0.000 NA
ATOM     20  C   UNL     1       2.950   5.249  18.341  0.00  0.00    +0.000 A 
ATOM     21  C   UNL     1       6.299   6.371  17.161  0.00  0.00    +0.000 C 
ATOM     22  C   UNL     1       7.208   5.215  16.715  0.00  0.00    +0.000 C 
ATOM     23  C   UNL     1       6.301   4.185  16.028  0.00  0.00    +0.000 C 
BRANCH  15  25
ATOM     24  N   UNL     1       1.020   2.275  18.309  0.00  0.00    +0.000 NA
ATOM     25  C   UNL     1       1.900   2.997  18.103  0.00  0.00    +0.000 C 
ENDBRANCH  15  25
ENDBRANCH  14  20
ENDBRANCH   1  14
TORSDOF 4
ENDMDL
MODEL 4
REMARK VINA RESULT:      -7.0      3.382      5.003
REMARK  Name = 
REMARK  4 active torsions:
REMARK  status: ('A' for Active; 'I' for Inactive)
REMARK    1  A    between atoms: C_2  and  C_3
REMARK    2  A    between atoms: C_8  and  S_9
REMARK    3  A    between atoms: S_9  and  C_10
REMARK    4  A    between atoms: N_14  and  C_15
REMARK                            x       y       z     vdW  Elec       q    Type
REMARK                         _______ _______ _______ _____ _____    ______ ____
ROOT
ATOM      1  C   UNL     1       2.142   7.556  19.460  0.00  0.00    +0.000 C 
ATOM      2  C   UNL     1       1.582   7.765  20.845  0.00  0.00    +0.000 C 
ATOM      3  C   UNL     1       1.057   9.169  20.813  0.00  0.00    +0.000 C 
ATOM      4  O   UNL     1       0.678   9.716  21.842  0.00  0.00    +0.000 OA
ATOM      5  N   UNL     1       1.088   9.657  19.522  0.00  0.00    +0.000 N 
ATOM      6  C   UNL     1       1.764   8.785  18.686  0.00  0.00    +0.000 C 
ATOM      7  O   UNL     1       2.127   8.962  17.527  0.00  0.00    +0.000 OA
ENDROOT
BRANCH   5   8
ATOM      8  C   UNL     1       0.519  10.908  19.100  0.00  0.00    +0.000 A 
ATOM      9  C   UNL     1      -0.808  11.013  18.655  0.00  0.00    +0.000 A 
ATOM     10  C   UNL     1      -1.339  12.229  18.205  0.00  0.00    +0.000 A 
ATOM     11  C   UNL     1      -0.556  13.374  18.188  0.00  0.00    +0.000 A 
ATOM     12  C   UNL     1       0.761  13.303  18.621  0.00  0.00    +0.000 A 
ATOM     13  C   UNL     1       1.289  12.083  19.072  0.00  0.00    +0.000 A 
ENDBRANCH   5   8
BRANCH   1  14
ATOM     14  S   UNL     1       1.678   5.997  18.624  0.00  0.00    +0.000 S 
BRANCH  14  20
ATOM     15  C   UNL     1       3.347   4.053  17.508  0.00  0.00    +0.000 A 
ATOM     16  C   UNL     1       4.527   3.645  16.867  0.00  0.00    +0.000 A 
ATOM     17  C   UNL     1       5.548   4.562  16.758  0.00  0.00    +0.000 A 
ATOM     18  C   UNL     1       5.360   5.847  17.243  0.00  0.00    +0.000 A 
ATOM     19  N   UNL     1       4.218   6.301  17.790  0.00  0.00    +0.000 NA
ATOM     20  C   UNL     1       3.216   5.391  17.926  0.00  0.00    +0.000 A 
ATOM     21  C   UNL     1       6.624   6.652  17.108  0.00  0.00    +0.000 C 
ATOM     22  C   UNL     1       7.657   5.532  16.907  0.00  0.00    +0.000 C 
ATOM     23  C   UNL     1       6.923   4.380  16.207  0.00  0.00    +0.000 C 
BRANCH  15  25
ATOM     24  N   UNL     1       1.495   2.314  17.998  0.00  0.00    +0.000 NA
ATOM     25  C   UNL     1       2.352   3.055  17.768  0.00  0.00    +0.000 C 
ENDBRANCH  15  25
ENDBRANCH  14  20
ENDBRANCH   1  14
TORSDOF 4
ENDMDL
MODEL 5
REMARK VINA RESULT:      -7.0      3.273      8.310
REMARK  Name = 
REMARK  4 active torsions:
REMARK  status: ('A' for Active; 'I' for Inactive)
REMARK    1  A    between atoms: C_2  and  C_3
REMARK    2  A    between atoms: C_8  and  S_9
REMARK    3  A    between atoms: S_9  and  C_10
REMARK    4  A    between atoms: N_14  and  C_15
REMARK                            x       y       z     vdW  Elec       q    Type
REMARK                         _______ _______ _______ _____ _____    ______ ____
ROOT
ATOM      1  C   UNL     1       2.223   8.675  18.876  0.00  0.00    +0.000 C 
ATOM      2  C   UNL     1       2.932   8.023  17.716  0.00  0.00    +0.000 C 
ATOM      3  C   UNL     1       3.026   6.580  18.115  0.00  0.00    +0.000 C 
ATOM      4  O   UNL     1       3.700   5.795  17.460  0.00  0.00    +0.000 OA
ATOM      5  N   UNL     1       2.276   6.354  19.252  0.00  0.00    +0.000 N 
ATOM      6  C   UNL     1       1.822   7.548  19.785  0.00  0.00    +0.000 C 
ATOM      7  O   UNL     1       1.273   7.746  20.864  0.00  0.00    +0.000 OA
ENDROOT
BRANCH   5   8
ATOM      8  C   UNL     1       2.014   5.060  19.822  0.00  0.00    +0.000 A 
ATOM      9  C   UNL     1       1.264   4.084  19.149  0.00  0.00    +0.000 A 
ATOM     10  C   UNL     1       0.979   2.843  19.734  0.00  0.00    +0.000 A 
ATOM     11  C   UNL     1       1.437   2.545  21.009  0.00  0.00    +0.000 A 
ATOM     12  C   UNL     1       2.181   3.490  21.702  0.00  0.00    +0.000 A 
ATOM     13  C   UNL     1       2.465   4.732  21.112  0.00  0.00    +0.000 A 
ENDBRANCH   5   8
BRANCH   1  14
ATOM     14  S   UNL     1       0.843   9.798  18.456  0.00  0.00    +0.000 S 
BRANCH  14  20
ATOM     15  C   UNL     1       0.999  11.815  20.384  0.00  0.00    +0.000 A 
ATOM     16  C   UNL     1       1.512  13.021  20.885  0.00  0.00    +0.000 A 
ATOM     17  C   UNL     1       2.283  13.789  20.042  0.00  0.00    +0.000 A 
ATOM     18  C   UNL     1       2.551  13.331  18.762  0.00  0.00    +0.000 A 
ATOM     19  N   UNL     1       2.146  12.146  18.272  0.00  0.00    +0.000 NA
ATOM     20  C   UNL     1       1.361  11.396  19.090  0.00  0.00    +0.000 A 
ATOM     21  C   UNL     1       3.325  14.360  17.983  0.00  0.00    +0.000 C 
ATOM     22  C   UNL     1       3.065  15.615  18.831  0.00  0.00    +0.000 C 
ATOM     23  C   UNL     1       2.881  15.136  20.278  0.00  0.00    +0.000 C 
BRANCH  15  25
ATOM     24  N   UNL     1      -0.625  10.469  21.885  0.00  0.00    +0.000 NA
ATOM     25  C   UNL     1       0.064  11.100  21.202  0.00  0.00    +0.000 C 
ENDBRANCH  15  25
ENDBRANCH  14  20
ENDBRANCH   1  14
TORSDOF 4
ENDMDL
MODEL 6
REMARK VINA RESULT:      -7.0      3.278      8.546
REMARK  Name = 
REMARK  4 active torsions:
REMARK  status: ('A' for Active; 'I' for Inactive)
REMARK    1  A    between atoms: C_2  and  C_3
REMARK    2  A    between atoms: C_8  and  S_9
REMARK    3  A    between atoms: S_9  and  C_10
REMARK    4  A    between atoms: N_14  and  C_15
REMARK                            x       y       z     vdW  Elec       q    Type
REMARK                         _______ _______ _______ _____ _____    ______ ____
ROOT
ATOM      1  C   UNL     1       1.653   7.868  19.248  0.00  0.00    +0.000 C 
ATOM      2  C   UNL     1       1.956   6.779  20.246  0.00  0.00    +0.000 C 
ATOM      3  C   UNL     1       3.008   5.952  19.570  0.00  0.00    +0.000 C 
ATOM      4  O   UNL     1       3.362   4.881  20.047  0.00  0.00    +0.000 OA
ATOM      5  N   UNL     1       3.442   6.585  18.422  0.00  0.00    +0.000 N 
ATOM      6  C   UNL     1       2.651   7.687  18.142  0.00  0.00    +0.000 C 
ATOM      7  O   UNL     1       2.637   8.382  17.131  0.00  0.00    +0.000 OA
ENDROOT
BRANCH   5   8
ATOM      8  C   UNL     1       4.549   6.155  17.612  0.00  0.00    +0.000 A 
ATOM      9  C   UNL     1       4.465   5.044  16.760  0.00  0.00    +0.000 A 
ATOM     10  C   UNL     1       5.563   4.608  16.008  0.00  0.00    +0.000 A 
ATOM     11  C   UNL     1       6.778   5.273  16.088  0.00  0.00    +0.000 A 
ATOM     12  C   UNL     1       6.894   6.377  16.922  0.00  0.00    +0.000 A 
ATOM     13  C   UNL     1       5.790   6.810  17.673  0.00  0.00    +0.000 A 
ENDBRANCH   5   8
BRANCH   1  14
ATOM     14  S   UNL     1       1.592   9.574  19.903  0.00  0.00    +0.000 S 
BRANCH  14  20
ATOM     15  C   UNL     1      -0.776  11.030  20.199  0.00  0.00    +0.000 A 
ATOM     16  C   UNL     1      -1.964  11.588  19.703  0.00  0.00    +0.000 A 
ATOM     17  C   UNL     1      -2.366  11.221  18.439  0.00  0.00    +0.000 A 
ATOM     18  C   UNL     1      -1.574  10.357  17.699  0.00  0.00    +0.000 A 
ATOM     19  N   UNL     1      -0.391   9.864  18.106  0.00  0.00    +0.000 NA
ATOM     20  C   UNL     1      -0.002  10.201  19.364  0.00  0.00    +0.000 A 
ATOM     21  C   UNL     1      -2.241  10.015  16.394  0.00  0.00    +0.000 C 
ATOM     22  C   UNL     1      -3.689  10.433  16.694  0.00  0.00    +0.000 C 
ATOM     23  C   UNL     1      -3.611  11.589  17.702  0.00  0.00    +0.000 C 
BRANCH  15  25
ATOM     24  N   UNL     1      -0.256  11.521  22.686  0.00  0.00    +0.000 NA
ATOM     25  C   UNL     1      -0.446  11.281  21.571  0.00  0.00    +0.000 C 
ENDBRANCH  15  25
ENDBRANCH  14  20
ENDBRANCH   1  14
TORSDOF 4
ENDMDL
MODEL 7
REMARK VINA RESULT:      -6.8      5.237     10.191
REMARK  Name = 
REMARK  4 active torsions:
REMARK  status: ('A' for Active; 'I' for Inactive)
REMARK    1  A    between atoms: C_2  and  C_3
REMARK    2  A    between atoms: C_8  and  S_9
REMARK    3  A    between atoms: S_9  and  C_10
REMARK    4  A    between atoms: N_14  and  C_15
REMARK                            x       y       z     vdW  Elec       q    Type
REMARK                         _______ _______ _______ _____ _____    ______ ____
ROOT
ATOM      1  C   UNL     1       4.955   4.312  17.924  0.00  0.00    +0.000 C 
ATOM      2  C   UNL     1       5.333   5.772  17.907  0.00  0.00    +0.000 C 
ATOM      3  C   UNL     1       6.092   5.933  16.624  0.00  0.00    +0.000 C 
ATOM      4  O   UNL     1       6.688   6.976  16.379  0.00  0.00    +0.000 OA
ATOM      5  N   UNL     1       5.989   4.785  15.865  0.00  0.00    +0.000 N 
ATOM      6  C   UNL     1       5.383   3.773  16.590  0.00  0.00    +0.000 C 
ATOM      7  O   UNL     1       5.274   2.585  16.302  0.00  0.00    +0.000 OA
ENDROOT
BRANCH   5   8
ATOM      8  C   UNL     1       6.461   4.644  14.515  0.00  0.00    +0.000 A 
ATOM      9  C   UNL     1       7.539   5.393  14.017  0.00  0.00    +0.000 A 
ATOM     10  C   UNL     1       7.962   5.278  12.687  0.00  0.00    +0.000 A 
ATOM     11  C   UNL     1       7.319   4.410  11.817  0.00  0.00    +0.000 A 
ATOM     12  C   UNL     1       6.249   3.655  12.278  0.00  0.00    +0.000 A 
ATOM     13  C   UNL     1       5.829   3.772  13.612  0.00  0.00    +0.000 A 
ENDBRANCH   5   8
BRANCH   1  14
ATOM     14  S   UNL     1       3.217   3.929  18.342  0.00  0.00    +0.000 S 
BRANCH  14  20
ATOM     15  C   UNL     1       2.169   5.568  20.350  0.00  0.00    +0.000 A 
ATOM     16  C   UNL     1       1.771   6.813  20.858  0.00  0.00    +0.000 A 
ATOM     17  C   UNL     1       1.704   7.872  19.981  0.00  0.00    +0.000 A 
ATOM     18  C   UNL     1       2.064   7.680  18.657  0.00  0.00    +0.000 A 
ATOM     19  N   UNL     1       2.527   6.524  18.148  0.00  0.00    +0.000 NA
ATOM     20  C   UNL     1       2.569   5.468  19.003  0.00  0.00    +0.000 A 
ATOM     21  C   UNL     1       1.829   8.933  17.858  0.00  0.00    +0.000 C 
ATOM     22  C   UNL     1       0.880   9.696  18.795  0.00  0.00    +0.000 C 
ATOM     23  C   UNL     1       1.240   9.270  20.225  0.00  0.00    +0.000 C 
BRANCH  15  25
ATOM     24  N   UNL     1       2.080   3.490  21.891  0.00  0.00    +0.000 NA
ATOM     25  C   UNL     1       2.079   4.433  21.222  0.00  0.00    +0.000 C 
ENDBRANCH  15  25
ENDBRANCH  14  20
ENDBRANCH   1  14
TORSDOF 4
ENDMDL
MODEL 8
REMARK VINA RESULT:      -6.8      4.207      5.739
REMARK  Name = 
REMARK  4 active torsions:
REMARK  status: ('A' for Active; 'I' for Inactive)
REMARK    1  A    between atoms: C_2  and  C_3
REMARK    2  A    between atoms: C_8  and  S_9
REMARK    3  A    between atoms: S_9  and  C_10
REMARK    4  A    between atoms: N_14  and  C_15
REMARK                            x       y       z     vdW  Elec       q    Type
REMARK                         _______ _______ _______ _____ _____    ______ ____
ROOT
ATOM      1  C   UNL     1       3.155   6.344  18.263  0.00  0.00    +0.000 C 
ATOM      2  C   UNL     1       3.285   7.601  17.439  0.00  0.00    +0.000 C 
ATOM      3  C   UNL     1       2.380   8.578  18.128  0.00  0.00    +0.000 C 
ATOM      4  O   UNL     1       2.126   9.661  17.614  0.00  0.00    +0.000 OA
ATOM      5  N   UNL     1       1.944   8.055  19.329  0.00  0.00    +0.000 N 
ATOM      6  C   UNL     1       2.314   6.726  19.447  0.00  0.00    +0.000 C 
ATOM      7  O   UNL     1       1.965   5.906  20.289  0.00  0.00    +0.000 OA
ENDROOT
BRANCH   5   8
ATOM      8  C   UNL     1       1.190   8.777  20.317  0.00  0.00    +0.000 A 
ATOM      9  C   UNL     1       0.186   9.694  19.970  0.00  0.00    +0.000 A 
ATOM     10  C   UNL     1      -0.511  10.424  20.940  0.00  0.00    +0.000 A 
ATOM     11  C   UNL     1      -0.224  10.257  22.288  0.00  0.00    +0.000 A 
ATOM     12  C   UNL     1       0.765   9.357  22.664  0.00  0.00    +0.000 A 
ATOM     13  C   UNL     1       1.460   8.627  21.688  0.00  0.00    +0.000 A 
ENDBRANCH   5   8
BRANCH   1  14
ATOM     14  S   UNL     1       4.716   5.507  18.717  0.00  0.00    +0.000 S 
BRANCH  14  20
ATOM     15  C   UNL     1       6.834   5.736  16.907  0.00  0.00    +0.000 A 
ATOM     16  C   UNL     1       7.491   5.405  15.713  0.00  0.00    +0.000 A 
ATOM     17  C   UNL     1       6.798   4.663  14.783  0.00  0.00    +0.000 A 
ATOM     18  C   UNL     1       5.509   4.244  15.075  0.00  0.00    +0.000 A 
ATOM     19  N   UNL     1       4.874   4.471  16.238  0.00  0.00    +0.000 NA
ATOM     20  C   UNL     1       5.543   5.227  17.149  0.00  0.00    +0.000 A 
ATOM     21  C   UNL     1       4.905   3.533  13.894  0.00  0.00    +0.000 C 
ATOM     22  C   UNL     1       5.842   4.002  12.768  0.00  0.00    +0.000 C 
ATOM     23  C   UNL     1       7.214   4.243  13.413  0.00  0.00    +0.000 C 
BRANCH  15  25
ATOM     24  N   UNL     1       8.086   7.386  18.460  0.00  0.00    +0.000 NA
ATOM     25  C   UNL     1       7.492   6.645  17.800  0.00  0.00    +0.000 C 
ENDBRANCH  15  25
ENDBRANCH  14  20
ENDBRANCH   1  14
TORSDOF 4
ENDMDL
MODEL 9
REMARK VINA RESULT:      -6.7      1.910      2.331
REMARK  Name = 
REMARK  4 active torsions:
REMARK  status: ('A' for Active; 'I' for Inactive)
REMARK    1  A    between atoms: C_2  and  C_3
REMARK    2  A    between atoms: C_8  and  S_9
REMARK    3  A    between atoms: S_9  and  C_10
REMARK    4  A    between atoms: N_14  and  C_15
REMARK                            x       y       z     vdW  Elec       q    Type
REMARK                         _______ _______ _______ _____ _____    ______ ____
ROOT
ATOM      1  C   UNL     1       0.919   8.870  18.714  0.00  0.00    +0.000 C 
ATOM      2  C   UNL     1       0.076   9.681  17.762  0.00  0.00    +0.000 C 
ATOM      3  C   UNL     1      -0.538  10.736  18.633  0.00  0.00    +0.000 C 
ATOM      4  O   UNL     1      -1.417  11.470  18.198  0.00  0.00    +0.000 OA
ATOM      5  N   UNL     1       0.034  10.704  19.890  0.00  0.00    +0.000 N 
ATOM      6  C   UNL     1       0.856   9.598  20.025  0.00  0.00    +0.000 C 
ATOM      7  O   UNL     1       1.391   9.162  21.039  0.00  0.00    +0.000 OA
ENDROOT
BRANCH   5   8
ATOM      8  C   UNL     1      -0.203  11.670  20.928  0.00  0.00    +0.000 A 
ATOM      9  C   UNL     1      -1.100  11.432  21.980  0.00  0.00    +0.000 A 
ATOM     10  C   UNL     1      -1.355  12.398  22.962  0.00  0.00    +0.000 A 
ATOM     11  C   UNL     1      -0.719  13.630  22.918  0.00  0.00    +0.000 A 
ATOM     12  C   UNL     1       0.174  13.897  21.889  0.00  0.00    +0.000 A 
ATOM     13  C   UNL     1       0.428  12.925  20.908  0.00  0.00    +0.000 A 
ENDBRANCH   5   8
BRANCH   1  14
ATOM     14  S   UNL     1       2.623   8.493  18.170  0.00  0.00    +0.000 S 
BRANCH  14  20
ATOM     15  C   UNL     1       3.828   5.986  17.895  0.00  0.00    +0.000 A 
ATOM     16  C   UNL     1       4.032   4.654  18.285  0.00  0.00    +0.000 A 
ATOM     17  C   UNL     1       3.176   4.122  19.223  0.00  0.00    +0.000 A 
ATOM     18  C   UNL     1       2.185   4.923  19.768  0.00  0.00    +0.000 A 
ATOM     19  N   UNL     1       2.007   6.225  19.481  0.00  0.00    +0.000 NA
ATOM     20  C   UNL     1       2.831   6.748  18.534  0.00  0.00    +0.000 A 
ATOM     21  C   UNL     1       1.310   4.124  20.696  0.00  0.00    +0.000 C 
ATOM     22  C   UNL     1       1.657   2.693  20.255  0.00  0.00    +0.000 C 
ATOM     23  C   UNL     1       3.109   2.729  19.755  0.00  0.00    +0.000 C 
BRANCH  15  25
ATOM     24  N   UNL     1       5.174   6.870  15.868  0.00  0.00    +0.000 NA
ATOM     25  C   UNL     1       4.609   6.486  16.802  0.00  0.00    +0.000 C 
ENDBRANCH  15  25
ENDBRANCH  14  20
ENDBRANCH   1  14
TORSDOF 4
ENDMDL
