MODEL 1
REMARK VINA RESULT:      -8.1      0.000      0.000
REMARK  Name = 
REMARK  3 active torsions:
REMARK  status: ('A' for Active; 'I' for Inactive)
REMARK    1  A    between atoms: N_10  and  C_11
REMARK    2  A    between atoms: C_11  and  C_12
REMARK    3  A    between atoms: C_15  and  C_16
REMARK                            x       y       z     vdW  Elec       q    Type
REMARK                         _______ _______ _______ _____ _____    ______ ____
ROOT
ATOM      1  O   UNL     1       7.461   6.144  18.891  0.00  0.00    +0.000 OA
ATOM      2  C   UNL     1       6.633   5.455  18.333  0.00  0.00    +0.000 C 
ATOM      3  C   UNL     1       5.574   4.642  19.029  0.00  0.00    +0.000 C 
ATOM      4  C   UNL     1       4.502   4.559  17.929  0.00  0.00    +0.000 C 
ATOM      5  C   UNL     1       5.358   4.555  16.689  0.00  0.00    +0.000 C 
ATOM      6  O   UNL     1       5.102   4.080  15.597  0.00  0.00    +0.000 OA
ATOM      7  N   UNL     1       6.502   5.245  17.000  0.00  0.00    +0.000 N 
ATOM      8  C   UNL     1       3.704   5.860  17.995  0.00  0.00    +0.000 C 
ATOM      9  O   UNL     1       3.908   6.807  17.240  0.00  0.00    +0.000 OA
ATOM     10  N   UNL     1       2.863   5.928  19.090  0.00  0.00    +0.000 N 
ATOM     11  C   UNL     1       1.965   4.907  19.345  0.00  0.00    +0.000 C 
ATOM     12  O   UNL     1       0.946   5.053  20.012  0.00  0.00    +0.000 OA
ATOM     13  C   UNL     1       2.393   3.627  18.814  0.00  0.00    +0.000 A 
ATOM     14  C   UNL     1       1.799   2.385  18.938  0.00  0.00    +0.000 A 
ATOM     15  C   UNL     1       2.729   1.423  18.477  0.00  0.00    +0.000 A 
ATOM     16  C   UNL     1       3.839   2.102  18.015  0.00  0.00    +0.000 A 
ATOM     17  N   UNL     1       3.594   3.439  18.154  0.00  0.00    +0.000 N 
ATOM     18  H   UNL     1       7.144   5.608  16.313  0.00  0.00    +0.000 HD
ENDROOT
BRANCH  10  19
ATOM     19  C   UNL     1       2.912   7.116  19.915  0.00  0.00    +0.000 C 
BRANCH  19  20
ATOM     20  C   UNL     1       1.842   8.127  19.676  0.00  0.00    +0.000 A 
ATOM     21  C   UNL     1       1.025   8.530  20.736  0.00  0.00    +0.000 A 
ATOM     22  C   UNL     1       0.060   9.514  20.548  0.00  0.00    +0.000 A 
ATOM     23  C   UNL     1      -0.110  10.106  19.287  0.00  0.00    +0.000 A 
ATOM     24  C   UNL     1       0.705   9.694  18.222  0.00  0.00    +0.000 A 
ATOM     25  C   UNL     1       1.671   8.710  18.408  0.00  0.00    +0.000 A 
BRANCH  23  26
ATOM     26  C   UNL     1      -1.151  11.172  19.068  0.00  0.00    +0.000 C 
ATOM     27  F   UNL     1      -0.745  12.168  18.236  0.00  0.00    +0.000 F 
ATOM     28  F   UNL     1      -2.296  10.672  18.524  0.00  0.00    +0.000 F 
ATOM     29  F   UNL     1      -1.524  11.780  20.228  0.00  0.00    +0.000 F 
ENDBRANCH  23  26
ENDBRANCH  19  20
ENDBRANCH  10  19
TORSDOF 3
ENDMDL
MODEL 2
REMARK VINA RESULT:      -8.0      0.170      1.181
REMARK  Name = 
REMARK  3 active torsions:
REMARK  status: ('A' for Active; 'I' for Inactive)
REMARK    1  A    between atoms: N_10  and  C_11
REMARK    2  A    between atoms: C_11  and  C_12
REMARK    3  A    between atoms: C_15  and  C_16
REMARK                            x       y       z     vdW  Elec       q    Type
REMARK                         _______ _______ _______ _____ _____    ______ ____
ROOT
ATOM      1  O   UNL     1       7.385   6.027  18.967  0.00  0.00    +0.000 OA
ATOM      2  C   UNL     1       6.540   5.355  18.415  0.00  0.00    +0.000 C 
ATOM      3  C   UNL     1       5.477   4.553  19.117  0.00  0.00    +0.000 C 
ATOM      4  C   UNL     1       4.392   4.494  18.030  0.00  0.00    +0.000 C 
ATOM      5  C   UNL     1       5.233   4.486  16.779  0.00  0.00    +0.000 C 
ATOM      6  O   UNL     1       4.956   4.023  15.687  0.00  0.00    +0.000 OA
ATOM      7  N   UNL     1       6.390   5.157  17.082  0.00  0.00    +0.000 N 
ATOM      8  C   UNL     1       3.614   5.806  18.114  0.00  0.00    +0.000 C 
ATOM      9  O   UNL     1       3.823   6.756  17.364  0.00  0.00    +0.000 OA
ATOM     10  N   UNL     1       2.787   5.878  19.219  0.00  0.00    +0.000 N 
ATOM     11  C   UNL     1       1.877   4.870  19.477  0.00  0.00    +0.000 C 
ATOM     12  O   UNL     1       0.868   5.026  20.157  0.00  0.00    +0.000 OA
ATOM     13  C   UNL     1       2.279   3.587  18.932  0.00  0.00    +0.000 A 
ATOM     14  C   UNL     1       1.668   2.353  19.055  0.00  0.00    +0.000 A 
ATOM     15  C   UNL     1       2.578   1.381  18.575  0.00  0.00    +0.000 A 
ATOM     16  C   UNL     1       3.692   2.046  18.105  0.00  0.00    +0.000 A 
ATOM     17  N   UNL     1       3.470   3.386  18.256  0.00  0.00    +0.000 N 
ATOM     18  H   UNL     1       7.029   5.515  16.389  0.00  0.00    +0.000 HD
ENDROOT
BRANCH  10  19
ATOM     19  C   UNL     1       2.863   7.060  20.052  0.00  0.00    +0.000 C 
BRANCH  19  20
ATOM     20  C   UNL     1       1.836   8.110  19.799  0.00  0.00    +0.000 A 
ATOM     21  C   UNL     1       1.733   8.684  18.529  0.00  0.00    +0.000 A 
ATOM     22  C   UNL     1       0.744   9.622  18.256  0.00  0.00    +0.000 A 
ATOM     23  C   UNL     1      -0.158  10.010  19.259  0.00  0.00    +0.000 A 
ATOM     24  C   UNL     1      -0.049   9.440  20.537  0.00  0.00    +0.000 A 
ATOM     25  C   UNL     1       0.940   8.501  20.811  0.00  0.00    +0.000 A 
BRANCH  23  26
ATOM     26  C   UNL     1      -1.234  11.026  18.979  0.00  0.00    +0.000 C 
ATOM     27  F   UNL     1      -1.744  11.604  20.100  0.00  0.00    +0.000 F 
ATOM     28  F   UNL     1      -0.787  12.050  18.199  0.00  0.00    +0.000 F 
ATOM     29  F   UNL     1      -2.296  10.489  18.317  0.00  0.00    +0.000 F 
ENDBRANCH  23  26
ENDBRANCH  19  20
ENDBRANCH  10  19
TORSDOF 3
ENDMDL
MODEL 3
REMARK VINA RESULT:      -7.8      4.832      7.490
REMARK  Name = 
REMARK  3 active torsions:
REMARK  status: ('A' for Active; 'I' for Inactive)
REMARK    1  A    between atoms: N_10  and  C_11
REMARK    2  A    between atoms: C_11  and  C_12
REMARK    3  A    between atoms: C_15  and  C_16
REMARK                            x       y       z     vdW  Elec       q    Type
REMARK                         _______ _______ _______ _____ _____    ______ ____
ROOT
ATOM      1  O   UNL     1       4.291   1.841  21.338  0.00  0.00    +0.000 OA
ATOM      2  C   UNL     1       3.441   2.591  20.905  0.00  0.00    +0.000 C 
ATOM      3  C   UNL     1       3.591   4.082  20.766  0.00  0.00    +0.000 C 
ATOM      4  C   UNL     1       2.590   4.371  19.635  0.00  0.00    +0.000 C 
ATOM      5  C   UNL     1       1.545   3.317  19.897  0.00  0.00    +0.000 C 
ATOM      6  O   UNL     1       0.360   3.342  19.613  0.00  0.00    +0.000 OA
ATOM      7  N   UNL     1       2.191   2.264  20.492  0.00  0.00    +0.000 N 
ATOM      8  C   UNL     1       3.307   4.064  18.323  0.00  0.00    +0.000 C 
ATOM      9  O   UNL     1       3.160   3.009  17.712  0.00  0.00    +0.000 OA
ATOM     10  N   UNL     1       4.262   5.007  17.991  0.00  0.00    +0.000 N 
ATOM     11  C   UNL     1       3.931   6.349  17.949  0.00  0.00    +0.000 C 
ATOM     12  O   UNL     1       4.558   7.181  17.299  0.00  0.00    +0.000 OA
ATOM     13  C   UNL     1       2.820   6.689  18.816  0.00  0.00    +0.000 A 
ATOM     14  C   UNL     1       2.268   7.928  19.089  0.00  0.00    +0.000 A 
ATOM     15  C   UNL     1       1.392   7.767  20.188  0.00  0.00    +0.000 A 
ATOM     16  C   UNL     1       1.371   6.427  20.516  0.00  0.00    +0.000 A 
ATOM     17  N   UNL     1       2.181   5.772  19.631  0.00  0.00    +0.000 N 
ATOM     18  H   UNL     1       1.805   1.335  20.564  0.00  0.00    +0.000 HD
ENDROOT
BRANCH  10  19
ATOM     19  C   UNL     1       5.586   4.542  17.634  0.00  0.00    +0.000 C 
BRANCH  19  20
ATOM     20  C   UNL     1       5.881   4.453  16.176  0.00  0.00    +0.000 A 
ATOM     21  C   UNL     1       7.081   4.971  15.681  0.00  0.00    +0.000 A 
ATOM     22  C   UNL     1       7.401   4.846  14.334  0.00  0.00    +0.000 A 
ATOM     23  C   UNL     1       6.516   4.205  13.453  0.00  0.00    +0.000 A 
ATOM     24  C   UNL     1       5.307   3.693  13.949  0.00  0.00    +0.000 A 
ATOM     25  C   UNL     1       4.985   3.817  15.297  0.00  0.00    +0.000 A 
BRANCH  23  26
ATOM     26  C   UNL     1       6.849   4.062  11.992  0.00  0.00    +0.000 C 
ATOM     27  F   UNL     1       7.576   5.098  11.493  0.00  0.00    +0.000 F 
ATOM     28  F   UNL     1       7.576   2.938  11.736  0.00  0.00    +0.000 F 
ATOM     29  F   UNL     1       5.737   3.973  11.211  0.00  0.00    +0.000 F 
ENDBRANCH  23  26
ENDBRANCH  19  20
ENDBRANCH  10  19
TORSDOF 3
ENDMDL
MODEL 4
REMARK VINA RESULT:      -7.7      4.802      7.514
REMARK  Name = 
REMARK  3 active torsions:
REMARK  status: ('A' for Active; 'I' for Inactive)
REMARK    1  A    between atoms: N_10  and  C_11
REMARK    2  A    between atoms: C_11  and  C_12
REMARK    3  A    between atoms: C_15  and  C_16
REMARK                            x       y       z     vdW  Elec       q    Type
REMARK                         _______ _______ _______ _____ _____    ______ ____
ROOT
ATOM      1  O   UNL     1       4.094   1.912  21.464  0.00  0.00    +0.000 OA
ATOM      2  C   UNL     1       3.290   2.688  20.992  0.00  0.00    +0.000 C 
ATOM      3  C   UNL     1       3.515   4.166  20.812  0.00  0.00    +0.000 C 
ATOM      4  C   UNL     1       2.549   4.468  19.654  0.00  0.00    +0.000 C 
ATOM      5  C   UNL     1       1.450   3.474  19.926  0.00  0.00    +0.000 C 
ATOM      6  O   UNL     1       0.273   3.546  19.617  0.00  0.00    +0.000 OA
ATOM      7  N   UNL     1       2.034   2.410  20.565  0.00  0.00    +0.000 N 
ATOM      8  C   UNL     1       3.275   4.087  18.366  0.00  0.00    +0.000 C 
ATOM      9  O   UNL     1       3.089   3.022  17.784  0.00  0.00    +0.000 OA
ATOM     10  N   UNL     1       4.280   4.974  18.026  0.00  0.00    +0.000 N 
ATOM     11  C   UNL     1       4.016   6.328  17.937  0.00  0.00    +0.000 C 
ATOM     12  O   UNL     1       4.694   7.109  17.276  0.00  0.00    +0.000 OA
ATOM     13  C   UNL     1       2.906   6.747  18.772  0.00  0.00    +0.000 A 
ATOM     14  C   UNL     1       2.410   8.018  18.997  0.00  0.00    +0.000 A 
ATOM     15  C   UNL     1       1.507   7.933  20.083  0.00  0.00    +0.000 A 
ATOM     16  C   UNL     1       1.415   6.605  20.449  0.00  0.00    +0.000 A 
ATOM     17  N   UNL     1       2.209   5.886  19.601  0.00  0.00    +0.000 N 
ATOM     18  H   UNL     1       1.601   1.503  20.655  0.00  0.00    +0.000 HD
ENDROOT
BRANCH  10  19
ATOM     19  C   UNL     1       5.587   4.436  17.709  0.00  0.00    +0.000 C 
BRANCH  19  20
ATOM     20  C   UNL     1       5.898   4.275  16.260  0.00  0.00    +0.000 A 
ATOM     21  C   UNL     1       4.958   3.683  15.413  0.00  0.00    +0.000 A 
ATOM     22  C   UNL     1       5.205   3.577  14.049  0.00  0.00    +0.000 A 
ATOM     23  C   UNL     1       6.408   4.056  13.509  0.00  0.00    +0.000 A 
ATOM     24  C   UNL     1       7.356   4.643  14.361  0.00  0.00    +0.000 A 
ATOM     25  C   UNL     1       7.110   4.750  15.727  0.00  0.00    +0.000 A 
BRANCH  23  26
ATOM     26  C   UNL     1       6.690   3.949  12.034  0.00  0.00    +0.000 C 
ATOM     27  F   UNL     1       5.572   3.983  11.260  0.00  0.00    +0.000 F 
ATOM     28  F   UNL     1       7.487   4.959  11.585  0.00  0.00    +0.000 F 
ATOM     29  F   UNL     1       7.335   2.794  11.710  0.00  0.00    +0.000 F 
ENDBRANCH  23  26
ENDBRANCH  19  20
ENDBRANCH  10  19
TORSDOF 3
ENDMDL
MODEL 5
REMARK VINA RESULT:      -7.6      5.198      9.082
REMARK  Name = 
REMARK  3 active torsions:
REMARK  status: ('A' for Active; 'I' for Inactive)
REMARK    1  A    between atoms: N_10  and  C_11
REMARK    2  A    between atoms: C_11  and  C_12
REMARK    3  A    between atoms: C_15  and  C_16
REMARK                            x       y       z     vdW  Elec       q    Type
REMARK                         _______ _______ _______ _____ _____    ______ ____
ROOT
ATOM      1  O   UNL     1       0.325  14.714  22.657  0.00  0.00    +0.000 OA
ATOM      2  C   UNL     1      -0.668  14.048  22.450  0.00  0.00    +0.000 C 
ATOM      3  C   UNL     1      -1.308  13.844  21.103  0.00  0.00    +0.000 C 
ATOM      4  C   UNL     1      -2.020  12.499  21.321  0.00  0.00    +0.000 C 
ATOM      5  C   UNL     1      -2.371  12.589  22.784  0.00  0.00    +0.000 C 
ATOM      6  O   UNL     1      -3.284  12.043  23.376  0.00  0.00    +0.000 OA
ATOM      7  N   UNL     1      -1.419  13.387  23.365  0.00  0.00    +0.000 N 
ATOM      8  C   UNL     1      -0.973  11.407  21.113  0.00  0.00    +0.000 C 
ATOM      9  O   UNL     1      -0.391  10.854  22.042  0.00  0.00    +0.000 OA
ATOM     10  N   UNL     1      -0.622  11.236  19.787  0.00  0.00    +0.000 N 
ATOM     11  C   UNL     1      -1.596  11.027  18.828  0.00  0.00    +0.000 C 
ATOM     12  O   UNL     1      -1.380  10.480  17.751  0.00  0.00    +0.000 OA
ATOM     13  C   UNL     1      -2.880  11.594  19.190  0.00  0.00    +0.000 A 
ATOM     14  C   UNL     1      -4.052  11.648  18.457  0.00  0.00    +0.000 A 
ATOM     15  C   UNL     1      -4.932  12.529  19.130  0.00  0.00    +0.000 A 
ATOM     16  C   UNL     1      -4.309  12.936  20.292  0.00  0.00    +0.000 A 
ATOM     17  N   UNL     1      -3.098  12.305  20.357  0.00  0.00    +0.000 N 
ATOM     18  H   UNL     1      -1.255  13.433  24.359  0.00  0.00    +0.000 HD
ENDROOT
BRANCH  10  19
ATOM     19  C   UNL     1       0.787  11.221  19.450  0.00  0.00    +0.000 C 
BRANCH  19  20
ATOM     20  C   UNL     1       1.382   9.884  19.172  0.00  0.00    +0.000 A 
ATOM     21  C   UNL     1       1.363   8.899  20.164  0.00  0.00    +0.000 A 
ATOM     22  C   UNL     1       1.861   7.627  19.904  0.00  0.00    +0.000 A 
ATOM     23  C   UNL     1       2.397   7.320  18.644  0.00  0.00    +0.000 A 
ATOM     24  C   UNL     1       2.424   8.312  17.651  0.00  0.00    +0.000 A 
ATOM     25  C   UNL     1       1.926   9.585  17.909  0.00  0.00    +0.000 A 
BRANCH  23  26
ATOM     26  C   UNL     1       2.940   5.947  18.349  0.00  0.00    +0.000 C 
ATOM     27  F   UNL     1       3.199   5.211  19.463  0.00  0.00    +0.000 F 
ATOM     28  F   UNL     1       2.078   5.202  17.600  0.00  0.00    +0.000 F 
ATOM     29  F   UNL     1       4.105   5.988  17.645  0.00  0.00    +0.000 F 
ENDBRANCH  23  26
ENDBRANCH  19  20
ENDBRANCH  10  19
TORSDOF 3
ENDMDL
MODEL 6
REMARK VINA RESULT:      -7.5      4.682      7.895
REMARK  Name = 
REMARK  3 active torsions:
REMARK  status: ('A' for Active; 'I' for Inactive)
REMARK    1  A    between atoms: N_10  and  C_11
REMARK    2  A    between atoms: C_11  and  C_12
REMARK    3  A    between atoms: C_15  and  C_16
REMARK                            x       y       z     vdW  Elec       q    Type
REMARK                         _______ _______ _______ _____ _____    ______ ____
ROOT
ATOM      1  O   UNL     1      -2.005  10.582  16.577  0.00  0.00    +0.000 OA
ATOM      2  C   UNL     1      -1.409  10.902  17.585  0.00  0.00    +0.000 C 
ATOM      3  C   UNL     1      -1.286  10.054  18.823  0.00  0.00    +0.000 C 
ATOM      4  C   UNL     1       0.018  10.605  19.423  0.00  0.00    +0.000 C 
ATOM      5  C   UNL     1      -0.050  12.048  18.992  0.00  0.00    +0.000 C 
ATOM      6  O   UNL     1       0.455  13.020  19.524  0.00  0.00    +0.000 OA
ATOM      7  N   UNL     1      -0.769  12.073  17.824  0.00  0.00    +0.000 N 
ATOM      8  C   UNL     1       1.166   9.908  18.697  0.00  0.00    +0.000 C 
ATOM      9  O   UNL     1       1.782  10.426  17.770  0.00  0.00    +0.000 OA
ATOM     10  N   UNL     1       1.319   8.585  19.065  0.00  0.00    +0.000 N 
ATOM     11  C   UNL     1       1.437   8.241  20.399  0.00  0.00    +0.000 C 
ATOM     12  O   UNL     1       1.964   7.202  20.787  0.00  0.00    +0.000 OA
ATOM     13  C   UNL     1       0.802   9.192  21.291  0.00  0.00    +0.000 A 
ATOM     14  C   UNL     1       0.653   9.141  22.664  0.00  0.00    +0.000 A 
ATOM     15  C   UNL     1      -0.260  10.159  23.029  0.00  0.00    +0.000 A 
ATOM     16  C   UNL     1      -0.592  10.854  21.884  0.00  0.00    +0.000 A 
ATOM     17  N   UNL     1       0.115  10.309  20.849  0.00  0.00    +0.000 N 
ATOM     18  H   UNL     1      -0.775  12.853  17.185  0.00  0.00    +0.000 HD
ENDROOT
BRANCH  10  19
ATOM     19  C   UNL     1       1.411   7.590  18.017  0.00  0.00    +0.000 C 
BRANCH  19  20
ATOM     20  C   UNL     1       2.734   6.923  17.858  0.00  0.00    +0.000 A 
ATOM     21  C   UNL     1       2.841   5.545  18.066  0.00  0.00    +0.000 A 
ATOM     22  C   UNL     1       4.054   4.893  17.866  0.00  0.00    +0.000 A 
ATOM     23  C   UNL     1       5.187   5.616  17.462  0.00  0.00    +0.000 A 
ATOM     24  C   UNL     1       5.080   7.001  17.262  0.00  0.00    +0.000 A 
ATOM     25  C   UNL     1       3.868   7.655  17.461  0.00  0.00    +0.000 A 
BRANCH  23  26
ATOM     26  C   UNL     1       6.506   4.925  17.242  0.00  0.00    +0.000 C 
ATOM     27  F   UNL     1       6.469   3.976  16.268  0.00  0.00    +0.000 F 
ATOM     28  F   UNL     1       7.491   5.795  16.880  0.00  0.00    +0.000 F 
ATOM     29  F   UNL     1       6.958   4.296  18.362  0.00  0.00    +0.000 F 
ENDBRANCH  23  26
ENDBRANCH  19  20
ENDBRANCH  10  19
TORSDOF 3
ENDMDL
MODEL 7
REMARK VINA RESULT:      -7.5      1.325      1.614
REMARK  Name = 
REMARK  3 active torsions:
REMARK  status: ('A' for Active; 'I' for Inactive)
REMARK    1  A    between atoms: N_10  and  C_11
REMARK    2  A    between atoms: C_11  and  C_12
REMARK    3  A    between atoms: C_15  and  C_16
REMARK                            x       y       z     vdW  Elec       q    Type
REMARK                         _______ _______ _______ _____ _____    ______ ____
ROOT
ATOM      1  O   UNL     1       6.910   6.459  18.039  0.00  0.00    +0.000 OA
ATOM      2  C   UNL     1       6.043   5.618  18.148  0.00  0.00    +0.000 C 
ATOM      3  C   UNL     1       5.277   5.323  19.410  0.00  0.00    +0.000 C 
ATOM      4  C   UNL     1       3.980   4.733  18.831  0.00  0.00    +0.000 C 
ATOM      5  C   UNL     1       4.498   4.056  17.588  0.00  0.00    +0.000 C 
ATOM      6  O   UNL     1       4.028   3.099  16.999  0.00  0.00    +0.000 OA
ATOM      7  N   UNL     1       5.607   4.759  17.193  0.00  0.00    +0.000 N 
ATOM      8  C   UNL     1       3.097   5.915  18.439  0.00  0.00    +0.000 C 
ATOM      9  O   UNL     1       3.011   6.331  17.286  0.00  0.00    +0.000 OA
ATOM     10  N   UNL     1       2.551   6.571  19.526  0.00  0.00    +0.000 N 
ATOM     11  C   UNL     1       1.852   5.866  20.488  0.00  0.00    +0.000 C 
ATOM     12  O   UNL     1       1.020   6.377  21.232  0.00  0.00    +0.000 OA
ATOM     13  C   UNL     1       2.261   4.478  20.586  0.00  0.00    +0.000 A 
ATOM     14  C   UNL     1       1.844   3.503  21.473  0.00  0.00    +0.000 A 
ATOM     15  C   UNL     1       2.723   2.402  21.334  0.00  0.00    +0.000 A 
ATOM     16  C   UNL     1       3.610   2.699  20.318  0.00  0.00    +0.000 A 
ATOM     17  N   UNL     1       3.274   3.927  19.821  0.00  0.00    +0.000 N 
ATOM     18  H   UNL     1       6.019   4.689  16.275  0.00  0.00    +0.000 HD
ENDROOT
BRANCH  10  19
ATOM     19  C   UNL     1       2.683   8.012  19.591  0.00  0.00    +0.000 C 
BRANCH  19  20
ATOM     20  C   UNL     1       1.450   8.799  19.299  0.00  0.00    +0.000 A 
ATOM     21  C   UNL     1       0.710   9.338  20.354  0.00  0.00    +0.000 A 
ATOM     22  C   UNL     1      -0.409  10.124  20.102  0.00  0.00    +0.000 A 
ATOM     23  C   UNL     1      -0.813  10.376  18.781  0.00  0.00    +0.000 A 
ATOM     24  C   UNL     1      -0.074   9.827  17.722  0.00  0.00    +0.000 A 
ATOM     25  C   UNL     1       1.047   9.040  17.973  0.00  0.00    +0.000 A 
BRANCH  23  26
ATOM     26  C   UNL     1      -2.022  11.225  18.492  0.00  0.00    +0.000 C 
ATOM     27  F   UNL     1      -3.098  10.514  18.059  0.00  0.00    +0.000 F 
ATOM     28  F   UNL     1      -2.445  11.912  19.591  0.00  0.00    +0.000 F 
ATOM     29  F   UNL     1      -1.783  12.164  17.535  0.00  0.00    +0.000 F 
ENDBRANCH  23  26
ENDBRANCH  19  20
ENDBRANCH  10  19
TORSDOF 3
ENDMDL
MODEL 8
REMARK VINA RESULT:      -7.5      1.871      3.708
REMARK  Name = 
REMARK  3 active torsions:
REMARK  status: ('A' for Active; 'I' for Inactive)
REMARK    1  A    between atoms: N_10  and  C_11
REMARK    2  A    between atoms: C_11  and  C_12
REMARK    3  A    between atoms: C_15  and  C_16
REMARK                            x       y       z     vdW  Elec       q    Type
REMARK                         _______ _______ _______ _____ _____    ______ ____
ROOT
ATOM      1  O   UNL     1       1.180   2.162  18.048  0.00  0.00    +0.000 OA
ATOM      2  C   UNL     1       2.309   2.548  18.271  0.00  0.00    +0.000 C 
ATOM      3  C   UNL     1       3.103   3.464  17.378  0.00  0.00    +0.000 C 
ATOM      4  C   UNL     1       4.065   4.099  18.395  0.00  0.00    +0.000 C 
ATOM      5  C   UNL     1       4.247   2.965  19.370  0.00  0.00    +0.000 C 
ATOM      6  O   UNL     1       5.196   2.742  20.101  0.00  0.00    +0.000 OA
ATOM      7  N   UNL     1       3.094   2.223  19.327  0.00  0.00    +0.000 N 
ATOM      8  C   UNL     1       3.302   5.237  19.070  0.00  0.00    +0.000 C 
ATOM      9  O   UNL     1       2.768   5.122  20.170  0.00  0.00    +0.000 OA
ATOM     10  N   UNL     1       3.124   6.335  18.250  0.00  0.00    +0.000 N 
ATOM     11  C   UNL     1       4.207   6.916  17.616  0.00  0.00    +0.000 C 
ATOM     12  O   UNL     1       4.218   8.077  17.222  0.00  0.00    +0.000 OA
ATOM     13  C   UNL     1       5.299   5.988  17.390  0.00  0.00    +0.000 A 
ATOM     14  C   UNL     1       6.495   6.188  16.726  0.00  0.00    +0.000 A 
ATOM     15  C   UNL     1       7.096   4.919  16.546  0.00  0.00    +0.000 A 
ATOM     16  C   UNL     1       6.292   3.984  17.166  0.00  0.00    +0.000 A 
ATOM     17  N   UNL     1       5.246   4.650  17.739  0.00  0.00    +0.000 N 
ATOM     18  H   UNL     1       2.831   1.552  20.032  0.00  0.00    +0.000 HD
ENDROOT
BRANCH  10  19
ATOM     19  C   UNL     1       1.791   6.886  18.127  0.00  0.00    +0.000 C 
BRANCH  19  20
ATOM     20  C   UNL     1       1.547   8.181  18.825  0.00  0.00    +0.000 A 
ATOM     21  C   UNL     1       1.353   9.343  18.074  0.00  0.00    +0.000 A 
ATOM     22  C   UNL     1       1.067  10.550  18.704  0.00  0.00    +0.000 A 
ATOM     23  C   UNL     1       0.979  10.614  20.103  0.00  0.00    +0.000 A 
ATOM     24  C   UNL     1       1.183   9.448  20.857  0.00  0.00    +0.000 A 
ATOM     25  C   UNL     1       1.469   8.240  20.228  0.00  0.00    +0.000 A 
BRANCH  23  26
ATOM     26  C   UNL     1       0.670  11.913  20.799  0.00  0.00    +0.000 C 
ATOM     27  F   UNL     1       1.767  12.683  21.031  0.00  0.00    +0.000 F 
ATOM     28  F   UNL     1      -0.188  12.692  20.081  0.00  0.00    +0.000 F 
ATOM     29  F   UNL     1       0.078  11.726  22.011  0.00  0.00    +0.000 F 
ENDBRANCH  23  26
ENDBRANCH  19  20
ENDBRANCH  10  19
TORSDOF 3
ENDMDL
MODEL 9
REMARK VINA RESULT:      -7.5      4.722      7.865
REMARK  Name = 
REMARK  3 active torsions:
REMARK  status: ('A' for Active; 'I' for Inactive)
REMARK    1  A    between atoms: N_10  and  C_11
REMARK    2  A    between atoms: C_11  and  C_12
REMARK    3  A    between atoms: C_15  and  C_16
REMARK                            x       y       z     vdW  Elec       q    Type
REMARK                         _______ _______ _______ _____ _____    ______ ____
ROOT
ATOM      1  O   UNL     1      -1.838  10.146  16.551  0.00  0.00    +0.000 OA
ATOM      2  C   UNL     1      -1.314  10.565  17.562  0.00  0.00    +0.000 C 
ATOM      3  C   UNL     1      -1.246   9.826  18.872  0.00  0.00    +0.000 C 
ATOM      4  C   UNL     1       0.004  10.464  19.501  0.00  0.00    +0.000 C 
ATOM      5  C   UNL     1      -0.074  11.863  18.947  0.00  0.00    +0.000 C 
ATOM      6  O   UNL     1       0.374  12.890  19.425  0.00  0.00    +0.000 OA
ATOM      7  N   UNL     1      -0.719  11.770  17.740  0.00  0.00    +0.000 N 
ATOM      8  C   UNL     1       1.211   9.744  18.905  0.00  0.00    +0.000 C 
ATOM      9  O   UNL     1       1.871  10.202  17.977  0.00  0.00    +0.000 OA
ATOM     10  N   UNL     1       1.374   8.460  19.392  0.00  0.00    +0.000 N 
ATOM     11  C   UNL     1       1.419   8.231  20.755  0.00  0.00    +0.000 C 
ATOM     12  O   UNL     1       1.946   7.244  21.259  0.00  0.00    +0.000 OA
ATOM     13  C   UNL     1       0.706   9.233  21.524  0.00  0.00    +0.000 A 
ATOM     14  C   UNL     1       0.473   9.290  22.886  0.00  0.00    +0.000 A 
ATOM     15  C   UNL     1      -0.486  10.307  23.109  0.00  0.00    +0.000 A 
ATOM     16  C   UNL     1      -0.763  10.895  21.891  0.00  0.00    +0.000 A 
ATOM     17  N   UNL     1       0.020  10.288  20.950  0.00  0.00    +0.000 N 
ATOM     18  H   UNL     1      -0.705  12.494  17.038  0.00  0.00    +0.000 HD
ENDROOT
BRANCH  10  19
ATOM     19  C   UNL     1       1.556   7.387  18.438  0.00  0.00    +0.000 C 
BRANCH  19  20
ATOM     20  C   UNL     1       2.954   6.903  18.251  0.00  0.00    +0.000 A 
ATOM     21  C   UNL     1       3.772   7.511  17.295  0.00  0.00    +0.000 A 
ATOM     22  C   UNL     1       5.097   7.114  17.145  0.00  0.00    +0.000 A 
ATOM     23  C   UNL     1       5.623   6.090  17.948  0.00  0.00    +0.000 A 
ATOM     24  C   UNL     1       4.798   5.474  18.902  0.00  0.00    +0.000 A 
ATOM     25  C   UNL     1       3.473   5.870  19.053  0.00  0.00    +0.000 A 
BRANCH  23  26
ATOM     26  C   UNL     1       7.055   5.649  17.797  0.00  0.00    +0.000 C 
ATOM     27  F   UNL     1       7.267   4.353  18.149  0.00  0.00    +0.000 F 
ATOM     28  F   UNL     1       7.499   5.766  16.514  0.00  0.00    +0.000 F 
ATOM     29  F   UNL     1       7.910   6.389  18.556  0.00  0.00    +0.000 F 
ENDBRANCH  23  26
ENDBRANCH  19  20
ENDBRANCH  10  19
TORSDOF 3
ENDMDL
