MODEL 1
REMARK VINA RESULT:      -9.3      0.000      0.000
REMARK  Name = 
REMARK  2 active torsions:
REMARK  status: ('A' for Active; 'I' for Inactive)
REMARK    1  A    between atoms: C_7  and  C_8
REMARK    2  A    between atoms: C_12  and  C_13
REMARK                            x       y       z     vdW  Elec       q    Type
REMARK                         _______ _______ _______ _____ _____    ______ ____
ROOT
ATOM      1  C   UNL     1       3.949   4.207  17.608  0.00  0.00    +0.000 A 
ATOM      2  C   UNL     1       4.021   3.295  18.662  0.00  0.00    +0.000 A 
ATOM      3  C   UNL     1       3.524   3.642  19.921  0.00  0.00    +0.000 A 
ATOM      4  C   UNL     1       2.924   4.893  20.135  0.00  0.00    +0.000 A 
ATOM      5  C   UNL     1       2.809   5.818  19.094  0.00  0.00    +0.000 A 
ATOM      6  C   UNL     1       3.362   5.458  17.843  0.00  0.00    +0.000 A 
ENDROOT
BRANCH   5   7
ATOM      7  C   UNL     1       2.180   7.153  19.263  0.00  0.00    +0.000 A 
ATOM      8  C   UNL     1       2.030   7.949  18.193  0.00  0.00    +0.000 A 
ATOM      9  C   UNL     1       1.756   9.365  18.415  0.00  0.00    +0.000 A 
ATOM     10  O   UNL     1       2.049  10.206  17.578  0.00  0.00    +0.000 OA
ATOM     11  C   UNL     1       1.102   9.684  19.678  0.00  0.00    +0.000 A 
ATOM     12  C   UNL     1       0.395  10.881  19.799  0.00  0.00    +0.000 A 
ATOM     13  C   UNL     1      -0.390  11.086  20.926  0.00  0.00    +0.000 A 
ATOM     14  C   UNL     1      -0.429  10.113  21.930  0.00  0.00    +0.000 A 
ATOM     15  C   UNL     1       0.338   8.941  21.825  0.00  0.00    +0.000 A 
ATOM     16  C   UNL     1       1.101   8.716  20.682  0.00  0.00    +0.000 A 
ATOM     17  O   UNL     1       1.809   7.534  20.556  0.00  0.00    +0.000 OA
ENDBRANCH   5   7
BRANCH   1  24
ATOM     18  O   UNL     1       8.262   5.463  13.353  0.00  0.00    +0.000 OA
ATOM     19  C   UNL     1       7.485   5.221  14.260  0.00  0.00    +0.000 C 
ATOM     20  N   UNL     1       7.483   5.823  15.478  0.00  0.00    +0.000 N 
ATOM     21  C   UNL     1       6.532   5.447  16.384  0.00  0.00    +0.000 C 
ATOM     22  O   UNL     1       6.468   5.885  17.521  0.00  0.00    +0.000 OA
ATOM     23  C   UNL     1       5.617   4.441  15.770  0.00  0.00    +0.000 C 
ATOM     24  C   UNL     1       4.512   3.894  16.300  0.00  0.00    +0.000 C 
ATOM     25  S   UNL     1       6.178   4.063  14.173  0.00  0.00    +0.000 S 
ATOM     26  H   UNL     1       8.186   6.499  15.719  0.00  0.00    +0.000 HD
ENDBRANCH   1  24
TORSDOF 2
ENDMDL
MODEL 2
REMARK VINA RESULT:      -9.0      1.021      1.977
REMARK  Name = 
REMARK  2 active torsions:
REMARK  status: ('A' for Active; 'I' for Inactive)
REMARK    1  A    between atoms: C_7  and  C_8
REMARK    2  A    between atoms: C_12  and  C_13
REMARK                            x       y       z     vdW  Elec       q    Type
REMARK                         _______ _______ _______ _____ _____    ______ ____
ROOT
ATOM      1  C   UNL     1       3.536   4.321  17.911  0.00  0.00    +0.000 A 
ATOM      2  C   UNL     1       3.580   3.336  18.897  0.00  0.00    +0.000 A 
ATOM      3  C   UNL     1       3.118   3.615  20.186  0.00  0.00    +0.000 A 
ATOM      4  C   UNL     1       2.579   4.872  20.497  0.00  0.00    +0.000 A 
ATOM      5  C   UNL     1       2.492   5.874  19.526  0.00  0.00    +0.000 A 
ATOM      6  C   UNL     1       3.011   5.578  18.243  0.00  0.00    +0.000 A 
ENDROOT
BRANCH   5   7
ATOM      7  C   UNL     1       1.928   7.220  19.797  0.00  0.00    +0.000 A 
ATOM      8  C   UNL     1       1.415   7.486  21.008  0.00  0.00    +0.000 A 
ATOM      9  C   UNL     1       0.554   8.656  21.154  0.00  0.00    +0.000 A 
ATOM     10  O   UNL     1      -0.286   8.717  22.041  0.00  0.00    +0.000 OA
ATOM     11  C   UNL     1       0.784   9.725  20.192  0.00  0.00    +0.000 A 
ATOM     12  C   UNL     1       0.374  11.023  20.500  0.00  0.00    +0.000 A 
ATOM     13  C   UNL     1       0.774  12.067  19.677  0.00  0.00    +0.000 A 
ATOM     14  C   UNL     1       1.544  11.798  18.541  0.00  0.00    +0.000 A 
ATOM     15  C   UNL     1       1.897  10.480  18.207  0.00  0.00    +0.000 A 
ATOM     16  C   UNL     1       1.525   9.433  19.047  0.00  0.00    +0.000 A 
ATOM     17  O   UNL     1       1.924   8.143  18.746  0.00  0.00    +0.000 OA
ENDBRANCH   5   7
BRANCH   1  24
ATOM     18  O   UNL     1       8.030   5.422  13.804  0.00  0.00    +0.000 OA
ATOM     19  C   UNL     1       7.217   5.193  14.682  0.00  0.00    +0.000 C 
ATOM     20  N   UNL     1       7.284   5.655  15.957  0.00  0.00    +0.000 N 
ATOM     21  C   UNL     1       6.279   5.318  16.821  0.00  0.00    +0.000 C 
ATOM     22  O   UNL     1       6.263   5.636  17.999  0.00  0.00    +0.000 OA
ATOM     23  C   UNL     1       5.242   4.519  16.104  0.00  0.00    +0.000 C 
ATOM     24  C   UNL     1       4.067   4.076  16.575  0.00  0.00    +0.000 C 
ATOM     25  S   UNL     1       5.765   4.243  14.474  0.00  0.00    +0.000 S 
ATOM     26  H   UNL     1       8.071   6.197  16.268  0.00  0.00    +0.000 HD
ENDBRANCH   1  24
TORSDOF 2
ENDMDL
MODEL 3
REMARK VINA RESULT:      -8.5      1.539      1.769
REMARK  Name = 
REMARK  2 active torsions:
REMARK  status: ('A' for Active; 'I' for Inactive)
REMARK    1  A    between atoms: C_7  and  C_8
REMARK    2  A    between atoms: C_12  and  C_13
REMARK                            x       y       z     vdW  Elec       q    Type
REMARK                         _______ _______ _______ _____ _____    ______ ____
ROOT
ATOM      1  C   UNL     1       3.973   4.692  19.557  0.00  0.00    +0.000 A 
ATOM      2  C   UNL     1       3.225   3.570  19.913  0.00  0.00    +0.000 A 
ATOM      3  C   UNL     1       1.947   3.726  20.458  0.00  0.00    +0.000 A 
ATOM      4  C   UNL     1       1.391   5.003  20.625  0.00  0.00    +0.000 A 
ATOM      5  C   UNL     1       2.101   6.148  20.252  0.00  0.00    +0.000 A 
ATOM      6  C   UNL     1       3.410   5.962  19.747  0.00  0.00    +0.000 A 
ENDROOT
BRANCH   5   7
ATOM      7  C   UNL     1       1.560   7.522  20.403  0.00  0.00    +0.000 A 
ATOM      8  C   UNL     1       1.462   8.313  19.323  0.00  0.00    +0.000 A 
ATOM      9  C   UNL     1       1.281   9.747  19.528  0.00  0.00    +0.000 A 
ATOM     10  O   UNL     1       1.629  10.556  18.681  0.00  0.00    +0.000 OA
ATOM     11  C   UNL     1       0.649  10.123  20.786  0.00  0.00    +0.000 A 
ATOM     12  C   UNL     1       0.021  11.365  20.891  0.00  0.00    +0.000 A 
ATOM     13  C   UNL     1      -0.750  11.635  22.015  0.00  0.00    +0.000 A 
ATOM     14  C   UNL     1      -0.852  10.678  23.030  0.00  0.00    +0.000 A 
ATOM     15  C   UNL     1      -0.163   9.457  22.941  0.00  0.00    +0.000 A 
ATOM     16  C   UNL     1       0.584   9.170  21.802  0.00  0.00    +0.000 A 
ATOM     17  O   UNL     1       1.214   7.942  21.691  0.00  0.00    +0.000 OA
ENDBRANCH   5   7
BRANCH   1  24
ATOM     18  O   UNL     1       7.819   5.370  14.757  0.00  0.00    +0.000 OA
ATOM     19  C   UNL     1       7.024   5.326  15.679  0.00  0.00    +0.000 C 
ATOM     20  N   UNL     1       5.732   5.741  15.626  0.00  0.00    +0.000 N 
ATOM     21  C   UNL     1       4.963   5.611  16.748  0.00  0.00    +0.000 C 
ATOM     22  O   UNL     1       3.808   5.994  16.827  0.00  0.00    +0.000 OA
ATOM     23  C   UNL     1       5.751   4.945  17.827  0.00  0.00    +0.000 C 
ATOM     24  C   UNL     1       5.331   4.562  19.042  0.00  0.00    +0.000 C 
ATOM     25  S   UNL     1       7.372   4.685  17.268  0.00  0.00    +0.000 S 
ATOM     26  H   UNL     1       5.362   6.168  14.795  0.00  0.00    +0.000 HD
ENDBRANCH   1  24
TORSDOF 2
ENDMDL
MODEL 4
REMARK VINA RESULT:      -8.4      1.338      1.767
REMARK  Name = 
REMARK  2 active torsions:
REMARK  status: ('A' for Active; 'I' for Inactive)
REMARK    1  A    between atoms: C_7  and  C_8
REMARK    2  A    between atoms: C_12  and  C_13
REMARK                            x       y       z     vdW  Elec       q    Type
REMARK                         _______ _______ _______ _____ _____    ______ ____
ROOT
ATOM      1  C   UNL     1       2.802   5.117  18.645  0.00  0.00    +0.000 A 
ATOM      2  C   UNL     1       2.691   4.171  19.664  0.00  0.00    +0.000 A 
ATOM      3  C   UNL     1       2.163   4.538  20.904  0.00  0.00    +0.000 A 
ATOM      4  C   UNL     1       1.713   5.848  21.132  0.00  0.00    +0.000 A 
ATOM      5  C   UNL     1       1.782   6.814  20.124  0.00  0.00    +0.000 A 
ATOM      6  C   UNL     1       2.365   6.426  18.894  0.00  0.00    +0.000 A 
ENDROOT
BRANCH   5   7
ATOM      7  C   UNL     1       1.318   8.212  20.308  0.00  0.00    +0.000 A 
ATOM      8  C   UNL     1       1.319   9.049  19.259  0.00  0.00    +0.000 A 
ATOM      9  C   UNL     1       1.213  10.482  19.515  0.00  0.00    +0.000 A 
ATOM     10  O   UNL     1       1.649  11.301  18.719  0.00  0.00    +0.000 OA
ATOM     11  C   UNL     1       0.546  10.847  20.758  0.00  0.00    +0.000 A 
ATOM     12  C   UNL     1      -0.011  12.120  20.887  0.00  0.00    +0.000 A 
ATOM     13  C   UNL     1      -0.817  12.392  21.985  0.00  0.00    +0.000 A 
ATOM     14  C   UNL     1      -1.024  11.406  22.954  0.00  0.00    +0.000 A 
ATOM     15  C   UNL     1      -0.405  10.149  22.845  0.00  0.00    +0.000 A 
ATOM     16  C   UNL     1       0.377   9.861  21.729  0.00  0.00    +0.000 A 
ATOM     17  O   UNL     1       0.937   8.602  21.596  0.00  0.00    +0.000 OA
ENDBRANCH   5   7
BRANCH   1  24
ATOM     18  O   UNL     1       7.942   4.807  15.216  0.00  0.00    +0.000 OA
ATOM     19  C   UNL     1       6.983   4.828  15.966  0.00  0.00    +0.000 C 
ATOM     20  N   UNL     1       7.018   5.167  17.281  0.00  0.00    +0.000 N 
ATOM     21  C   UNL     1       5.847   5.155  17.984  0.00  0.00    +0.000 C 
ATOM     22  O   UNL     1       5.770   5.393  19.178  0.00  0.00    +0.000 OA
ATOM     23  C   UNL     1       4.715   4.807  17.076  0.00  0.00    +0.000 C 
ATOM     24  C   UNL     1       3.404   4.777  17.361  0.00  0.00    +0.000 C 
ATOM     25  S   UNL     1       5.340   4.456  15.497  0.00  0.00    +0.000 S 
ATOM     26  H   UNL     1       7.889   5.383  17.733  0.00  0.00    +0.000 HD
ENDBRANCH   1  24
TORSDOF 2
ENDMDL
MODEL 5
REMARK VINA RESULT:      -8.1      1.662      2.525
REMARK  Name = 
REMARK  2 active torsions:
REMARK  status: ('A' for Active; 'I' for Inactive)
REMARK    1  A    between atoms: C_7  and  C_8
REMARK    2  A    between atoms: C_12  and  C_13
REMARK                            x       y       z     vdW  Elec       q    Type
REMARK                         _______ _______ _______ _____ _____    ______ ____
ROOT
ATOM      1  C   UNL     1       3.990   4.694  19.505  0.00  0.00    +0.000 A 
ATOM      2  C   UNL     1       3.226   3.585  19.870  0.00  0.00    +0.000 A 
ATOM      3  C   UNL     1       1.952   3.762  20.414  0.00  0.00    +0.000 A 
ATOM      4  C   UNL     1       1.414   5.048  20.574  0.00  0.00    +0.000 A 
ATOM      5  C   UNL     1       2.139   6.180  20.192  0.00  0.00    +0.000 A 
ATOM      6  C   UNL     1       3.445   5.973  19.688  0.00  0.00    +0.000 A 
ENDROOT
BRANCH   5   7
ATOM      7  C   UNL     1       1.618   7.563  20.334  0.00  0.00    +0.000 A 
ATOM      8  C   UNL     1       1.123   7.962  21.516  0.00  0.00    +0.000 A 
ATOM      9  C   UNL     1       0.299   9.166  21.552  0.00  0.00    +0.000 A 
ATOM     10  O   UNL     1      -0.531   9.339  22.433  0.00  0.00    +0.000 OA
ATOM     11  C   UNL     1       0.553  10.129  20.489  0.00  0.00    +0.000 A 
ATOM     12  C   UNL     1       0.185  11.462  20.671  0.00  0.00    +0.000 A 
ATOM     13  C   UNL     1       0.609  12.409  19.748  0.00  0.00    +0.000 A 
ATOM     14  C   UNL     1       1.361  12.007  18.640  0.00  0.00    +0.000 A 
ATOM     15  C   UNL     1       1.671  10.652  18.434  0.00  0.00    +0.000 A 
ATOM     16  C   UNL     1       1.276   9.704  19.374  0.00  0.00    +0.000 A 
ATOM     17  O   UNL     1       1.633   8.379  19.198  0.00  0.00    +0.000 OA
ENDBRANCH   5   7
BRANCH   1  24
ATOM     18  O   UNL     1       7.861   5.369  14.726  0.00  0.00    +0.000 OA
ATOM     19  C   UNL     1       7.063   5.327  15.646  0.00  0.00    +0.000 C 
ATOM     20  N   UNL     1       5.781   5.774  15.598  0.00  0.00    +0.000 N 
ATOM     21  C   UNL     1       5.007   5.641  16.716  0.00  0.00    +0.000 C 
ATOM     22  O   UNL     1       3.861   6.050  16.800  0.00  0.00    +0.000 OA
ATOM     23  C   UNL     1       5.777   4.937  17.784  0.00  0.00    +0.000 C 
ATOM     24  C   UNL     1       5.346   4.541  18.991  0.00  0.00    +0.000 C 
ATOM     25  S   UNL     1       7.392   4.649  17.223  0.00  0.00    +0.000 S 
ATOM     26  H   UNL     1       5.424   6.225  14.774  0.00  0.00    +0.000 HD
ENDBRANCH   1  24
TORSDOF 2
ENDMDL
MODEL 6
REMARK VINA RESULT:      -7.9      2.128      3.203
REMARK  Name = 
REMARK  2 active torsions:
REMARK  status: ('A' for Active; 'I' for Inactive)
REMARK    1  A    between atoms: C_7  and  C_8
REMARK    2  A    between atoms: C_12  and  C_13
REMARK                            x       y       z     vdW  Elec       q    Type
REMARK                         _______ _______ _______ _____ _____    ______ ____
ROOT
ATOM      1  C   UNL     1       2.574   5.898  18.672  0.00  0.00    +0.000 A 
ATOM      2  C   UNL     1       2.217   5.083  19.747  0.00  0.00    +0.000 A 
ATOM      3  C   UNL     1       1.596   5.638  20.869  0.00  0.00    +0.000 A 
ATOM      4  C   UNL     1       1.299   7.008  20.918  0.00  0.00    +0.000 A 
ATOM      5  C   UNL     1       1.616   7.849  19.847  0.00  0.00    +0.000 A 
ATOM      6  C   UNL     1       2.287   7.268  18.745  0.00  0.00    +0.000 A 
ENDROOT
BRANCH   5   7
ATOM      7  C   UNL     1       1.321   9.304  19.843  0.00  0.00    +0.000 A 
ATOM      8  C   UNL     1       0.597   9.831  20.843  0.00  0.00    +0.000 A 
ATOM      9  C   UNL     1       0.014  11.156  20.652  0.00  0.00    +0.000 A 
ATOM     10  O   UNL     1      -0.983  11.503  21.270  0.00  0.00    +0.000 OA
ATOM     11  C   UNL     1       0.711  12.015  19.704  0.00  0.00    +0.000 A 
ATOM     12  C   UNL     1       0.540  13.397  19.781  0.00  0.00    +0.000 A 
ATOM     13  C   UNL     1       1.357  14.219  19.014  0.00  0.00    +0.000 A 
ATOM     14  C   UNL     1       2.303  13.648  18.156  0.00  0.00    +0.000 A 
ATOM     15  C   UNL     1       2.420  12.253  18.040  0.00  0.00    +0.000 A 
ATOM     16  C   UNL     1       1.626  11.427  18.832  0.00  0.00    +0.000 A 
ATOM     17  O   UNL     1       1.785  10.054  18.758  0.00  0.00    +0.000 OA
ENDBRANCH   5   7
BRANCH   1  24
ATOM     18  O   UNL     1       7.989   4.308  16.135  0.00  0.00    +0.000 OA
ATOM     19  C   UNL     1       6.953   4.576  16.719  0.00  0.00    +0.000 C 
ATOM     20  N   UNL     1       6.861   4.987  18.009  0.00  0.00    +0.000 N 
ATOM     21  C   UNL     1       5.621   5.263  18.513  0.00  0.00    +0.000 C 
ATOM     22  O   UNL     1       5.417   5.591  19.671  0.00  0.00    +0.000 OA
ATOM     23  C   UNL     1       4.592   5.097  17.446  0.00  0.00    +0.000 C 
ATOM     24  C   UNL     1       3.277   5.355  17.515  0.00  0.00    +0.000 C 
ATOM     25  S   UNL     1       5.360   4.519  16.002  0.00  0.00    +0.000 S 
ATOM     26  H   UNL     1       7.679   5.050  18.589  0.00  0.00    +0.000 HD
ENDBRANCH   1  24
TORSDOF 2
ENDMDL
MODEL 7
REMARK VINA RESULT:      -7.9      4.255      6.745
REMARK  Name = 
REMARK  2 active torsions:
REMARK  status: ('A' for Active; 'I' for Inactive)
REMARK    1  A    between atoms: C_7  and  C_8
REMARK    2  A    between atoms: C_12  and  C_13
REMARK                            x       y       z     vdW  Elec       q    Type
REMARK                         _______ _______ _______ _____ _____    ______ ____
ROOT
ATOM      1  C   UNL     1       1.351  10.009  18.201  0.00  0.00    +0.000 A 
ATOM      2  C   UNL     1       2.075  11.101  18.681  0.00  0.00    +0.000 A 
ATOM      3  C   UNL     1       1.413  12.286  19.014  0.00  0.00    +0.000 A 
ATOM      4  C   UNL     1       0.019  12.384  18.897  0.00  0.00    +0.000 A 
ATOM      5  C   UNL     1      -0.740  11.301  18.447  0.00  0.00    +0.000 A 
ATOM      6  C   UNL     1      -0.040  10.130  18.074  0.00  0.00    +0.000 A 
ENDROOT
BRANCH   5   7
ATOM      7  C   UNL     1      -2.218  11.348  18.308  0.00  0.00    +0.000 A 
ATOM      8  C   UNL     1      -2.805  10.689  17.298  0.00  0.00    +0.000 A 
ATOM      9  C   UNL     1      -4.184  11.027  16.958  0.00  0.00    +0.000 A 
ATOM     10  O   UNL     1      -4.624  10.835  15.833  0.00  0.00    +0.000 OA
ATOM     11  C   UNL     1      -4.978  11.580  18.047  0.00  0.00    +0.000 A 
ATOM     12  C   UNL     1      -6.370  11.508  17.983  0.00  0.00    +0.000 A 
ATOM     13  C   UNL     1      -7.113  11.850  19.106  0.00  0.00    +0.000 A 
ATOM     14  C   UNL     1      -6.459  12.293  20.260  0.00  0.00    +0.000 A 
ATOM     15  C   UNL     1      -5.060  12.423  20.289  0.00  0.00    +0.000 A 
ATOM     16  C   UNL     1      -4.310  12.050  19.177  0.00  0.00    +0.000 A 
ATOM     17  O   UNL     1      -2.929  12.124  19.230  0.00  0.00    +0.000 OA
ENDBRANCH   5   7
BRANCH   1  24
ATOM     18  O   UNL     1       3.723   4.549  19.888  0.00  0.00    +0.000 OA
ATOM     19  C   UNL     1       3.178   5.604  19.615  0.00  0.00    +0.000 C 
ATOM     20  N   UNL     1       2.511   6.397  20.493  0.00  0.00    +0.000 N 
ATOM     21  C   UNL     1       1.965   7.560  20.028  0.00  0.00    +0.000 C 
ATOM     22  O   UNL     1       1.305   8.322  20.716  0.00  0.00    +0.000 OA
ATOM     23  C   UNL     1       2.297   7.734  18.584  0.00  0.00    +0.000 C 
ATOM     24  C   UNL     1       2.022   8.781  17.791  0.00  0.00    +0.000 C 
ATOM     25  S   UNL     1       3.166   6.339  18.029  0.00  0.00    +0.000 S 
ATOM     26  H   UNL     1       2.390   6.116  21.450  0.00  0.00    +0.000 HD
ENDBRANCH   1  24
TORSDOF 2
ENDMDL
MODEL 8
REMARK VINA RESULT:      -7.8      1.846      2.607
REMARK  Name = 
REMARK  2 active torsions:
REMARK  status: ('A' for Active; 'I' for Inactive)
REMARK    1  A    between atoms: C_7  and  C_8
REMARK    2  A    between atoms: C_12  and  C_13
REMARK                            x       y       z     vdW  Elec       q    Type
REMARK                         _______ _______ _______ _____ _____    ______ ____
ROOT
ATOM      1  C   UNL     1       2.673   5.806  18.645  0.00  0.00    +0.000 A 
ATOM      2  C   UNL     1       2.273   5.086  19.771  0.00  0.00    +0.000 A 
ATOM      3  C   UNL     1       1.589   5.730  20.805  0.00  0.00    +0.000 A 
ATOM      4  C   UNL     1       1.272   7.094  20.714  0.00  0.00    +0.000 A 
ATOM      5  C   UNL     1       1.631   7.839  19.588  0.00  0.00    +0.000 A 
ATOM      6  C   UNL     1       2.364   7.172  18.577  0.00  0.00    +0.000 A 
ENDROOT
BRANCH   5   7
ATOM      7  C   UNL     1       1.317   9.282  19.437  0.00  0.00    +0.000 A 
ATOM      8  C   UNL     1       1.852   9.968  18.415  0.00  0.00    +0.000 A 
ATOM      9  C   UNL     1       1.838  11.426  18.476  0.00  0.00    +0.000 A 
ATOM     10  O   UNL     1       2.662  12.093  17.866  0.00  0.00    +0.000 OA
ATOM     11  C   UNL     1       0.777  12.007  19.288  0.00  0.00    +0.000 A 
ATOM     12  C   UNL     1       0.386  13.327  19.059  0.00  0.00    +0.000 A 
ATOM     13  C   UNL     1      -0.753  13.809  19.691  0.00  0.00    +0.000 A 
ATOM     14  C   UNL     1      -1.462  12.981  20.567  0.00  0.00    +0.000 A 
ATOM     15  C   UNL     1      -1.021  11.675  20.838  0.00  0.00    +0.000 A 
ATOM     16  C   UNL     1       0.102  11.177  20.182  0.00  0.00    +0.000 A 
ATOM     17  O   UNL     1       0.500   9.871  20.407  0.00  0.00    +0.000 OA
ENDBRANCH   5   7
BRANCH   1  24
ATOM     18  O   UNL     1       8.227   4.080  16.535  0.00  0.00    +0.000 OA
ATOM     19  C   UNL     1       7.161   4.384  17.040  0.00  0.00    +0.000 C 
ATOM     20  N   UNL     1       6.998   4.907  18.282  0.00  0.00    +0.000 N 
ATOM     21  C   UNL     1       5.731   5.208  18.696  0.00  0.00    +0.000 C 
ATOM     22  O   UNL     1       5.464   5.635  19.808  0.00  0.00    +0.000 OA
ATOM     23  C   UNL     1       4.759   4.931  17.598  0.00  0.00    +0.000 C 
ATOM     24  C   UNL     1       3.440   5.174  17.578  0.00  0.00    +0.000 C 
ATOM     25  S   UNL     1       5.607   4.239  16.252  0.00  0.00    +0.000 S 
ATOM     26  H   UNL     1       7.784   5.034  18.894  0.00  0.00    +0.000 HD
ENDBRANCH   1  24
TORSDOF 2
ENDMDL
MODEL 9
REMARK VINA RESULT:      -7.8      4.056      8.213
REMARK  Name = 
REMARK  2 active torsions:
REMARK  status: ('A' for Active; 'I' for Inactive)
REMARK    1  A    between atoms: C_7  and  C_8
REMARK    2  A    between atoms: C_12  and  C_13
REMARK                            x       y       z     vdW  Elec       q    Type
REMARK                         _______ _______ _______ _____ _____    ______ ____
ROOT
ATOM      1  C   UNL     1       0.604  10.013  19.689  0.00  0.00    +0.000 A 
ATOM      2  C   UNL     1       0.213   9.829  21.015  0.00  0.00    +0.000 A 
ATOM      3  C   UNL     1       0.576   8.663  21.695  0.00  0.00    +0.000 A 
ATOM      4  C   UNL     1       1.358   7.681  21.067  0.00  0.00    +0.000 A 
ATOM      5  C   UNL     1       1.791   7.847  19.749  0.00  0.00    +0.000 A 
ATOM      6  C   UNL     1       1.369   9.015  19.070  0.00  0.00    +0.000 A 
ENDROOT
BRANCH   5   7
ATOM      7  C   UNL     1       2.622   6.844  19.036  0.00  0.00    +0.000 A 
ATOM      8  C   UNL     1       2.478   5.542  19.328  0.00  0.00    +0.000 A 
ATOM      9  C   UNL     1       3.523   4.616  18.905  0.00  0.00    +0.000 A 
ATOM     10  O   UNL     1       3.707   3.558  19.490  0.00  0.00    +0.000 OA
ATOM     11  C   UNL     1       4.298   5.037  17.745  0.00  0.00    +0.000 A 
ATOM     12  C   UNL     1       4.976   4.078  16.991  0.00  0.00    +0.000 A 
ATOM     13  C   UNL     1       5.541   4.453  15.779  0.00  0.00    +0.000 A 
ATOM     14  C   UNL     1       5.454   5.783  15.357  0.00  0.00    +0.000 A 
ATOM     15  C   UNL     1       4.825   6.752  16.156  0.00  0.00    +0.000 A 
ATOM     16  C   UNL     1       4.228   6.374  17.356  0.00  0.00    +0.000 A 
ATOM     17  O   UNL     1       3.558   7.320  18.112  0.00  0.00    +0.000 OA
ENDBRANCH   5   7
BRANCH   1  24
ATOM     18  O   UNL     1       0.597  16.185  19.256  0.00  0.00    +0.000 OA
ATOM     19  C   UNL     1       0.696  14.976  19.366  0.00  0.00    +0.000 C 
ATOM     20  N   UNL     1       1.397  14.326  20.330  0.00  0.00    +0.000 N 
ATOM     21  C   UNL     1       1.396  12.960  20.322  0.00  0.00    +0.000 C 
ATOM     22  O   UNL     1       2.029  12.277  21.109  0.00  0.00    +0.000 OA
ATOM     23  C   UNL     1       0.521  12.461  19.221  0.00  0.00    +0.000 C 
ATOM     24  C   UNL     1       0.189  11.192  18.937  0.00  0.00    +0.000 C 
ATOM     25  S   UNL     1      -0.078  13.813  18.315  0.00  0.00    +0.000 S 
ATOM     26  H   UNL     1       1.933  14.838  21.009  0.00  0.00    +0.000 HD
ENDBRANCH   1  24
TORSDOF 2
ENDMDL
