MODEL 1
REMARK VINA RESULT:      -7.2      0.000      0.000
REMARK  Name = 
REMARK  5 active torsions:
REMARK  status: ('A' for Active; 'I' for Inactive)
REMARK    1  A    between atoms: C_2  and  C_3
REMARK    2  A    between atoms: C_6  and  C_7
REMARK    3  A    between atoms: C_7  and  N_8
REMARK    4  A    between atoms: N_8  and  C_9
REMARK    5  A    between atoms: C_12  and  C_13
REMARK                            x       y       z     vdW  Elec       q    Type
REMARK                         _______ _______ _______ _____ _____    ______ ____
ROOT
ATOM      1  C   UNL     1       1.990   8.569  18.433  0.00  0.00    +0.000 A 
ATOM      2  C   UNL     1       1.634   8.176  19.723  0.00  0.00    +0.000 A 
ATOM      3  C   UNL     1       2.075   6.963  20.245  0.00  0.00    +0.000 A 
ATOM      4  C   UNL     1       2.821   6.070  19.464  0.00  0.00    +0.000 A 
ATOM      5  C   UNL     1       3.246   6.503  18.200  0.00  0.00    +0.000 A 
ATOM      6  C   UNL     1       2.800   7.720  17.678  0.00  0.00    +0.000 A 
ENDROOT
BRANCH   4   7
ATOM      7  C   UNL     1       3.109   4.657  19.965  0.00  0.00    +0.000 C 
ATOM      8  C   UNL     1       2.040   4.110  20.958  0.00  0.00    +0.000 C 
ATOM      9  N   UNL     1       0.714   3.940  20.321  0.00  0.00    +0.000 NA
ATOM     10  C   UNL     1       0.886   2.994  19.206  0.00  0.00    +0.000 C 
ATOM     11  C   UNL     1       2.009   3.392  18.236  0.00  0.00    +0.000 C 
ATOM     12  O   UNL     1       3.252   3.705  18.887  0.00  0.00    +0.000 OA
ATOM     13  H   UNL     1       0.440   4.844  19.924  0.00  0.00    +0.000 HD
ENDBRANCH   4   7
BRANCH   1  14
ATOM     14  N   UNL     1       1.467   9.717  17.819  0.00  0.00    +0.000 N 
ATOM     15  H   UNL     1       0.777   9.433  17.122  0.00  0.00    +0.000 HD
BRANCH  14  16
ATOM     16  C   UNL     1       0.891  10.705  18.726  0.00  0.00    +0.000 C 
BRANCH  16  20
ATOM     17  C   UNL     1      -3.363  11.024  18.116  0.00  0.00    +0.000 A 
ATOM     18  C   UNL     1      -2.625  10.045  17.448  0.00  0.00    +0.000 A 
ATOM     19  C   UNL     1      -1.244   9.967  17.629  0.00  0.00    +0.000 A 
ATOM     20  C   UNL     1      -0.588  10.870  18.477  0.00  0.00    +0.000 A 
ATOM     21  C   UNL     1      -1.345  11.838  19.157  0.00  0.00    +0.000 A 
ATOM     22  C   UNL     1      -2.724  11.921  18.973  0.00  0.00    +0.000 A 
BRANCH  17  24
ATOM     23  N   UNL     1      -5.931  11.156  17.794  0.00  0.00    +0.000 NA
ATOM     24  C   UNL     1      -4.785  11.097  17.935  0.00  0.00    +0.000 C 
ENDBRANCH  17  24
ENDBRANCH  16  20
ENDBRANCH  14  16
ENDBRANCH   1  14
TORSDOF 5
ENDMDL
MODEL 2
REMARK VINA RESULT:      -7.0      3.438      4.692
REMARK  Name = 
REMARK  5 active torsions:
REMARK  status: ('A' for Active; 'I' for Inactive)
REMARK    1  A    between atoms: C_2  and  C_3
REMARK    2  A    between atoms: C_6  and  C_7
REMARK    3  A    between atoms: C_7  and  N_8
REMARK    4  A    between atoms: N_8  and  C_9
REMARK    5  A    between atoms: C_12  and  C_13
REMARK                            x       y       z     vdW  Elec       q    Type
REMARK                         _______ _______ _______ _____ _____    ______ ____
ROOT
ATOM      1  C   UNL     1       2.349   7.598  19.010  0.00  0.00    +0.000 A 
ATOM      2  C   UNL     1       3.057   7.868  17.838  0.00  0.00    +0.000 A 
ATOM      3  C   UNL     1       4.013   6.976  17.361  0.00  0.00    +0.000 A 
ATOM      4  C   UNL     1       4.346   5.823  18.083  0.00  0.00    +0.000 A 
ATOM      5  C   UNL     1       3.578   5.512  19.213  0.00  0.00    +0.000 A 
ATOM      6  C   UNL     1       2.621   6.411  19.691  0.00  0.00    +0.000 A 
ENDROOT
BRANCH   4   7
ATOM      7  C   UNL     1       5.544   4.970  17.670  0.00  0.00    +0.000 C 
ATOM      8  C   UNL     1       6.472   5.652  16.620  0.00  0.00    +0.000 C 
ATOM      9  N   UNL     1       7.133   6.864  17.155  0.00  0.00    +0.000 NA
ATOM     10  C   UNL     1       7.928   6.445  18.321  0.00  0.00    +0.000 C 
ATOM     11  C   UNL     1       7.118   5.653  19.360  0.00  0.00    +0.000 C 
ATOM     12  O   UNL     1       6.356   4.572  18.798  0.00  0.00    +0.000 OA
ATOM     13  H   UNL     1       6.402   7.498  17.488  0.00  0.00    +0.000 HD
ENDBRANCH   4   7
BRANCH   1  14
ATOM     14  N   UNL     1       1.472   8.522  19.597  0.00  0.00    +0.000 N 
ATOM     15  H   UNL     1       0.618   8.566  19.040  0.00  0.00    +0.000 HD
BRANCH  14  16
ATOM     16  C   UNL     1       1.149   8.275  20.999  0.00  0.00    +0.000 C 
BRANCH  16  20
ATOM     17  C   UNL     1      -0.873  11.710  22.634  0.00  0.00    +0.000 A 
ATOM     18  C   UNL     1      -0.052  11.841  21.513  0.00  0.00    +0.000 A 
ATOM     19  C   UNL     1       0.622  10.730  21.007  0.00  0.00    +0.000 A 
ATOM     20  C   UNL     1       0.483   9.477  21.621  0.00  0.00    +0.000 A 
ATOM     21  C   UNL     1      -0.360   9.356  22.737  0.00  0.00    +0.000 A 
ATOM     22  C   UNL     1      -1.029  10.466  23.247  0.00  0.00    +0.000 A 
BRANCH  17  24
ATOM     23  N   UNL     1      -2.138  13.772  23.564  0.00  0.00    +0.000 NA
ATOM     24  C   UNL     1      -1.572  12.854  23.148  0.00  0.00    +0.000 C 
ENDBRANCH  17  24
ENDBRANCH  16  20
ENDBRANCH  14  16
ENDBRANCH   1  14
TORSDOF 5
ENDMDL
MODEL 3
REMARK VINA RESULT:      -6.9      0.572      1.165
REMARK  Name = 
REMARK  5 active torsions:
REMARK  status: ('A' for Active; 'I' for Inactive)
REMARK    1  A    between atoms: C_2  and  C_3
REMARK    2  A    between atoms: C_6  and  C_7
REMARK    3  A    between atoms: C_7  and  N_8
REMARK    4  A    between atoms: N_8  and  C_9
REMARK    5  A    between atoms: C_12  and  C_13
REMARK                            x       y       z     vdW  Elec       q    Type
REMARK                         _______ _______ _______ _____ _____    ______ ____
ROOT
ATOM      1  C   UNL     1       1.762   8.666  18.960  0.00  0.00    +0.000 A 
ATOM      2  C   UNL     1       2.333   7.835  17.997  0.00  0.00    +0.000 A 
ATOM      3  C   UNL     1       2.637   6.509  18.290  0.00  0.00    +0.000 A 
ATOM      4  C   UNL     1       2.452   5.994  19.580  0.00  0.00    +0.000 A 
ATOM      5  C   UNL     1       1.802   6.805  20.522  0.00  0.00    +0.000 A 
ATOM      6  C   UNL     1       1.500   8.137  20.225  0.00  0.00    +0.000 A 
ENDROOT
BRANCH   4   7
ATOM      7  C   UNL     1       2.992   4.614  19.949  0.00  0.00    +0.000 C 
ATOM      8  C   UNL     1       2.157   3.881  21.041  0.00  0.00    +0.000 C 
ATOM      9  N   UNL     1       0.788   3.556  20.580  0.00  0.00    +0.000 NA
ATOM     10  C   UNL     1       0.922   2.693  19.395  0.00  0.00    +0.000 C 
ATOM     11  C   UNL     1       1.834   3.285  18.308  0.00  0.00    +0.000 C 
ATOM     12  O   UNL     1       3.105   3.740  18.803  0.00  0.00    +0.000 OA
ATOM     13  H   UNL     1       0.344   4.429  20.281  0.00  0.00    +0.000 HD
ENDBRANCH   4   7
BRANCH   1  14
ATOM     14  N   UNL     1       1.557  10.038  18.753  0.00  0.00    +0.000 N 
ATOM     15  H   UNL     1       1.180  10.177  17.814  0.00  0.00    +0.000 HD
BRANCH  14  16
ATOM     16  C   UNL     1       0.709  10.700  19.741  0.00  0.00    +0.000 C 
BRANCH  16  20
ATOM     17  C   UNL     1      -3.239  11.409  18.165  0.00  0.00    +0.000 A 
ATOM     18  C   UNL     1      -2.384  10.495  17.545  0.00  0.00    +0.000 A 
ATOM     19  C   UNL     1      -1.097  10.293  18.044  0.00  0.00    +0.000 A 
ATOM     20  C   UNL     1      -0.653  11.005  19.167  0.00  0.00    +0.000 A 
ATOM     21  C   UNL     1      -1.529  11.908  19.791  0.00  0.00    +0.000 A 
ATOM     22  C   UNL     1      -2.812  12.115  19.290  0.00  0.00    +0.000 A 
BRANCH  17  24
ATOM     23  N   UNL     1      -5.633  11.765  17.241  0.00  0.00    +0.000 NA
ATOM     24  C   UNL     1      -4.564  11.609  17.654  0.00  0.00    +0.000 C 
ENDBRANCH  17  24
ENDBRANCH  16  20
ENDBRANCH  14  16
ENDBRANCH   1  14
TORSDOF 5
ENDMDL
MODEL 4
REMARK VINA RESULT:      -6.9      3.780      8.371
REMARK  Name = 
REMARK  5 active torsions:
REMARK  status: ('A' for Active; 'I' for Inactive)
REMARK    1  A    between atoms: C_2  and  C_3
REMARK    2  A    between atoms: C_6  and  C_7
REMARK    3  A    between atoms: C_7  and  N_8
REMARK    4  A    between atoms: N_8  and  C_9
REMARK    5  A    between atoms: C_12  and  C_13
REMARK                            x       y       z     vdW  Elec       q    Type
REMARK                         _______ _______ _______ _____ _____    ______ ____
ROOT
ATOM      1  C   UNL     1       2.100   7.589  19.121  0.00  0.00    +0.000 A 
ATOM      2  C   UNL     1       2.067   8.467  18.039  0.00  0.00    +0.000 A 
ATOM      3  C   UNL     1       1.560   9.756  18.181  0.00  0.00    +0.000 A 
ATOM      4  C   UNL     1       0.998  10.180  19.393  0.00  0.00    +0.000 A 
ATOM      5  C   UNL     1       1.108   9.326  20.500  0.00  0.00    +0.000 A 
ATOM      6  C   UNL     1       1.615   8.032  20.352  0.00  0.00    +0.000 A 
ENDROOT
BRANCH   4   7
ATOM      7  C   UNL     1       0.248  11.507  19.476  0.00  0.00    +0.000 C 
ATOM      8  C   UNL     1       0.316  12.183  20.878  0.00  0.00    +0.000 C 
ATOM      9  N   UNL     1       1.693  12.591  21.241  0.00  0.00    +0.000 NA
ATOM     10  C   UNL     1       2.151  13.538  20.211  0.00  0.00    +0.000 C 
ATOM     11  C   UNL     1       2.006  12.999  18.779  0.00  0.00    +0.000 C 
ATOM     12  O   UNL     1       0.703  12.463  18.491  0.00  0.00    +0.000 OA
ATOM     13  H   UNL     1       2.289  11.760  21.188  0.00  0.00    +0.000 HD
ENDBRANCH   4   7
BRANCH   1  14
ATOM     14  N   UNL     1       2.481   6.244  18.996  0.00  0.00    +0.000 N 
ATOM     15  H   UNL     1       2.147   5.889  18.099  0.00  0.00    +0.000 HD
BRANCH  14  16
ATOM     16  C   UNL     1       3.909   5.982  19.144  0.00  0.00    +0.000 C 
BRANCH  16  20
ATOM     17  C   UNL     1       5.459   4.597  15.370  0.00  0.00    +0.000 A 
ATOM     18  C   UNL     1       5.085   3.684  16.358  0.00  0.00    +0.000 A 
ATOM     19  C   UNL     1       4.612   4.141  17.587  0.00  0.00    +0.000 A 
ATOM     20  C   UNL     1       4.511   5.516  17.841  0.00  0.00    +0.000 A 
ATOM     21  C   UNL     1       4.874   6.423  16.832  0.00  0.00    +0.000 A 
ATOM     22  C   UNL     1       5.353   5.968  15.606  0.00  0.00    +0.000 A 
BRANCH  17  24
ATOM     23  N   UNL     1       6.323   3.738  13.082  0.00  0.00    +0.000 NA
ATOM     24  C   UNL     1       5.939   4.125  14.102  0.00  0.00    +0.000 C 
ENDBRANCH  17  24
ENDBRANCH  16  20
ENDBRANCH  14  16
ENDBRANCH   1  14
TORSDOF 5
ENDMDL
MODEL 5
REMARK VINA RESULT:      -6.9      3.718      8.364
REMARK  Name = 
REMARK  5 active torsions:
REMARK  status: ('A' for Active; 'I' for Inactive)
REMARK    1  A    between atoms: C_2  and  C_3
REMARK    2  A    between atoms: C_6  and  C_7
REMARK    3  A    between atoms: C_7  and  N_8
REMARK    4  A    between atoms: N_8  and  C_9
REMARK    5  A    between atoms: C_12  and  C_13
REMARK                            x       y       z     vdW  Elec       q    Type
REMARK                         _______ _______ _______ _____ _____    ______ ____
ROOT
ATOM      1  C   UNL     1       2.169   7.388  19.407  0.00  0.00    +0.000 A 
ATOM      2  C   UNL     1       2.117   8.243  18.307  0.00  0.00    +0.000 A 
ATOM      3  C   UNL     1       1.537   9.504  18.411  0.00  0.00    +0.000 A 
ATOM      4  C   UNL     1       0.921   9.918  19.599  0.00  0.00    +0.000 A 
ATOM      5  C   UNL     1       1.048   9.093  20.725  0.00  0.00    +0.000 A 
ATOM      6  C   UNL     1       1.629   7.827  20.616  0.00  0.00    +0.000 A 
ENDROOT
BRANCH   4   7
ATOM      7  C   UNL     1       0.098  11.204  19.637  0.00  0.00    +0.000 C 
ATOM      8  C   UNL     1       0.225  11.997  20.972  0.00  0.00    +0.000 C 
ATOM      9  N   UNL     1       1.597  12.509  21.194  0.00  0.00    +0.000 NA
ATOM     10  C   UNL     1       1.919  13.392  20.061  0.00  0.00    +0.000 C 
ATOM     11  C   UNL     1       1.703  12.730  18.690  0.00  0.00    +0.000 C 
ATOM     12  O   UNL     1       0.419  12.099  18.548  0.00  0.00    +0.000 OA
ATOM     13  H   UNL     1       2.238  11.711  21.159  0.00  0.00    +0.000 HD
ENDBRANCH   4   7
BRANCH   1  14
ATOM     14  N   UNL     1       2.626   6.064  19.319  0.00  0.00    +0.000 N 
ATOM     15  H   UNL     1       2.181   5.615  18.517  0.00  0.00    +0.000 HD
BRANCH  14  16
ATOM     16  C   UNL     1       4.075   5.906  19.247  0.00  0.00    +0.000 C 
BRANCH  16  20
ATOM     17  C   UNL     1       5.460   4.569  15.392  0.00  0.00    +0.000 A 
ATOM     18  C   UNL     1       5.389   5.933  15.683  0.00  0.00    +0.000 A 
ATOM     19  C   UNL     1       4.913   6.358  16.923  0.00  0.00    +0.000 A 
ATOM     20  C   UNL     1       4.499   5.423  17.882  0.00  0.00    +0.000 A 
ATOM     21  C   UNL     1       4.593   4.054  17.583  0.00  0.00    +0.000 A 
ATOM     22  C   UNL     1       5.063   3.628  16.342  0.00  0.00    +0.000 A 
BRANCH  17  24
ATOM     23  N   UNL     1       6.358   3.788  13.090  0.00  0.00    +0.000 NA
ATOM     24  C   UNL     1       5.958   4.134  14.118  0.00  0.00    +0.000 C 
ENDBRANCH  17  24
ENDBRANCH  16  20
ENDBRANCH  14  16
ENDBRANCH   1  14
TORSDOF 5
ENDMDL
MODEL 6
REMARK VINA RESULT:      -6.9      3.620      8.253
REMARK  Name = 
REMARK  5 active torsions:
REMARK  status: ('A' for Active; 'I' for Inactive)
REMARK    1  A    between atoms: C_2  and  C_3
REMARK    2  A    between atoms: C_6  and  C_7
REMARK    3  A    between atoms: C_7  and  N_8
REMARK    4  A    between atoms: N_8  and  C_9
REMARK    5  A    between atoms: C_12  and  C_13
REMARK                            x       y       z     vdW  Elec       q    Type
REMARK                         _______ _______ _______ _____ _____    ______ ____
ROOT
ATOM      1  C   UNL     1       1.895   7.837  19.840  0.00  0.00    +0.000 A 
ATOM      2  C   UNL     1       1.245   8.235  21.008  0.00  0.00    +0.000 A 
ATOM      3  C   UNL     1       0.452   9.379  21.028  0.00  0.00    +0.000 A 
ATOM      4  C   UNL     1       0.349  10.204  19.901  0.00  0.00    +0.000 A 
ATOM      5  C   UNL     1       0.934   9.760  18.707  0.00  0.00    +0.000 A 
ATOM      6  C   UNL     1       1.731   8.612  18.691  0.00  0.00    +0.000 A 
ENDROOT
BRANCH   4   7
ATOM      7  C   UNL     1      -0.337  11.565  19.998  0.00  0.00    +0.000 C 
ATOM      8  C   UNL     1       0.053  12.380  21.267  0.00  0.00    +0.000 C 
ATOM      9  N   UNL     1       1.484  12.762  21.273  0.00  0.00    +0.000 NA
ATOM     10  C   UNL     1       1.721  13.575  20.069  0.00  0.00    +0.000 C 
ATOM     11  C   UNL     1       1.251  12.898  18.772  0.00  0.00    +0.000 C 
ATOM     12  O   UNL     1      -0.094  12.393  18.838  0.00  0.00    +0.000 OA
ATOM     13  H   UNL     1       2.037  11.904  21.183  0.00  0.00    +0.000 HD
ENDBRANCH   4   7
BRANCH   1  14
ATOM     14  N   UNL     1       2.804   6.769  19.803  0.00  0.00    +0.000 N 
ATOM     15  H   UNL     1       2.917   6.400  20.749  0.00  0.00    +0.000 HD
BRANCH  14  16
ATOM     16  C   UNL     1       2.465   5.691  18.878  0.00  0.00    +0.000 C 
BRANCH  16  20
ATOM     17  C   UNL     1       5.595   5.307  15.941  0.00  0.00    +0.000 A 
ATOM     18  C   UNL     1       5.315   6.548  16.517  0.00  0.00    +0.000 A 
ATOM     19  C   UNL     1       4.281   6.669  17.446  0.00  0.00    +0.000 A 
ATOM     20  C   UNL     1       3.516   5.551  17.804  0.00  0.00    +0.000 A 
ATOM     21  C   UNL     1       3.820   4.306  17.231  0.00  0.00    +0.000 A 
ATOM     22  C   UNL     1       4.848   4.184  16.299  0.00  0.00    +0.000 A 
BRANCH  17  24
ATOM     23  N   UNL     1       7.524   5.087  14.224  0.00  0.00    +0.000 NA
ATOM     24  C   UNL     1       6.665   5.184  14.992  0.00  0.00    +0.000 C 
ENDBRANCH  17  24
ENDBRANCH  16  20
ENDBRANCH  14  16
ENDBRANCH   1  14
TORSDOF 5
ENDMDL
MODEL 7
REMARK VINA RESULT:      -6.9      7.725     11.078
REMARK  Name = 
REMARK  5 active torsions:
REMARK  status: ('A' for Active; 'I' for Inactive)
REMARK    1  A    between atoms: C_2  and  C_3
REMARK    2  A    between atoms: C_6  and  C_7
REMARK    3  A    between atoms: C_7  and  N_8
REMARK    4  A    between atoms: N_8  and  C_9
REMARK    5  A    between atoms: C_12  and  C_13
REMARK                            x       y       z     vdW  Elec       q    Type
REMARK                         _______ _______ _______ _____ _____    ______ ____
ROOT
ATOM      1  C   UNL     1       9.223  10.165  19.030  0.00  0.00    +0.000 A 
ATOM      2  C   UNL     1       9.452  10.812  20.244  0.00  0.00    +0.000 A 
ATOM      3  C   UNL     1      10.027  12.080  20.278  0.00  0.00    +0.000 A 
ATOM      4  C   UNL     1      10.463  12.706  19.103  0.00  0.00    +0.000 A 
ATOM      5  C   UNL     1      10.157  12.091  17.881  0.00  0.00    +0.000 A 
ATOM      6  C   UNL     1       9.582  10.817  17.850  0.00  0.00    +0.000 A 
ENDROOT
BRANCH   4   7
ATOM      7  C   UNL     1      11.288  13.989  19.170  0.00  0.00    +0.000 C 
ATOM      8  C   UNL     1      11.413  14.731  17.805  0.00  0.00    +0.000 C 
ATOM      9  N   UNL     1      10.109  15.236  17.318  0.00  0.00    +0.000 NA
ATOM     10  C   UNL     1       9.591  16.160  18.340  0.00  0.00    +0.000 C 
ATOM     11  C   UNL     1       9.548  15.550  19.750  0.00  0.00    +0.000 C 
ATOM     12  O   UNL     1      10.780  14.924  20.148  0.00  0.00    +0.000 OA
ATOM     13  H   UNL     1       9.466  14.440  17.263  0.00  0.00    +0.000 HD
ENDBRANCH   4   7
BRANCH   1  14
ATOM     14  N   UNL     1       8.768   8.840  18.951  0.00  0.00    +0.000 N 
ATOM     15  H   UNL     1       8.131   8.663  19.730  0.00  0.00    +0.000 HD
BRANCH  14  16
ATOM     16  C   UNL     1       8.135   8.471  17.688  0.00  0.00    +0.000 C 
BRANCH  16  20
ATOM     17  C   UNL     1       5.670   4.993  18.314  0.00  0.00    +0.000 A 
ATOM     18  C   UNL     1       6.882   5.131  18.993  0.00  0.00    +0.000 A 
ATOM     19  C   UNL     1       7.688   6.246  18.763  0.00  0.00    +0.000 A 
ATOM     20  C   UNL     1       7.290   7.231  17.849  0.00  0.00    +0.000 A 
ATOM     21  C   UNL     1       6.060   7.089  17.187  0.00  0.00    +0.000 A 
ATOM     22  C   UNL     1       5.257   5.973  17.411  0.00  0.00    +0.000 A 
BRANCH  17  24
ATOM     23  N   UNL     1       4.168   2.928  18.761  0.00  0.00    +0.000 NA
ATOM     24  C   UNL     1       4.839   3.848  18.559  0.00  0.00    +0.000 C 
ENDBRANCH  17  24
ENDBRANCH  16  20
ENDBRANCH  14  16
ENDBRANCH   1  14
TORSDOF 5
ENDMDL
MODEL 8
REMARK VINA RESULT:      -6.8      1.900      2.929
REMARK  Name = 
REMARK  5 active torsions:
REMARK  status: ('A' for Active; 'I' for Inactive)
REMARK    1  A    between atoms: C_2  and  C_3
REMARK    2  A    between atoms: C_6  and  C_7
REMARK    3  A    between atoms: C_7  and  N_8
REMARK    4  A    between atoms: N_8  and  C_9
REMARK    5  A    between atoms: C_12  and  C_13
REMARK                            x       y       z     vdW  Elec       q    Type
REMARK                         _______ _______ _______ _____ _____    ______ ____
ROOT
ATOM      1  C   UNL     1       1.752   8.501  19.250  0.00  0.00    +0.000 A 
ATOM      2  C   UNL     1       2.077   7.324  19.924  0.00  0.00    +0.000 A 
ATOM      3  C   UNL     1       2.957   6.402  19.365  0.00  0.00    +0.000 A 
ATOM      4  C   UNL     1       3.478   6.591  18.078  0.00  0.00    +0.000 A 
ATOM      5  C   UNL     1       3.216   7.811  17.438  0.00  0.00    +0.000 A 
ATOM      6  C   UNL     1       2.331   8.733  18.002  0.00  0.00    +0.000 A 
ENDROOT
BRANCH   4   7
ATOM      7  C   UNL     1       4.260   5.476  17.388  0.00  0.00    +0.000 C 
ATOM      8  C   UNL     1       5.166   5.969  16.220  0.00  0.00    +0.000 C 
ATOM      9  N   UNL     1       6.255   6.857  16.688  0.00  0.00    +0.000 NA
ATOM     10  C   UNL     1       7.061   6.086  17.649  0.00  0.00    +0.000 C 
ATOM     11  C   UNL     1       6.229   5.454  18.776  0.00  0.00    +0.000 C 
ATOM     12  O   UNL     1       5.082   4.723  18.309  0.00  0.00    +0.000 OA
ATOM     13  H   UNL     1       5.827   7.636  17.196  0.00  0.00    +0.000 HD
ENDBRANCH   4   7
BRANCH   1  14
ATOM     14  N   UNL     1       0.775   9.396  19.712  0.00  0.00    +0.000 N 
ATOM     15  H   UNL     1       0.986   9.642  20.681  0.00  0.00    +0.000 HD
BRANCH  14  16
ATOM     16  C   UNL     1       0.602  10.602  18.909  0.00  0.00    +0.000 C 
BRANCH  16  20
ATOM     17  C   UNL     1      -3.602  11.136  18.129  0.00  0.00    +0.000 A 
ATOM     18  C   UNL     1      -2.879  10.148  17.458  0.00  0.00    +0.000 A 
ATOM     19  C   UNL     1      -1.513  10.001  17.695  0.00  0.00    +0.000 A 
ATOM     20  C   UNL     1      -0.856  10.843  18.603  0.00  0.00    +0.000 A 
ATOM     21  C   UNL     1      -1.599  11.820  19.284  0.00  0.00    +0.000 A 
ATOM     22  C   UNL     1      -2.963  11.973  19.044  0.00  0.00    +0.000 A 
BRANCH  17  24
ATOM     23  N   UNL     1      -6.143  11.397  17.690  0.00  0.00    +0.000 NA
ATOM     24  C   UNL     1      -5.010  11.280  17.889  0.00  0.00    +0.000 C 
ENDBRANCH  17  24
ENDBRANCH  16  20
ENDBRANCH  14  16
ENDBRANCH   1  14
TORSDOF 5
ENDMDL
MODEL 9
REMARK VINA RESULT:      -6.8      7.329     10.793
REMARK  Name = 
REMARK  5 active torsions:
REMARK  status: ('A' for Active; 'I' for Inactive)
REMARK    1  A    between atoms: C_2  and  C_3
REMARK    2  A    between atoms: C_6  and  C_7
REMARK    3  A    between atoms: C_7  and  N_8
REMARK    4  A    between atoms: N_8  and  C_9
REMARK    5  A    between atoms: C_12  and  C_13
REMARK                            x       y       z     vdW  Elec       q    Type
REMARK                         _______ _______ _______ _____ _____    ______ ____
ROOT
ATOM      1  C   UNL     1       9.304  10.162  19.054  0.00  0.00    +0.000 A 
ATOM      2  C   UNL     1       9.597  10.921  17.921  0.00  0.00    +0.000 A 
ATOM      3  C   UNL     1       9.967  12.258  18.035  0.00  0.00    +0.000 A 
ATOM      4  C   UNL     1       9.979  12.899  19.281  0.00  0.00    +0.000 A 
ATOM      5  C   UNL     1       9.766  12.115  20.423  0.00  0.00    +0.000 A 
ATOM      6  C   UNL     1       9.392  10.773  20.305  0.00  0.00    +0.000 A 
ENDROOT
BRANCH   4   7
ATOM      7  C   UNL     1      10.168  14.411  19.372  0.00  0.00    +0.000 C 
ATOM      8  C   UNL     1      10.008  15.150  18.009  0.00  0.00    +0.000 C 
ATOM      9  N   UNL     1       8.631  15.049  17.473  0.00  0.00    +0.000 NA
ATOM     10  C   UNL     1       7.731  15.649  18.472  0.00  0.00    +0.000 C 
ATOM     11  C   UNL     1       7.907  15.063  19.882  0.00  0.00    +0.000 C 
ATOM     12  O   UNL     1       9.273  15.025  20.327  0.00  0.00    +0.000 OA
ATOM     13  H   UNL     1       8.396  14.055  17.399  0.00  0.00    +0.000 HD
ENDBRANCH   4   7
BRANCH   1  14
ATOM     14  N   UNL     1       8.804   8.853  18.981  0.00  0.00    +0.000 N 
ATOM     15  H   UNL     1       8.151   8.706  19.752  0.00  0.00    +0.000 HD
BRANCH  14  16
ATOM     16  C   UNL     1       8.178   8.491  17.713  0.00  0.00    +0.000 C 
BRANCH  16  20
ATOM     17  C   UNL     1       5.686   5.028  18.313  0.00  0.00    +0.000 A 
ATOM     18  C   UNL     1       6.904   5.147  18.986  0.00  0.00    +0.000 A 
ATOM     19  C   UNL     1       7.718   6.258  18.764  0.00  0.00    +0.000 A 
ATOM     20  C   UNL     1       7.323   7.257  17.865  0.00  0.00    +0.000 A 
ATOM     21  C   UNL     1       6.088   7.133  17.208  0.00  0.00    +0.000 A 
ATOM     22  C   UNL     1       5.276   6.022  17.424  0.00  0.00    +0.000 A 
BRANCH  17  24
ATOM     23  N   UNL     1       4.173   2.967  18.735  0.00  0.00    +0.000 NA
ATOM     24  C   UNL     1       4.847   3.888  18.549  0.00  0.00    +0.000 C 
ENDBRANCH  17  24
ENDBRANCH  16  20
ENDBRANCH  14  16
ENDBRANCH   1  14
TORSDOF 5
ENDMDL
