MODEL 1
REMARK VINA RESULT:      -7.9      0.000      0.000
REMARK  Name = 
REMARK  8 active torsions:
REMARK  status: ('A' for Active; 'I' for Inactive)
REMARK    1  A    between atoms: C_1  and  C_2
REMARK    2  A    between atoms: C_2  and  O_3
REMARK    3  A    between atoms: O_3  and  C_4
REMARK    4  A    between atoms: C_4  and  C_6
REMARK    5  A    between atoms: C_7  and  N_8
REMARK    6  A    between atoms: N_8  and  C_9
REMARK    7  A    between atoms: C_9  and  C_10
REMARK    8  A    between atoms: C_17  and  C_18
REMARK                            x       y       z     vdW  Elec       q    Type
REMARK                         _______ _______ _______ _____ _____    ______ ____
ROOT
ATOM      1  C   UNL     1       5.838   5.271  17.113  0.00  0.00    +0.000 C 
ATOM      2  C   UNL     1       5.917   6.626  17.275  0.00  0.00    +0.000 C 
ATOM      3  N   UNL     1       4.830   7.411  17.686  0.00  0.00    +0.000 NA
ATOM      4  C   UNL     1       3.680   6.857  17.987  0.00  0.00    +0.000 C 
ATOM      5  N   UNL     1       3.489   5.503  17.802  0.00  0.00    +0.000 N 
ATOM      6  C   UNL     1       2.249   4.763  17.791  0.00  0.00    +0.000 C 
ATOM      7  C   UNL     1       2.687   3.392  17.281  0.00  0.00    +0.000 C 
ATOM      8  N   UNL     1       4.142   3.465  17.029  0.00  0.00    +0.000 NA
ATOM      9  C   UNL     1       4.483   4.698  17.311  0.00  0.00    +0.000 C 
ENDROOT
BRANCH   4  10
ATOM     10  C   UNL     1       2.579   7.747  18.505  0.00  0.00    +0.000 A 
ATOM     11  C   UNL     1       2.158   7.634  19.834  0.00  0.00    +0.000 A 
ATOM     12  C   UNL     1       1.207   8.525  20.350  0.00  0.00    +0.000 A 
ATOM     13  C   UNL     1       0.678   9.536  19.548  0.00  0.00    +0.000 A 
ATOM     14  C   UNL     1       1.048   9.619  18.210  0.00  0.00    +0.000 A 
ATOM     15  C   UNL     1       1.961   8.702  17.686  0.00  0.00    +0.000 A 
ENDBRANCH   4  10
BRANCH   1  16
ATOM     16  C   UNL     1       7.000   4.457  16.678  0.00  0.00    +0.000 C 
ATOM     17  O   UNL     1       8.063   4.397  17.284  0.00  0.00    +0.000 OA
BRANCH  16  18
ATOM     18  O   UNL     1       6.751   3.868  15.484  0.00  0.00    +0.000 OA
BRANCH  18  20
ATOM     19  C   UNL     1       5.957   3.870  13.195  0.00  0.00    +0.000 C 
ATOM     20  C   UNL     1       6.515   4.694  14.339  0.00  0.00    +0.000 C 
ENDBRANCH  18  20
ENDBRANCH  16  18
ENDBRANCH   1  16
BRANCH   2  21
ATOM     21  N   UNL     1       7.129   7.318  17.082  0.00  0.00    +0.000 N 
ATOM     22  H   UNL     1       6.948   8.220  16.627  0.00  0.00    +0.000 HD
BRANCH  21  23
ATOM     23  C   UNL     1       8.028   7.587  18.211  0.00  0.00    +0.000 C 
BRANCH  23  24
ATOM     24  C   UNL     1       8.388   9.055  18.270  0.00  0.00    +0.000 A 
ATOM     25  C   UNL     1       7.821   9.991  17.391  0.00  0.00    +0.000 A 
ATOM     26  C   UNL     1       8.161  11.346  17.479  0.00  0.00    +0.000 A 
ATOM     27  C   UNL     1       9.064  11.781  18.450  0.00  0.00    +0.000 A 
ATOM     28  C   UNL     1       9.619  10.865  19.339  0.00  0.00    +0.000 A 
ATOM     29  C   UNL     1       9.282   9.513  19.250  0.00  0.00    +0.000 A 
ENDBRANCH  23  24
ENDBRANCH  21  23
ENDBRANCH   2  21
TORSDOF 7
ENDMDL
MODEL 2
REMARK VINA RESULT:      -7.9      0.481      1.031
REMARK  Name = 
REMARK  8 active torsions:
REMARK  status: ('A' for Active; 'I' for Inactive)
REMARK    1  A    between atoms: C_1  and  C_2
REMARK    2  A    between atoms: C_2  and  O_3
REMARK    3  A    between atoms: O_3  and  C_4
REMARK    4  A    between atoms: C_4  and  C_6
REMARK    5  A    between atoms: C_7  and  N_8
REMARK    6  A    between atoms: N_8  and  C_9
REMARK    7  A    between atoms: C_9  and  C_10
REMARK    8  A    between atoms: C_17  and  C_18
REMARK                            x       y       z     vdW  Elec       q    Type
REMARK                         _______ _______ _______ _____ _____    ______ ____
ROOT
ATOM      1  C   UNL     1       6.073   5.540  17.052  0.00  0.00    +0.000 C 
ATOM      2  C   UNL     1       6.058   6.895  17.232  0.00  0.00    +0.000 C 
ATOM      3  N   UNL     1       4.921   7.596  17.657  0.00  0.00    +0.000 NA
ATOM      4  C   UNL     1       3.814   6.961  17.952  0.00  0.00    +0.000 C 
ATOM      5  N   UNL     1       3.716   5.599  17.750  0.00  0.00    +0.000 N 
ATOM      6  C   UNL     1       2.530   4.776  17.731  0.00  0.00    +0.000 C 
ATOM      7  C   UNL     1       3.060   3.445  17.201  0.00  0.00    +0.000 C 
ATOM      8  N   UNL     1       4.506   3.622  16.947  0.00  0.00    +0.000 NA
ATOM      9  C   UNL     1       4.762   4.872  17.245  0.00  0.00    +0.000 C 
ENDROOT
BRANCH   4  10
ATOM     10  C   UNL     1       2.655   7.765  18.484  0.00  0.00    +0.000 A 
ATOM     11  C   UNL     1       2.229   7.586  19.805  0.00  0.00    +0.000 A 
ATOM     12  C   UNL     1       1.220   8.401  20.337  0.00  0.00    +0.000 A 
ATOM     13  C   UNL     1       0.638   9.402  19.559  0.00  0.00    +0.000 A 
ATOM     14  C   UNL     1       1.015   9.549  18.229  0.00  0.00    +0.000 A 
ATOM     15  C   UNL     1       1.987   8.706  17.687  0.00  0.00    +0.000 A 
ENDBRANCH   4  10
BRANCH   1  16
ATOM     16  C   UNL     1       7.288   4.814  16.604  0.00  0.00    +0.000 C 
ATOM     17  O   UNL     1       8.014   4.164  17.346  0.00  0.00    +0.000 OA
BRANCH  16  18
ATOM     18  O   UNL     1       7.524   5.044  15.290  0.00  0.00    +0.000 OA
BRANCH  18  20
ATOM     19  C   UNL     1       7.158   4.751  12.913  0.00  0.00    +0.000 C 
ATOM     20  C   UNL     1       6.714   4.380  14.314  0.00  0.00    +0.000 C 
ENDBRANCH  18  20
ENDBRANCH  16  18
ENDBRANCH   1  16
BRANCH   2  21
ATOM     21  N   UNL     1       7.219   7.671  17.047  0.00  0.00    +0.000 N 
ATOM     22  H   UNL     1       6.965   8.602  16.700  0.00  0.00    +0.000 HD
BRANCH  21  23
ATOM     23  C   UNL     1       8.170   7.875  18.146  0.00  0.00    +0.000 C 
BRANCH  23  24
ATOM     24  C   UNL     1       8.492   9.344  18.309  0.00  0.00    +0.000 A 
ATOM     25  C   UNL     1       9.359   9.805  19.312  0.00  0.00    +0.000 A 
ATOM     26  C   UNL     1       9.652  11.169  19.430  0.00  0.00    +0.000 A 
ATOM     27  C   UNL     1       9.087  12.085  18.542  0.00  0.00    +0.000 A 
ATOM     28  C   UNL     1       8.241  11.640  17.531  0.00  0.00    +0.000 A 
ATOM     29  C   UNL     1       7.948  10.279  17.415  0.00  0.00    +0.000 A 
ENDBRANCH  23  24
ENDBRANCH  21  23
ENDBRANCH   2  21
TORSDOF 7
ENDMDL
MODEL 3
REMARK VINA RESULT:      -7.5      0.480      1.029
REMARK  Name = 
REMARK  8 active torsions:
REMARK  status: ('A' for Active; 'I' for Inactive)
REMARK    1  A    between atoms: C_1  and  C_2
REMARK    2  A    between atoms: C_2  and  O_3
REMARK    3  A    between atoms: O_3  and  C_4
REMARK    4  A    between atoms: C_4  and  C_6
REMARK    5  A    between atoms: C_7  and  N_8
REMARK    6  A    between atoms: N_8  and  C_9
REMARK    7  A    between atoms: C_9  and  C_10
REMARK    8  A    between atoms: C_17  and  C_18
REMARK                            x       y       z     vdW  Elec       q    Type
REMARK                         _______ _______ _______ _____ _____    ______ ____
ROOT
ATOM      1  C   UNL     1       6.086   5.559  17.118  0.00  0.00    +0.000 C 
ATOM      2  C   UNL     1       6.101   6.917  17.280  0.00  0.00    +0.000 C 
ATOM      3  N   UNL     1       4.977   7.649  17.687  0.00  0.00    +0.000 NA
ATOM      4  C   UNL     1       3.854   7.042  17.983  0.00  0.00    +0.000 C 
ATOM      5  N   UNL     1       3.727   5.680  17.798  0.00  0.00    +0.000 N 
ATOM      6  C   UNL     1       2.523   4.884  17.782  0.00  0.00    +0.000 C 
ATOM      7  C   UNL     1       3.027   3.535  17.273  0.00  0.00    +0.000 C 
ATOM      8  N   UNL     1       4.477   3.676  17.027  0.00  0.00    +0.000 NA
ATOM      9  C   UNL     1       4.759   4.924  17.310  0.00  0.00    +0.000 C 
ENDROOT
BRANCH   4  10
ATOM     10  C   UNL     1       2.709   7.879  18.496  0.00  0.00    +0.000 A 
ATOM     11  C   UNL     1       2.101   8.819  17.657  0.00  0.00    +0.000 A 
ATOM     12  C   UNL     1       0.973   9.527  18.094  0.00  0.00    +0.000 A 
ATOM     13  C   UNL     1       0.442   9.297  19.363  0.00  0.00    +0.000 A 
ATOM     14  C   UNL     1       1.075   8.408  20.224  0.00  0.00    +0.000 A 
ATOM     15  C   UNL     1       2.225   7.737  19.804  0.00  0.00    +0.000 A 
ENDBRANCH   4  10
BRANCH   1  16
ATOM     16  C   UNL     1       7.288   4.801  16.687  0.00  0.00    +0.000 C 
ATOM     17  O   UNL     1       8.017   4.178  17.449  0.00  0.00    +0.000 OA
BRANCH  16  18
ATOM     18  O   UNL     1       7.508   4.968  15.361  0.00  0.00    +0.000 OA
BRANCH  18  20
ATOM     19  C   UNL     1       7.026   4.670  13.005  0.00  0.00    +0.000 C 
ATOM     20  C   UNL     1       6.650   4.303  14.427  0.00  0.00    +0.000 C 
ENDBRANCH  18  20
ENDBRANCH  16  18
ENDBRANCH   1  16
BRANCH   2  21
ATOM     21  N   UNL     1       7.280   7.665  17.092  0.00  0.00    +0.000 N 
ATOM     22  H   UNL     1       7.053   8.581  16.690  0.00  0.00    +0.000 HD
BRANCH  21  23
ATOM     23  C   UNL     1       8.200   7.910  18.209  0.00  0.00    +0.000 C 
BRANCH  23  24
ATOM     24  C   UNL     1       8.525   9.383  18.320  0.00  0.00    +0.000 A 
ATOM     25  C   UNL     1       7.979  10.330  17.439  0.00  0.00    +0.000 A 
ATOM     26  C   UNL     1       8.286  11.689  17.575  0.00  0.00    +0.000 A 
ATOM     27  C   UNL     1       9.135  12.117  18.595  0.00  0.00    +0.000 A 
ATOM     28  C   UNL     1       9.668  11.191  19.487  0.00  0.00    +0.000 A 
ATOM     29  C   UNL     1       9.364   9.835  19.351  0.00  0.00    +0.000 A 
ENDBRANCH  23  24
ENDBRANCH  21  23
ENDBRANCH   2  21
TORSDOF 7
ENDMDL
MODEL 4
REMARK VINA RESULT:      -7.5      0.337      1.331
REMARK  Name = 
REMARK  8 active torsions:
REMARK  status: ('A' for Active; 'I' for Inactive)
REMARK    1  A    between atoms: C_1  and  C_2
REMARK    2  A    between atoms: C_2  and  O_3
REMARK    3  A    between atoms: O_3  and  C_4
REMARK    4  A    between atoms: C_4  and  C_6
REMARK    5  A    between atoms: C_7  and  N_8
REMARK    6  A    between atoms: N_8  and  C_9
REMARK    7  A    between atoms: C_9  and  C_10
REMARK    8  A    between atoms: C_17  and  C_18
REMARK                            x       y       z     vdW  Elec       q    Type
REMARK                         _______ _______ _______ _____ _____    ______ ____
ROOT
ATOM      1  C   UNL     1       5.501   5.352  17.016  0.00  0.00    +0.000 C 
ATOM      2  C   UNL     1       5.652   6.701  17.175  0.00  0.00    +0.000 C 
ATOM      3  N   UNL     1       4.628   7.533  17.649  0.00  0.00    +0.000 NA
ATOM      4  C   UNL     1       3.473   7.033  18.013  0.00  0.00    +0.000 C 
ATOM      5  N   UNL     1       3.208   5.690  17.837  0.00  0.00    +0.000 N 
ATOM      6  C   UNL     1       1.936   5.009  17.895  0.00  0.00    +0.000 C 
ATOM      7  C   UNL     1       2.280   3.621  17.358  0.00  0.00    +0.000 C 
ATOM      8  N   UNL     1       3.720   3.628  17.024  0.00  0.00    +0.000 NA
ATOM      9  C   UNL     1       4.134   4.842  17.289  0.00  0.00    +0.000 C 
ENDROOT
BRANCH   4  10
ATOM     10  C   UNL     1       2.445   7.971  18.594  0.00  0.00    +0.000 A 
ATOM     11  C   UNL     1       1.846   8.939  17.781  0.00  0.00    +0.000 A 
ATOM     12  C   UNL     1       0.818   9.746  18.287  0.00  0.00    +0.000 A 
ATOM     13  C   UNL     1       0.377   9.586  19.601  0.00  0.00    +0.000 A 
ATOM     14  C   UNL     1       1.005   8.666  20.432  0.00  0.00    +0.000 A 
ATOM     15  C   UNL     1       2.061   7.895  19.940  0.00  0.00    +0.000 A 
ENDBRANCH   4  10
BRANCH   1  16
ATOM     16  C   UNL     1       6.598   4.487  16.515  0.00  0.00    +0.000 C 
ATOM     17  O   UNL     1       7.709   4.419  17.026  0.00  0.00    +0.000 OA
BRANCH  16  18
ATOM     18  O   UNL     1       6.227   3.857  15.374  0.00  0.00    +0.000 OA
BRANCH  18  20
ATOM     19  C   UNL     1       6.358   3.713  12.959  0.00  0.00    +0.000 C 
ATOM     20  C   UNL     1       6.145   4.612  14.161  0.00  0.00    +0.000 C 
ENDBRANCH  18  20
ENDBRANCH  16  18
ENDBRANCH   1  16
BRANCH   2  21
ATOM     21  N   UNL     1       6.883   7.336  16.916  0.00  0.00    +0.000 N 
ATOM     22  H   UNL     1       6.718   8.279  16.548  0.00  0.00    +0.000 HD
BRANCH  21  23
ATOM     23  C   UNL     1       7.898   7.465  17.968  0.00  0.00    +0.000 C 
BRANCH  23  24
ATOM     24  C   UNL     1       8.270   8.916  18.178  0.00  0.00    +0.000 A 
ATOM     25  C   UNL     1       9.167   9.312  19.183  0.00  0.00    +0.000 A 
ATOM     26  C   UNL     1       9.505  10.661  19.344  0.00  0.00    +0.000 A 
ATOM     27  C   UNL     1       8.957  11.626  18.499  0.00  0.00    +0.000 A 
ATOM     28  C   UNL     1       8.081  11.245  17.487  0.00  0.00    +0.000 A 
ATOM     29  C   UNL     1       7.742   9.899  17.327  0.00  0.00    +0.000 A 
ENDBRANCH  23  24
ENDBRANCH  21  23
ENDBRANCH   2  21
TORSDOF 7
ENDMDL
MODEL 5
REMARK VINA RESULT:      -7.1      1.675      5.432
REMARK  Name = 
REMARK  8 active torsions:
REMARK  status: ('A' for Active; 'I' for Inactive)
REMARK    1  A    between atoms: C_1  and  C_2
REMARK    2  A    between atoms: C_2  and  O_3
REMARK    3  A    between atoms: O_3  and  C_4
REMARK    4  A    between atoms: C_4  and  C_6
REMARK    5  A    between atoms: C_7  and  N_8
REMARK    6  A    between atoms: N_8  and  C_9
REMARK    7  A    between atoms: C_9  and  C_10
REMARK    8  A    between atoms: C_17  and  C_18
REMARK                            x       y       z     vdW  Elec       q    Type
REMARK                         _______ _______ _______ _____ _____    ______ ____
ROOT
ATOM      1  C   UNL     1       5.703   4.989  16.538  0.00  0.00    +0.000 C 
ATOM      2  C   UNL     1       4.460   4.596  16.948  0.00  0.00    +0.000 C 
ATOM      3  N   UNL     1       3.554   5.462  17.576  0.00  0.00    +0.000 NA
ATOM      4  C   UNL     1       3.850   6.726  17.755  0.00  0.00    +0.000 C 
ATOM      5  N   UNL     1       5.103   7.203  17.424  0.00  0.00    +0.000 N 
ATOM      6  C   UNL     1       5.717   8.454  17.800  0.00  0.00    +0.000 C 
ATOM      7  C   UNL     1       7.164   8.258  17.352  0.00  0.00    +0.000 C 
ATOM      8  N   UNL     1       7.260   6.904  16.768  0.00  0.00    +0.000 NA
ATOM      9  C   UNL     1       6.065   6.383  16.896  0.00  0.00    +0.000 C 
ENDROOT
BRANCH   4  10
ATOM     10  C   UNL     1       2.799   7.622  18.359  0.00  0.00    +0.000 A 
ATOM     11  C   UNL     1       2.347   7.388  19.662  0.00  0.00    +0.000 A 
ATOM     12  C   UNL     1       1.446   8.275  20.266  0.00  0.00    +0.000 A 
ATOM     13  C   UNL     1       0.999   9.404  19.579  0.00  0.00    +0.000 A 
ATOM     14  C   UNL     1       1.399   9.614  18.264  0.00  0.00    +0.000 A 
ATOM     15  C   UNL     1       2.260   8.704  17.648  0.00  0.00    +0.000 A 
ENDBRANCH   4  10
BRANCH   1  16
ATOM     16  C   UNL     1       6.648   4.057  15.873  0.00  0.00    +0.000 C 
ATOM     17  O   UNL     1       7.796   3.858  16.248  0.00  0.00    +0.000 OA
BRANCH  16  18
ATOM     18  O   UNL     1       6.093   3.531  14.755  0.00  0.00    +0.000 OA
BRANCH  18  20
ATOM     19  C   UNL     1       5.879   3.263  12.355  0.00  0.00    +0.000 C 
ATOM     20  C   UNL     1       6.372   4.140  13.490  0.00  0.00    +0.000 C 
ENDBRANCH  18  20
ENDBRANCH  16  18
ENDBRANCH   1  16
BRANCH   2  21
ATOM     21  N   UNL     1       3.990   3.289  16.714  0.00  0.00    +0.000 N 
ATOM     22  H   UNL     1       4.464   2.887  15.897  0.00  0.00    +0.000 HD
BRANCH  21  23
ATOM     23  C   UNL     1       4.038   2.272  17.772  0.00  0.00    +0.000 C 
BRANCH  23  24
ATOM     24  C   UNL     1       3.022   2.575  18.851  0.00  0.00    +0.000 A 
ATOM     25  C   UNL     1       1.644   2.602  18.583  0.00  0.00    +0.000 A 
ATOM     26  C   UNL     1       0.726   2.869  19.605  0.00  0.00    +0.000 A 
ATOM     27  C   UNL     1       1.172   3.105  20.905  0.00  0.00    +0.000 A 
ATOM     28  C   UNL     1       2.535   3.064  21.187  0.00  0.00    +0.000 A 
ATOM     29  C   UNL     1       3.452   2.798  20.168  0.00  0.00    +0.000 A 
ENDBRANCH  23  24
ENDBRANCH  21  23
ENDBRANCH   2  21
TORSDOF 7
ENDMDL
MODEL 6
REMARK VINA RESULT:      -7.0      3.274      4.874
REMARK  Name = 
REMARK  8 active torsions:
REMARK  status: ('A' for Active; 'I' for Inactive)
REMARK    1  A    between atoms: C_1  and  C_2
REMARK    2  A    between atoms: C_2  and  O_3
REMARK    3  A    between atoms: O_3  and  C_4
REMARK    4  A    between atoms: C_4  and  C_6
REMARK    5  A    between atoms: C_7  and  N_8
REMARK    6  A    between atoms: N_8  and  C_9
REMARK    7  A    between atoms: C_9  and  C_10
REMARK    8  A    between atoms: C_17  and  C_18
REMARK                            x       y       z     vdW  Elec       q    Type
REMARK                         _______ _______ _______ _____ _____    ______ ____
ROOT
ATOM      1  C   UNL     1       4.092   3.116  19.901  0.00  0.00    +0.000 C 
ATOM      2  C   UNL     1       4.747   4.265  19.556  0.00  0.00    +0.000 C 
ATOM      3  N   UNL     1       4.101   5.503  19.426  0.00  0.00    +0.000 NA
ATOM      4  C   UNL     1       2.822   5.621  19.684  0.00  0.00    +0.000 C 
ATOM      5  N   UNL     1       2.066   4.506  19.987  0.00  0.00    +0.000 N 
ATOM      6  C   UNL     1       0.628   4.375  20.014  0.00  0.00    +0.000 C 
ATOM      7  C   UNL     1       0.437   2.866  20.148  0.00  0.00    +0.000 C 
ATOM      8  N   UNL     1       1.783   2.256  20.173  0.00  0.00    +0.000 NA
ATOM      9  C   UNL     1       2.621   3.254  20.033  0.00  0.00    +0.000 C 
ENDROOT
BRANCH   4  10
ATOM     10  C   UNL     1       2.207   6.995  19.609  0.00  0.00    +0.000 A 
ATOM     11  C   UNL     1       1.614   7.557  20.744  0.00  0.00    +0.000 A 
ATOM     12  C   UNL     1       1.131   8.873  20.709  0.00  0.00    +0.000 A 
ATOM     13  C   UNL     1       1.245   9.636  19.547  0.00  0.00    +0.000 A 
ATOM     14  C   UNL     1       1.780   9.065  18.398  0.00  0.00    +0.000 A 
ATOM     15  C   UNL     1       2.218   7.739  18.421  0.00  0.00    +0.000 A 
ENDBRANCH   4  10
BRANCH   1  16
ATOM     16  C   UNL     1       4.794   1.815  20.035  0.00  0.00    +0.000 C 
ATOM     17  O   UNL     1       4.762   0.926  19.193  0.00  0.00    +0.000 OA
BRANCH  16  18
ATOM     18  O   UNL     1       5.396   1.719  21.244  0.00  0.00    +0.000 OA
BRANCH  18  20
ATOM     19  C   UNL     1       6.597  -0.098  22.307  0.00  0.00    +0.000 C 
ATOM     20  C   UNL     1       5.243   0.513  22.000  0.00  0.00    +0.000 C 
ENDBRANCH  18  20
ENDBRANCH  16  18
ENDBRANCH   1  16
BRANCH   2  21
ATOM     21  N   UNL     1       6.142   4.282  19.357  0.00  0.00    +0.000 N 
ATOM     22  H   UNL     1       6.440   3.413  18.900  0.00  0.00    +0.000 HD
BRANCH  21  23
ATOM     23  C   UNL     1       6.784   5.384  18.630  0.00  0.00    +0.000 C 
BRANCH  23  24
ATOM     24  C   UNL     1       6.471   5.304  17.152  0.00  0.00    +0.000 A 
ATOM     25  C   UNL     1       7.000   4.291  16.338  0.00  0.00    +0.000 A 
ATOM     26  C   UNL     1       6.681   4.232  14.976  0.00  0.00    +0.000 A 
ATOM     27  C   UNL     1       5.825   5.181  14.416  0.00  0.00    +0.000 A 
ATOM     28  C   UNL     1       5.279   6.180  15.216  0.00  0.00    +0.000 A 
ATOM     29  C   UNL     1       5.598   6.239  16.575  0.00  0.00    +0.000 A 
ENDBRANCH  23  24
ENDBRANCH  21  23
ENDBRANCH   2  21
TORSDOF 7
ENDMDL
MODEL 7
REMARK VINA RESULT:      -7.0      3.626      6.583
REMARK  Name = 
REMARK  8 active torsions:
REMARK  status: ('A' for Active; 'I' for Inactive)
REMARK    1  A    between atoms: C_1  and  C_2
REMARK    2  A    between atoms: C_2  and  O_3
REMARK    3  A    between atoms: O_3  and  C_4
REMARK    4  A    between atoms: C_4  and  C_6
REMARK    5  A    between atoms: C_7  and  N_8
REMARK    6  A    between atoms: N_8  and  C_9
REMARK    7  A    between atoms: C_9  and  C_10
REMARK    8  A    between atoms: C_17  and  C_18
REMARK                            x       y       z     vdW  Elec       q    Type
REMARK                         _______ _______ _______ _____ _____    ______ ____
ROOT
ATOM      1  C   UNL     1       2.495   7.186  19.129  0.00  0.00    +0.000 C 
ATOM      2  C   UNL     1       1.977   6.914  20.364  0.00  0.00    +0.000 C 
ATOM      3  N   UNL     1       1.163   7.815  21.065  0.00  0.00    +0.000 NA
ATOM      4  C   UNL     1       0.818   8.961  20.532  0.00  0.00    +0.000 C 
ATOM      5  N   UNL     1       1.336   9.347  19.312  0.00  0.00    +0.000 N 
ATOM      6  C   UNL     1       1.320  10.655  18.701  0.00  0.00    +0.000 C 
ATOM      7  C   UNL     1       2.269  10.478  17.518  0.00  0.00    +0.000 C 
ATOM      8  N   UNL     1       2.761   9.085  17.558  0.00  0.00    +0.000 NA
ATOM      9  C   UNL     1       2.214   8.552  18.622  0.00  0.00    +0.000 C 
ENDROOT
BRANCH   4  10
ATOM     10  C   UNL     1      -0.129   9.846  21.302  0.00  0.00    +0.000 A 
ATOM     11  C   UNL     1      -0.354   9.609  22.662  0.00  0.00    +0.000 A 
ATOM     12  C   UNL     1      -1.152  10.487  23.408  0.00  0.00    +0.000 A 
ATOM     13  C   UNL     1      -1.721  11.609  22.805  0.00  0.00    +0.000 A 
ATOM     14  C   UNL     1      -1.549  11.821  21.442  0.00  0.00    +0.000 A 
ATOM     15  C   UNL     1      -0.791  10.919  20.691  0.00  0.00    +0.000 A 
ENDBRANCH   4  10
BRANCH   1  16
ATOM     16  C   UNL     1       3.354   6.218  18.401  0.00  0.00    +0.000 C 
ATOM     17  O   UNL     1       3.016   5.630  17.381  0.00  0.00    +0.000 OA
BRANCH  16  18
ATOM     18  O   UNL     1       4.516   6.015  19.067  0.00  0.00    +0.000 OA
BRANCH  18  20
ATOM     19  C   UNL     1       6.859   5.416  19.218  0.00  0.00    +0.000 C 
ATOM     20  C   UNL     1       5.581   5.323  18.407  0.00  0.00    +0.000 C 
ENDBRANCH  18  20
ENDBRANCH  16  18
ENDBRANCH   1  16
BRANCH   2  21
ATOM     21  N   UNL     1       2.193   5.672  20.993  0.00  0.00    +0.000 N 
ATOM     22  H   UNL     1       2.209   5.793  22.011  0.00  0.00    +0.000 HD
BRANCH  21  23
ATOM     23  C   UNL     1       1.315   4.528  20.718  0.00  0.00    +0.000 C 
BRANCH  23  24
ATOM     24  C   UNL     1       2.038   3.484  19.896  0.00  0.00    +0.000 A 
ATOM     25  C   UNL     1       1.492   2.965  18.712  0.00  0.00    +0.000 A 
ATOM     26  C   UNL     1       2.191   2.011  17.963  0.00  0.00    +0.000 A 
ATOM     27  C   UNL     1       3.445   1.570  18.386  0.00  0.00    +0.000 A 
ATOM     28  C   UNL     1       4.006   2.090  19.549  0.00  0.00    +0.000 A 
ATOM     29  C   UNL     1       3.309   3.041  20.297  0.00  0.00    +0.000 A 
ENDBRANCH  23  24
ENDBRANCH  21  23
ENDBRANCH   2  21
TORSDOF 7
ENDMDL
MODEL 8
REMARK VINA RESULT:      -6.9      1.775      5.621
REMARK  Name = 
REMARK  8 active torsions:
REMARK  status: ('A' for Active; 'I' for Inactive)
REMARK    1  A    between atoms: C_1  and  C_2
REMARK    2  A    between atoms: C_2  and  O_3
REMARK    3  A    between atoms: O_3  and  C_4
REMARK    4  A    between atoms: C_4  and  C_6
REMARK    5  A    between atoms: C_7  and  N_8
REMARK    6  A    between atoms: N_8  and  C_9
REMARK    7  A    between atoms: C_9  and  C_10
REMARK    8  A    between atoms: C_17  and  C_18
REMARK                            x       y       z     vdW  Elec       q    Type
REMARK                         _______ _______ _______ _____ _____    ______ ____
ROOT
ATOM      1  C   UNL     1       5.437   4.887  16.428  0.00  0.00    +0.000 C 
ATOM      2  C   UNL     1       4.193   4.562  16.893  0.00  0.00    +0.000 C 
ATOM      3  N   UNL     1       3.376   5.468  17.584  0.00  0.00    +0.000 NA
ATOM      4  C   UNL     1       3.760   6.707  17.774  0.00  0.00    +0.000 C 
ATOM      5  N   UNL     1       5.023   7.112  17.390  0.00  0.00    +0.000 N 
ATOM      6  C   UNL     1       5.733   8.313  17.760  0.00  0.00    +0.000 C 
ATOM      7  C   UNL     1       7.141   8.038  17.236  0.00  0.00    +0.000 C 
ATOM      8  N   UNL     1       7.122   6.695  16.619  0.00  0.00    +0.000 NA
ATOM      9  C   UNL     1       5.904   6.247  16.797  0.00  0.00    +0.000 C 
ENDROOT
BRANCH   4  10
ATOM     10  C   UNL     1       2.799   7.652  18.449  0.00  0.00    +0.000 A 
ATOM     11  C   UNL     1       2.305   8.760  17.752  0.00  0.00    +0.000 A 
ATOM     12  C   UNL     1       1.335   9.585  18.336  0.00  0.00    +0.000 A 
ATOM     13  C   UNL     1       0.846   9.305  19.613  0.00  0.00    +0.000 A 
ATOM     14  C   UNL     1       1.373   8.240  20.335  0.00  0.00    +0.000 A 
ATOM     15  C   UNL     1       2.373   7.447  19.769  0.00  0.00    +0.000 A 
ENDBRANCH   4  10
BRANCH   1  16
ATOM     16  C   UNL     1       6.287   3.914  15.697  0.00  0.00    +0.000 C 
ATOM     17  O   UNL     1       7.404   3.567  16.061  0.00  0.00    +0.000 OA
BRANCH  16  18
ATOM     18  O   UNL     1       5.694   3.537  14.540  0.00  0.00    +0.000 OA
BRANCH  18  20
ATOM     19  C   UNL     1       5.739   3.081  12.160  0.00  0.00    +0.000 C 
ATOM     20  C   UNL     1       6.297   3.914  13.297  0.00  0.00    +0.000 C 
ENDBRANCH  18  20
ENDBRANCH  16  18
ENDBRANCH   1  16
BRANCH   2  21
ATOM     21  N   UNL     1       3.631   3.293  16.656  0.00  0.00    +0.000 N 
ATOM     22  H   UNL     1       3.982   2.915  15.769  0.00  0.00    +0.000 HD
BRANCH  21  23
ATOM     23  C   UNL     1       3.751   2.220  17.650  0.00  0.00    +0.000 C 
BRANCH  23  24
ATOM     24  C   UNL     1       2.878   2.504  18.852  0.00  0.00    +0.000 A 
ATOM     25  C   UNL     1       3.414   2.624  20.144  0.00  0.00    +0.000 A 
ATOM     26  C   UNL     1       2.584   2.903  21.236  0.00  0.00    +0.000 A 
ATOM     27  C   UNL     1       1.212   3.071  21.049  0.00  0.00    +0.000 A 
ATOM     28  C   UNL     1       0.671   2.972  19.770  0.00  0.00    +0.000 A 
ATOM     29  C   UNL     1       1.498   2.692  18.680  0.00  0.00    +0.000 A 
ENDBRANCH  23  24
ENDBRANCH  21  23
ENDBRANCH   2  21
TORSDOF 7
ENDMDL
MODEL 9
REMARK VINA RESULT:      -6.8      2.297      5.657
REMARK  Name = 
REMARK  8 active torsions:
REMARK  status: ('A' for Active; 'I' for Inactive)
REMARK    1  A    between atoms: C_1  and  C_2
REMARK    2  A    between atoms: C_2  and  O_3
REMARK    3  A    between atoms: O_3  and  C_4
REMARK    4  A    between atoms: C_4  and  C_6
REMARK    5  A    between atoms: C_7  and  N_8
REMARK    6  A    between atoms: N_8  and  C_9
REMARK    7  A    between atoms: C_9  and  C_10
REMARK    8  A    between atoms: C_17  and  C_18
REMARK                            x       y       z     vdW  Elec       q    Type
REMARK                         _______ _______ _______ _____ _____    ______ ____
ROOT
ATOM      1  C   UNL     1       4.708   6.198  16.961  0.00  0.00    +0.000 C 
ATOM      2  C   UNL     1       5.028   4.908  17.279  0.00  0.00    +0.000 C 
ATOM      3  N   UNL     1       4.339   4.168  18.250  0.00  0.00    +0.000 NA
ATOM      4  C   UNL     1       3.304   4.679  18.872  0.00  0.00    +0.000 C 
ATOM      5  N   UNL     1       2.940   5.993  18.656  0.00  0.00    +0.000 N 
ATOM      6  C   UNL     1       2.043   6.816  19.432  0.00  0.00    +0.000 C 
ATOM      7  C   UNL     1       2.276   8.205  18.842  0.00  0.00    +0.000 C 
ATOM      8  N   UNL     1       3.299   8.063  17.785  0.00  0.00    +0.000 NA
ATOM      9  C   UNL     1       3.635   6.797  17.791  0.00  0.00    +0.000 C 
ENDROOT
BRANCH   4  10
ATOM     10  C   UNL     1       2.555   3.801  19.842  0.00  0.00    +0.000 A 
ATOM     11  C   UNL     1       3.224   3.241  20.936  0.00  0.00    +0.000 A 
ATOM     12  C   UNL     1       2.513   2.508  21.896  0.00  0.00    +0.000 A 
ATOM     13  C   UNL     1       1.134   2.338  21.776  0.00  0.00    +0.000 A 
ATOM     14  C   UNL     1       0.471   2.842  20.663  0.00  0.00    +0.000 A 
ATOM     15  C   UNL     1       1.188   3.532  19.683  0.00  0.00    +0.000 A 
ENDBRANCH   4  10
BRANCH   1  16
ATOM     16  C   UNL     1       5.450   6.965  15.928  0.00  0.00    +0.000 C 
ATOM     17  O   UNL     1       4.955   7.365  14.881  0.00  0.00    +0.000 OA
BRANCH  16  18
ATOM     18  O   UNL     1       6.756   7.081  16.265  0.00  0.00    +0.000 OA
BRANCH  18  20
ATOM     19  C   UNL     1       7.948   7.007  18.375  0.00  0.00    +0.000 C 
ATOM     20  C   UNL     1       7.107   7.841  17.427  0.00  0.00    +0.000 C 
ENDBRANCH  18  20
ENDBRANCH  16  18
ENDBRANCH   1  16
BRANCH   2  21
ATOM     21  N   UNL     1       6.054   4.219  16.603  0.00  0.00    +0.000 N 
ATOM     22  H   UNL     1       6.610   3.674  17.272  0.00  0.00    +0.000 HD
BRANCH  21  23
ATOM     23  C   UNL     1       5.746   3.322  15.483  0.00  0.00    +0.000 C 
BRANCH  23  24
ATOM     24  C   UNL     1       6.343   3.848  14.196  0.00  0.00    +0.000 A 
ATOM     25  C   UNL     1       7.361   4.814  14.194  0.00  0.00    +0.000 A 
ATOM     26  C   UNL     1       7.906   5.271  12.989  0.00  0.00    +0.000 A 
ATOM     27  C   UNL     1       7.444   4.765  11.774  0.00  0.00    +0.000 A 
ATOM     28  C   UNL     1       6.447   3.794  11.763  0.00  0.00    +0.000 A 
ATOM     29  C   UNL     1       5.902   3.338  12.965  0.00  0.00    +0.000 A 
ENDBRANCH  23  24
ENDBRANCH  21  23
ENDBRANCH   2  21
TORSDOF 7
ENDMDL
