MODEL 1
REMARK VINA RESULT:      -8.2      0.000      0.000
REMARK  Name = 
REMARK  5 active torsions:
REMARK  status: ('A' for Active; 'I' for Inactive)
REMARK    1  A    between atoms: C_1  and  C_2
REMARK    2  A    between atoms: N_6  and  C_7
REMARK    3  A    between atoms: C_7  and  C_8
REMARK    4  A    between atoms: N_10  and  C_11
REMARK    5  A    between atoms: C_11  and  C_12
REMARK                            x       y       z     vdW  Elec       q    Type
REMARK                         _______ _______ _______ _____ _____    ______ ____
ROOT
ATOM      1  C   UNL     1       0.981  10.944  19.254  0.00  0.00    +0.000 C 
ENDROOT
BRANCH   1   7
ATOM      2  C   UNL     1      -1.721  12.925  23.233  0.00  0.00    +0.000 C 
ATOM      3  C   UNL     1      -1.609  11.995  22.026  0.00  0.00    +0.000 C 
ATOM      4  C   UNL     1      -0.317  11.185  22.080  0.00  0.00    +0.000 C 
ATOM      5  C   UNL     1      -0.342  10.017  21.113  0.00  0.00    +0.000 C 
ATOM      6  O   UNL     1      -0.485   8.861  21.524  0.00  0.00    +0.000 OA
ATOM      7  N   UNL     1      -0.224  10.262  19.752  0.00  0.00    +0.000 N 
ATOM      8  C   UNL     1      -1.420  10.615  19.067  0.00  0.00    +0.000 A 
ATOM      9  C   UNL     1      -1.844   9.733  18.066  0.00  0.00    +0.000 A 
ATOM     10  C   UNL     1      -2.994  10.006  17.324  0.00  0.00    +0.000 A 
ATOM     11  C   UNL     1      -3.725  11.161  17.582  0.00  0.00    +0.000 A 
ATOM     12  C   UNL     1      -3.299  12.054  18.567  0.00  0.00    +0.000 A 
ATOM     13  C   UNL     1      -2.153  11.792  19.324  0.00  0.00    +0.000 A 
ATOM     14  S   UNL     1      -1.666  13.032  20.520  0.00  0.00    +0.000 S 
ENDBRANCH   1   7
BRANCH   1  15
ATOM     15  C   UNL     1       1.825  10.002  18.391  0.00  0.00    +0.000 C 
ATOM     16  O   UNL     1       2.404  10.408  17.379  0.00  0.00    +0.000 OA
ATOM     17  N   UNL     1       1.784   8.684  18.749  0.00  0.00    +0.000 N 
ATOM     18  H   UNL     1       1.319   8.434  19.620  0.00  0.00    +0.000 HD
BRANCH  17  19
ATOM     19  C   UNL     1       2.602   7.689  18.111  0.00  0.00    +0.000 C 
BRANCH  19  20
ATOM     20  C   UNL     1       2.423   6.324  18.717  0.00  0.00    +0.000 A 
ATOM     21  C   UNL     1       2.243   6.180  20.114  0.00  0.00    +0.000 A 
ATOM     22  C   UNL     1       1.877   4.948  20.670  0.00  0.00    +0.000 A 
ATOM     23  C   UNL     1       1.682   3.899  19.801  0.00  0.00    +0.000 A 
ATOM     24  C   UNL     1       1.935   4.016  18.451  0.00  0.00    +0.000 A 
ATOM     25  C   UNL     1       2.341   5.200  17.882  0.00  0.00    +0.000 A 
ATOM     26  O   UNL     1       1.627   2.877  17.771  0.00  0.00    +0.000 OA
ATOM     27  C   UNL     1       0.853   2.207  18.785  0.00  0.00    +0.000 C 
ATOM     28  O   UNL     1       1.160   2.681  20.113  0.00  0.00    +0.000 OA
ENDBRANCH  19  20
ENDBRANCH  17  19
ENDBRANCH   1  15
TORSDOF 4
ENDMDL
MODEL 2
REMARK VINA RESULT:      -8.2      0.737      1.412
REMARK  Name = 
REMARK  5 active torsions:
REMARK  status: ('A' for Active; 'I' for Inactive)
REMARK    1  A    between atoms: C_1  and  C_2
REMARK    2  A    between atoms: N_6  and  C_7
REMARK    3  A    between atoms: C_7  and  C_8
REMARK    4  A    between atoms: N_10  and  C_11
REMARK    5  A    between atoms: C_11  and  C_12
REMARK                            x       y       z     vdW  Elec       q    Type
REMARK                         _______ _______ _______ _____ _____    ______ ____
ROOT
ATOM      1  C   UNL     1       0.995  10.589  19.173  0.00  0.00    +0.000 C 
ENDROOT
BRANCH   1   7
ATOM      2  C   UNL     1      -1.461  12.860  23.157  0.00  0.00    +0.000 C 
ATOM      3  C   UNL     1      -1.450  11.907  21.962  0.00  0.00    +0.000 C 
ATOM      4  C   UNL     1      -0.235  10.985  22.012  0.00  0.00    +0.000 C 
ATOM      5  C   UNL     1      -0.380   9.810  21.062  0.00  0.00    +0.000 C 
ATOM      6  O   UNL     1      -0.620   8.678  21.493  0.00  0.00    +0.000 OA
ATOM      7  N   UNL     1      -0.259  10.025  19.697  0.00  0.00    +0.000 N 
ATOM      8  C   UNL     1      -1.428  10.476  19.022  0.00  0.00    +0.000 A 
ATOM      9  C   UNL     1      -1.944   9.622  18.040  0.00  0.00    +0.000 A 
ATOM     10  C   UNL     1      -3.075   9.987  17.309  0.00  0.00    +0.000 A 
ATOM     11  C   UNL     1      -3.695  11.208  17.559  0.00  0.00    +0.000 A 
ATOM     12  C   UNL     1      -3.177  12.072  18.525  0.00  0.00    +0.000 A 
ATOM     13  C   UNL     1      -2.048  11.717  19.270  0.00  0.00    +0.000 A 
ATOM     14  S   UNL     1      -1.435  12.924  20.441  0.00  0.00    +0.000 S 
ENDBRANCH   1   7
BRANCH   1  15
ATOM     15  C   UNL     1       1.784   9.535  18.391  0.00  0.00    +0.000 C 
ATOM     16  O   UNL     1       2.127   9.731  17.221  0.00  0.00    +0.000 OA
ATOM     17  N   UNL     1       1.961   8.340  19.030  0.00  0.00    +0.000 N 
ATOM     18  H   UNL     1       1.686   8.271  20.008  0.00  0.00    +0.000 HD
BRANCH  17  19
ATOM     19  C   UNL     1       2.769   7.287  18.478  0.00  0.00    +0.000 C 
BRANCH  19  20
ATOM     20  C   UNL     1       2.278   5.921  18.876  0.00  0.00    +0.000 A 
ATOM     21  C   UNL     1       2.011   4.942  17.887  0.00  0.00    +0.000 A 
ATOM     22  C   UNL     1       1.749   3.613  18.243  0.00  0.00    +0.000 A 
ATOM     23  C   UNL     1       1.783   3.302  19.582  0.00  0.00    +0.000 A 
ATOM     24  C   UNL     1       1.963   4.268  20.550  0.00  0.00    +0.000 A 
ATOM     25  C   UNL     1       2.175   5.589  20.234  0.00  0.00    +0.000 A 
ATOM     26  O   UNL     1       2.015   3.736  21.802  0.00  0.00    +0.000 OA
ATOM     27  C   UNL     1       2.194   2.349  21.455  0.00  0.00    +0.000 C 
ATOM     28  O   UNL     1       1.730   2.053  20.120  0.00  0.00    +0.000 OA
ENDBRANCH  19  20
ENDBRANCH  17  19
ENDBRANCH   1  15
TORSDOF 4
ENDMDL
MODEL 3
REMARK VINA RESULT:      -7.7      1.265      1.514
REMARK  Name = 
REMARK  5 active torsions:
REMARK  status: ('A' for Active; 'I' for Inactive)
REMARK    1  A    between atoms: C_1  and  C_2
REMARK    2  A    between atoms: N_6  and  C_7
REMARK    3  A    between atoms: C_7  and  C_8
REMARK    4  A    between atoms: N_10  and  C_11
REMARK    5  A    between atoms: C_11  and  C_12
REMARK                            x       y       z     vdW  Elec       q    Type
REMARK                         _______ _______ _______ _____ _____    ______ ____
ROOT
ATOM      1  C   UNL     1       1.279  10.383  19.469  0.00  0.00    +0.000 C 
ENDROOT
BRANCH   1   7
ATOM      2  C   UNL     1      -1.508  12.523  23.304  0.00  0.00    +0.000 C 
ATOM      3  C   UNL     1      -1.400  11.631  22.068  0.00  0.00    +0.000 C 
ATOM      4  C   UNL     1      -0.220  10.672  22.189  0.00  0.00    +0.000 C 
ATOM      5  C   UNL     1      -0.297   9.552  21.169  0.00  0.00    +0.000 C 
ATOM      6  O   UNL     1      -0.606   8.407  21.513  0.00  0.00    +0.000 OA
ATOM      7  N   UNL     1      -0.034   9.831  19.835  0.00  0.00    +0.000 N 
ATOM      8  C   UNL     1      -1.118  10.349  19.073  0.00  0.00    +0.000 A 
ATOM      9  C   UNL     1      -1.554   9.561  18.001  0.00  0.00    +0.000 A 
ATOM     10  C   UNL     1      -2.596   9.996  17.182  0.00  0.00    +0.000 A 
ATOM     11  C   UNL     1      -3.208  11.220  17.433  0.00  0.00    +0.000 A 
ATOM     12  C   UNL     1      -2.769  12.019  18.490  0.00  0.00    +0.000 A 
ATOM     13  C   UNL     1      -1.729  11.594  19.324  0.00  0.00    +0.000 A 
ATOM     14  S   UNL     1      -1.208  12.722  20.612  0.00  0.00    +0.000 S 
ENDBRANCH   1   7
BRANCH   1  15
ATOM     15  C   UNL     1       1.959   9.518  18.404  0.00  0.00    +0.000 C 
ATOM     16  O   UNL     1       2.176   9.953  17.269  0.00  0.00    +0.000 OA
ATOM     17  N   UNL     1       2.183   8.217  18.760  0.00  0.00    +0.000 N 
ATOM     18  H   UNL     1       2.016   7.946  19.727  0.00  0.00    +0.000 HD
BRANCH  17  19
ATOM     19  C   UNL     1       2.906   7.305  17.917  0.00  0.00    +0.000 C 
BRANCH  19  20
ATOM     20  C   UNL     1       2.775   5.877  18.373  0.00  0.00    +0.000 A 
ATOM     21  C   UNL     1       1.693   5.081  17.925  0.00  0.00    +0.000 A 
ATOM     22  C   UNL     1       1.661   3.703  18.174  0.00  0.00    +0.000 A 
ATOM     23  C   UNL     1       2.730   3.162  18.851  0.00  0.00    +0.000 A 
ATOM     24  C   UNL     1       3.744   3.947  19.357  0.00  0.00    +0.000 A 
ATOM     25  C   UNL     1       3.778   5.308  19.170  0.00  0.00    +0.000 A 
ATOM     26  O   UNL     1       4.723   3.204  19.944  0.00  0.00    +0.000 OA
ATOM     27  C   UNL     1       4.363   1.906  19.433  0.00  0.00    +0.000 C 
ATOM     28  O   UNL     1       2.976   1.836  19.038  0.00  0.00    +0.000 OA
ENDBRANCH  19  20
ENDBRANCH  17  19
ENDBRANCH   1  15
TORSDOF 4
ENDMDL
MODEL 4
REMARK VINA RESULT:      -7.6      2.099      2.936
REMARK  Name = 
REMARK  5 active torsions:
REMARK  status: ('A' for Active; 'I' for Inactive)
REMARK    1  A    between atoms: C_1  and  C_2
REMARK    2  A    between atoms: N_6  and  C_7
REMARK    3  A    between atoms: C_7  and  C_8
REMARK    4  A    between atoms: N_10  and  C_11
REMARK    5  A    between atoms: C_11  and  C_12
REMARK                            x       y       z     vdW  Elec       q    Type
REMARK                         _______ _______ _______ _____ _____    ______ ____
ROOT
ATOM      1  C   UNL     1       0.729  11.149  18.772  0.00  0.00    +0.000 C 
ENDROOT
BRANCH   1   7
ATOM      2  C   UNL     1      -1.156  15.601  20.692  0.00  0.00    +0.000 C 
ATOM      3  C   UNL     1      -0.430  14.269  20.874  0.00  0.00    +0.000 C 
ATOM      4  C   UNL     1       0.653  14.088  19.816  0.00  0.00    +0.000 C 
ATOM      5  C   UNL     1       1.613  12.970  20.176  0.00  0.00    +0.000 C 
ATOM      6  O   UNL     1       2.756  13.223  20.570  0.00  0.00    +0.000 OA
ATOM      7  N   UNL     1       1.187  11.653  20.077  0.00  0.00    +0.000 N 
ATOM      8  C   UNL     1       0.462  11.138  21.188  0.00  0.00    +0.000 A 
ATOM      9  C   UNL     1       1.051  10.064  21.867  0.00  0.00    +0.000 A 
ATOM     10  C   UNL     1       0.405   9.478  22.956  0.00  0.00    +0.000 A 
ATOM     11  C   UNL     1      -0.831   9.964  23.370  0.00  0.00    +0.000 A 
ATOM     12  C   UNL     1      -1.432  11.023  22.688  0.00  0.00    +0.000 A 
ATOM     13  C   UNL     1      -0.795  11.626  21.599  0.00  0.00    +0.000 A 
ATOM     14  S   UNL     1      -1.681  12.937  20.762  0.00  0.00    +0.000 S 
ENDBRANCH   1   7
BRANCH   1  15
ATOM     15  C   UNL     1       1.778  10.227  18.144  0.00  0.00    +0.000 C 
ATOM     16  O   UNL     1       2.643  10.668  17.381  0.00  0.00    +0.000 OA
ATOM     17  N   UNL     1       1.607   8.893  18.385  0.00  0.00    +0.000 N 
ATOM     18  H   UNL     1       0.897   8.612  19.058  0.00  0.00    +0.000 HD
BRANCH  17  19
ATOM     19  C   UNL     1       2.562   7.907  17.959  0.00  0.00    +0.000 C 
BRANCH  19  20
ATOM     20  C   UNL     1       2.351   6.577  18.630  0.00  0.00    +0.000 A 
ATOM     21  C   UNL     1       2.120   6.510  20.026  0.00  0.00    +0.000 A 
ATOM     22  C   UNL     1       1.726   5.311  20.633  0.00  0.00    +0.000 A 
ATOM     23  C   UNL     1       1.556   4.218  19.815  0.00  0.00    +0.000 A 
ATOM     24  C   UNL     1       1.859   4.261  18.471  0.00  0.00    +0.000 A 
ATOM     25  C   UNL     1       2.293   5.410  17.855  0.00  0.00    +0.000 A 
ATOM     26  O   UNL     1       1.569   3.088  17.842  0.00  0.00    +0.000 OA
ATOM     27  C   UNL     1       0.754   2.477  18.862  0.00  0.00    +0.000 C 
ATOM     28  O   UNL     1       1.016   3.021  20.173  0.00  0.00    +0.000 OA
ENDBRANCH  19  20
ENDBRANCH  17  19
ENDBRANCH   1  15
TORSDOF 4
ENDMDL
MODEL 5
REMARK VINA RESULT:      -7.6      5.828      9.362
REMARK  Name = 
REMARK  5 active torsions:
REMARK  status: ('A' for Active; 'I' for Inactive)
REMARK    1  A    between atoms: C_1  and  C_2
REMARK    2  A    between atoms: N_6  and  C_7
REMARK    3  A    between atoms: C_7  and  C_8
REMARK    4  A    between atoms: N_10  and  C_11
REMARK    5  A    between atoms: C_11  and  C_12
REMARK                            x       y       z     vdW  Elec       q    Type
REMARK                         _______ _______ _______ _____ _____    ______ ____
ROOT
ATOM      1  C   UNL     1       6.371   6.118  18.170  0.00  0.00    +0.000 C 
ENDROOT
BRANCH   1   7
ATOM      2  C   UNL     1       3.351   2.001  19.166  0.00  0.00    +0.000 C 
ATOM      3  C   UNL     1       3.561   3.390  18.565  0.00  0.00    +0.000 C 
ATOM      4  C   UNL     1       4.838   3.437  17.732  0.00  0.00    +0.000 C 
ATOM      5  C   UNL     1       4.888   4.667  16.844  0.00  0.00    +0.000 C 
ATOM      6  O   UNL     1       4.704   4.572  15.627  0.00  0.00    +0.000 OA
ATOM      7  N   UNL     1       5.124   5.907  17.419  0.00  0.00    +0.000 N 
ATOM      8  C   UNL     1       3.993   6.576  17.965  0.00  0.00    +0.000 A 
ATOM      9  C   UNL     1       3.651   7.798  17.374  0.00  0.00    +0.000 A 
ATOM     10  C   UNL     1       2.570   8.538  17.855  0.00  0.00    +0.000 A 
ATOM     11  C   UNL     1       1.828   8.058  18.930  0.00  0.00    +0.000 A 
ATOM     12  C   UNL     1       2.173   6.848  19.535  0.00  0.00    +0.000 A 
ATOM     13  C   UNL     1       3.249   6.092  19.060  0.00  0.00    +0.000 A 
ATOM     14  S   UNL     1       3.639   4.587  19.947  0.00  0.00    +0.000 S 
ENDBRANCH   1   7
BRANCH   1  15
ATOM     15  C   UNL     1       7.326   7.033  17.399  0.00  0.00    +0.000 C 
ATOM     16  O   UNL     1       7.790   6.699  16.305  0.00  0.00    +0.000 OA
ATOM     17  N   UNL     1       7.717   8.164  18.060  0.00  0.00    +0.000 N 
ATOM     18  H   UNL     1       7.259   8.391  18.941  0.00  0.00    +0.000 HD
BRANCH  17  19
ATOM     19  C   UNL     1       8.524   9.178  17.437  0.00  0.00    +0.000 C 
BRANCH  19  20
ATOM     20  C   UNL     1       8.810  10.331  18.360  0.00  0.00    +0.000 A 
ATOM     21  C   UNL     1       9.200  10.093  19.701  0.00  0.00    +0.000 A 
ATOM     22  C   UNL     1       9.662  11.138  20.512  0.00  0.00    +0.000 A 
ATOM     23  C   UNL     1       9.735  12.389  19.945  0.00  0.00    +0.000 A 
ATOM     24  C   UNL     1       9.280  12.637  18.667  0.00  0.00    +0.000 A 
ATOM     25  C   UNL     1       8.778  11.642  17.863  0.00  0.00    +0.000 A 
ATOM     26  O   UNL     1       9.496  13.927  18.287  0.00  0.00    +0.000 OA
ATOM     27  C   UNL     1      10.422  14.318  19.319  0.00  0.00    +0.000 C 
ATOM     28  O   UNL     1      10.314  13.491  20.497  0.00  0.00    +0.000 OA
ENDBRANCH  19  20
ENDBRANCH  17  19
ENDBRANCH   1  15
TORSDOF 4
ENDMDL
MODEL 6
REMARK VINA RESULT:      -7.4      2.126      3.232
REMARK  Name = 
REMARK  5 active torsions:
REMARK  status: ('A' for Active; 'I' for Inactive)
REMARK    1  A    between atoms: C_1  and  C_2
REMARK    2  A    between atoms: N_6  and  C_7
REMARK    3  A    between atoms: C_7  and  C_8
REMARK    4  A    between atoms: N_10  and  C_11
REMARK    5  A    between atoms: C_11  and  C_12
REMARK                            x       y       z     vdW  Elec       q    Type
REMARK                         _______ _______ _______ _____ _____    ______ ____
ROOT
ATOM      1  C   UNL     1       0.666  10.735  18.650  0.00  0.00    +0.000 C 
ENDROOT
BRANCH   1   7
ATOM      2  C   UNL     1      -1.310  15.318  20.118  0.00  0.00    +0.000 C 
ATOM      3  C   UNL     1      -0.545  14.032  20.428  0.00  0.00    +0.000 C 
ATOM      4  C   UNL     1       0.525  13.766  19.374  0.00  0.00    +0.000 C 
ATOM      5  C   UNL     1       1.522  12.718  19.834  0.00  0.00    +0.000 C 
ATOM      6  O   UNL     1       2.663  13.042  20.177  0.00  0.00    +0.000 OA
ATOM      7  N   UNL     1       1.130  11.388  19.884  0.00  0.00    +0.000 N 
ATOM      8  C   UNL     1       0.438  10.976  21.057  0.00  0.00    +0.000 A 
ATOM      9  C   UNL     1       1.067   9.998  21.836  0.00  0.00    +0.000 A 
ATOM     10  C   UNL     1       0.455   9.515  22.993  0.00  0.00    +0.000 A 
ATOM     11  C   UNL     1      -0.787  10.010  23.377  0.00  0.00    +0.000 A 
ATOM     12  C   UNL     1      -1.428  10.975  22.597  0.00  0.00    +0.000 A 
ATOM     13  C   UNL     1      -0.825  11.473  21.438  0.00  0.00    +0.000 A 
ATOM     14  S   UNL     1      -1.760  12.664  20.483  0.00  0.00    +0.000 S 
ENDBRANCH   1   7
BRANCH   1  15
ATOM     15  C   UNL     1       1.728   9.776  18.105  0.00  0.00    +0.000 C 
ATOM     16  O   UNL     1       2.549  10.144  17.259  0.00  0.00    +0.000 OA
ATOM     17  N   UNL     1       1.617   8.480  18.523  0.00  0.00    +0.000 N 
ATOM     18  H   UNL     1       0.941   8.264  19.253  0.00  0.00    +0.000 HD
BRANCH  17  19
ATOM     19  C   UNL     1       2.595   7.480  18.190  0.00  0.00    +0.000 C 
BRANCH  19  20
ATOM     20  C   UNL     1       2.210   6.113  18.689  0.00  0.00    +0.000 A 
ATOM     21  C   UNL     1       1.966   5.061  17.773  0.00  0.00    +0.000 A 
ATOM     22  C   UNL     1       1.804   3.743  18.217  0.00  0.00    +0.000 A 
ATOM     23  C   UNL     1       1.911   3.518  19.570  0.00  0.00    +0.000 A 
ATOM     24  C   UNL     1       2.068   4.551  20.470  0.00  0.00    +0.000 A 
ATOM     25  C   UNL     1       2.182   5.860  20.068  0.00  0.00    +0.000 A 
ATOM     26  O   UNL     1       2.204   4.102  21.748  0.00  0.00    +0.000 OA
ATOM     27  C   UNL     1       2.457   2.709  21.476  0.00  0.00    +0.000 C 
ATOM     28  O   UNL     1       1.961   2.303  20.183  0.00  0.00    +0.000 OA
ENDBRANCH  19  20
ENDBRANCH  17  19
ENDBRANCH   1  15
TORSDOF 4
ENDMDL
MODEL 7
REMARK VINA RESULT:      -7.4      2.557      4.175
REMARK  Name = 
REMARK  5 active torsions:
REMARK  status: ('A' for Active; 'I' for Inactive)
REMARK    1  A    between atoms: C_1  and  C_2
REMARK    2  A    between atoms: N_6  and  C_7
REMARK    3  A    between atoms: C_7  and  C_8
REMARK    4  A    between atoms: N_10  and  C_11
REMARK    5  A    between atoms: C_11  and  C_12
REMARK                            x       y       z     vdW  Elec       q    Type
REMARK                         _______ _______ _______ _____ _____    ______ ____
ROOT
ATOM      1  C   UNL     1       0.681  10.348  20.734  0.00  0.00    +0.000 C 
ENDROOT
BRANCH   1   7
ATOM      2  C   UNL     1      -3.668  11.529  18.136  0.00  0.00    +0.000 C 
ATOM      3  C   UNL     1      -2.147  11.558  18.278  0.00  0.00    +0.000 C 
ATOM      4  C   UNL     1      -1.604  10.174  18.618  0.00  0.00    +0.000 C 
ATOM      5  C   UNL     1      -0.103  10.089  18.413  0.00  0.00    +0.000 C 
ATOM      6  O   UNL     1       0.368   9.478  17.450  0.00  0.00    +0.000 OA
ATOM      7  N   UNL     1       0.739  10.727  19.313  0.00  0.00    +0.000 N 
ATOM      8  C   UNL     1       0.973  12.112  19.088  0.00  0.00    +0.000 A 
ATOM      9  C   UNL     1       2.295  12.480  18.808  0.00  0.00    +0.000 A 
ATOM     10  C   UNL     1       2.626  13.818  18.594  0.00  0.00    +0.000 A 
ATOM     11  C   UNL     1       1.636  14.794  18.659  0.00  0.00    +0.000 A 
ATOM     12  C   UNL     1       0.319  14.437  18.954  0.00  0.00    +0.000 A 
ATOM     13  C   UNL     1      -0.030  13.099  19.164  0.00  0.00    +0.000 A 
ATOM     14  S   UNL     1      -1.735  12.762  19.593  0.00  0.00    +0.000 S 
ENDBRANCH   1   7
BRANCH   1  15
ATOM     15  C   UNL     1       0.795   8.830  20.900  0.00  0.00    +0.000 C 
ATOM     16  O   UNL     1       0.084   8.219  21.704  0.00  0.00    +0.000 OA
ATOM     17  N   UNL     1       1.809   8.237  20.200  0.00  0.00    +0.000 N 
ATOM     18  H   UNL     1       2.324   8.801  19.526  0.00  0.00    +0.000 HD
BRANCH  17  19
ATOM     19  C   UNL     1       1.984   6.811  20.163  0.00  0.00    +0.000 C 
BRANCH  19  20
ATOM     20  C   UNL     1       3.058   6.391  19.197  0.00  0.00    +0.000 A 
ATOM     21  C   UNL     1       3.218   7.072  17.965  0.00  0.00    +0.000 A 
ATOM     22  C   UNL     1       4.330   6.830  17.148  0.00  0.00    +0.000 A 
ATOM     23  C   UNL     1       5.259   5.923  17.603  0.00  0.00    +0.000 A 
ATOM     24  C   UNL     1       5.065   5.200  18.761  0.00  0.00    +0.000 A 
ATOM     25  C   UNL     1       3.962   5.381  19.560  0.00  0.00    +0.000 A 
ATOM     26  O   UNL     1       6.129   4.401  19.051  0.00  0.00    +0.000 OA
ATOM     27  C   UNL     1       7.098   4.974  18.152  0.00  0.00    +0.000 C 
ATOM     28  O   UNL     1       6.480   5.677  17.053  0.00  0.00    +0.000 OA
ENDBRANCH  19  20
ENDBRANCH  17  19
ENDBRANCH   1  15
TORSDOF 4
ENDMDL
MODEL 8
REMARK VINA RESULT:      -7.3      5.912      9.231
REMARK  Name = 
REMARK  5 active torsions:
REMARK  status: ('A' for Active; 'I' for Inactive)
REMARK    1  A    between atoms: C_1  and  C_2
REMARK    2  A    between atoms: N_6  and  C_7
REMARK    3  A    between atoms: C_7  and  C_8
REMARK    4  A    between atoms: N_10  and  C_11
REMARK    5  A    between atoms: C_11  and  C_12
REMARK                            x       y       z     vdW  Elec       q    Type
REMARK                         _______ _______ _______ _____ _____    ______ ____
ROOT
ATOM      1  C   UNL     1       6.393   6.222  18.182  0.00  0.00    +0.000 C 
ENDROOT
BRANCH   1   7
ATOM      2  C   UNL     1       3.453   2.039  19.140  0.00  0.00    +0.000 C 
ATOM      3  C   UNL     1       3.639   3.433  18.542  0.00  0.00    +0.000 C 
ATOM      4  C   UNL     1       4.924   3.509  17.724  0.00  0.00    +0.000 C 
ATOM      5  C   UNL     1       4.958   4.739  16.837  0.00  0.00    +0.000 C 
ATOM      6  O   UNL     1       4.790   4.641  15.618  0.00  0.00    +0.000 OA
ATOM      7  N   UNL     1       5.160   5.985  17.415  0.00  0.00    +0.000 N 
ATOM      8  C   UNL     1       4.008   6.628  17.949  0.00  0.00    +0.000 A 
ATOM      9  C   UNL     1       3.646   7.842  17.354  0.00  0.00    +0.000 A 
ATOM     10  C   UNL     1       2.543   8.558  17.822  0.00  0.00    +0.000 A 
ATOM     11  C   UNL     1       1.799   8.061  18.887  0.00  0.00    +0.000 A 
ATOM     12  C   UNL     1       2.163   6.859  19.497  0.00  0.00    +0.000 A 
ATOM     13  C   UNL     1       3.261   6.127  19.034  0.00  0.00    +0.000 A 
ATOM     14  S   UNL     1       3.674   4.630  19.925  0.00  0.00    +0.000 S 
ENDBRANCH   1   7
BRANCH   1  15
ATOM     15  C   UNL     1       7.354   7.126  17.406  0.00  0.00    +0.000 C 
ATOM     16  O   UNL     1       7.860   6.759  16.341  0.00  0.00    +0.000 OA
ATOM     17  N   UNL     1       7.700   8.291  18.032  0.00  0.00    +0.000 N 
ATOM     18  H   UNL     1       7.208   8.543  18.888  0.00  0.00    +0.000 HD
BRANCH  17  19
ATOM     19  C   UNL     1       8.505   9.296  17.394  0.00  0.00    +0.000 C 
BRANCH  19  20
ATOM     20  C   UNL     1       9.194  10.193  18.387  0.00  0.00    +0.000 A 
ATOM     21  C   UNL     1      10.086  11.199  17.941  0.00  0.00    +0.000 A 
ATOM     22  C   UNL     1      10.579  12.167  18.826  0.00  0.00    +0.000 A 
ATOM     23  C   UNL     1      10.145  12.106  20.130  0.00  0.00    +0.000 A 
ATOM     24  C   UNL     1       9.341  11.082  20.583  0.00  0.00    +0.000 A 
ATOM     25  C   UNL     1       8.880  10.091  19.749  0.00  0.00    +0.000 A 
ATOM     26  O   UNL     1       8.989  11.245  21.888  0.00  0.00    +0.000 OA
ATOM     27  C   UNL     1       9.371  12.624  22.058  0.00  0.00    +0.000 C 
ATOM     28  O   UNL     1      10.362  13.042  21.095  0.00  0.00    +0.000 OA
ENDBRANCH  19  20
ENDBRANCH  17  19
ENDBRANCH   1  15
TORSDOF 4
ENDMDL
MODEL 9
REMARK VINA RESULT:      -7.3      2.152      3.507
REMARK  Name = 
REMARK  5 active torsions:
REMARK  status: ('A' for Active; 'I' for Inactive)
REMARK    1  A    between atoms: C_1  and  C_2
REMARK    2  A    between atoms: N_6  and  C_7
REMARK    3  A    between atoms: C_7  and  C_8
REMARK    4  A    between atoms: N_10  and  C_11
REMARK    5  A    between atoms: C_11  and  C_12
REMARK                            x       y       z     vdW  Elec       q    Type
REMARK                         _______ _______ _______ _____ _____    ______ ____
ROOT
ATOM      1  C   UNL     1       0.806  10.484  19.628  0.00  0.00    +0.000 C 
ENDROOT
BRANCH   1   7
ATOM      2  C   UNL     1      -2.644  13.823  21.632  0.00  0.00    +0.000 C 
ATOM      3  C   UNL     1      -1.529  13.487  20.642  0.00  0.00    +0.000 C 
ATOM      4  C   UNL     1      -1.805  12.162  19.938  0.00  0.00    +0.000 C 
ATOM      5  C   UNL     1      -0.926  11.979  18.715  0.00  0.00    +0.000 C 
ATOM      6  O   UNL     1      -1.395  12.096  17.579  0.00  0.00    +0.000 OA
ATOM      7  N   UNL     1       0.421  11.696  18.887  0.00  0.00    +0.000 N 
ATOM      8  C   UNL     1       1.278  12.810  19.106  0.00  0.00    +0.000 A 
ATOM      9  C   UNL     1       2.262  13.036  18.136  0.00  0.00    +0.000 A 
ATOM     10  C   UNL     1       3.163  14.092  18.275  0.00  0.00    +0.000 A 
ATOM     11  C   UNL     1       3.083  14.927  19.385  0.00  0.00    +0.000 A 
ATOM     12  C   UNL     1       2.115  14.699  20.365  0.00  0.00    +0.000 A 
ATOM     13  C   UNL     1       1.201  13.649  20.237  0.00  0.00    +0.000 A 
ATOM     14  S   UNL     1       0.041  13.413  21.579  0.00  0.00    +0.000 S 
ENDBRANCH   1   7
BRANCH   1  15
ATOM     15  C   UNL     1       1.450   9.454  18.697  0.00  0.00    +0.000 C 
ATOM     16  O   UNL     1       1.464   9.618  17.473  0.00  0.00    +0.000 OA
ATOM     17  N   UNL     1       1.884   8.307  19.301  0.00  0.00    +0.000 N 
ATOM     18  H   UNL     1       1.877   8.265  20.318  0.00  0.00    +0.000 HD
BRANCH  17  19
ATOM     19  C   UNL     1       2.607   7.290  18.587  0.00  0.00    +0.000 C 
BRANCH  19  20
ATOM     20  C   UNL     1       2.191   5.902  18.991  0.00  0.00    +0.000 A 
ATOM     21  C   UNL     1       1.947   4.914  18.006  0.00  0.00    +0.000 A 
ATOM     22  C   UNL     1       1.756   3.573  18.363  0.00  0.00    +0.000 A 
ATOM     23  C   UNL     1       1.837   3.261  19.700  0.00  0.00    +0.000 A 
ATOM     24  C   UNL     1       1.994   4.232  20.666  0.00  0.00    +0.000 A 
ATOM     25  C   UNL     1       2.136   5.562  20.351  0.00  0.00    +0.000 A 
ATOM     26  O   UNL     1       2.101   3.701  21.916  0.00  0.00    +0.000 OA
ATOM     27  C   UNL     1       2.337   2.324  21.560  0.00  0.00    +0.000 C 
ATOM     28  O   UNL     1       1.856   2.009  20.235  0.00  0.00    +0.000 OA
ENDBRANCH  19  20
ENDBRANCH  17  19
ENDBRANCH   1  15
TORSDOF 4
ENDMDL
