MODEL 1
REMARK VINA RESULT:      -6.5      0.000      0.000
REMARK  Name = 
REMARK  3 active torsions:
REMARK  status: ('A' for Active; 'I' for Inactive)
REMARK    1  A    between atoms: C_1  and  C_2
REMARK    2  A    between atoms: C_2  and  C_3
REMARK    3  A    between atoms: C_3  and  N_4
REMARK                            x       y       z     vdW  Elec       q    Type
REMARK                         _______ _______ _______ _____ _____    ______ ____
ROOT
ATOM      1  N   UNL     1       5.740   4.554  17.367  0.00  0.00    +0.000 NA
ATOM      2  C   UNL     1       5.828   6.040  17.361  0.00  0.00    +0.000 C 
ATOM      3  C   UNL     1       4.484   6.772  17.119  0.00  0.00    +0.000 C 
ATOM      4  N   UNL     1       3.548   6.320  18.147  0.00  0.00    +0.000 N 
ATOM      5  C   UNL     1       2.674   7.191  18.682  0.00  0.00    +0.000 A 
ATOM      6  N   UNL     1       2.164   8.289  18.177  0.00  0.00    +0.000 NA
ATOM      7  C   UNL     1       1.485   8.892  19.215  0.00  0.00    +0.000 A 
ATOM      8  C   UNL     1       0.739  10.074  19.262  0.00  0.00    +0.000 A 
ATOM      9  N   UNL     1       0.205  10.500  20.440  0.00  0.00    +0.000 NA
ATOM     10  C   UNL     1       0.416   9.765  21.559  0.00  0.00    +0.000 A 
ATOM     11  C   UNL     1       1.125   8.574  21.614  0.00  0.00    +0.000 A 
ATOM     12  C   UNL     1       1.634   8.163  20.390  0.00  0.00    +0.000 A 
ATOM     13  N   UNL     1       2.364   7.071  20.011  0.00  0.00    +0.000 N 
ATOM     14  C   UNL     1       3.323   4.875  18.181  0.00  0.00    +0.000 C 
ATOM     15  C   UNL     1       4.685   4.148  18.334  0.00  0.00    +0.000 C 
ATOM     16  H   UNL     1       2.729   6.355  20.614  0.00  0.00    +0.000 HD
ENDROOT
BRANCH   1  17
ATOM     17  C   UNL     1       5.471   3.989  16.035  0.00  0.00    +0.000 C 
BRANCH  17  19
ATOM     18  C   UNL     1       6.173   3.869  13.614  0.00  0.00    +0.000 C 
ATOM     19  C   UNL     1       6.548   4.352  15.005  0.00  0.00    +0.000 C 
ENDBRANCH  17  19
ENDBRANCH   1  17
TORSDOF 2
ENDMDL
MODEL 2
REMARK VINA RESULT:      -6.0      3.825      4.562
REMARK  Name = 
REMARK  3 active torsions:
REMARK  status: ('A' for Active; 'I' for Inactive)
REMARK    1  A    between atoms: C_1  and  C_2
REMARK    2  A    between atoms: C_2  and  C_3
REMARK    3  A    between atoms: C_3  and  N_4
REMARK                            x       y       z     vdW  Elec       q    Type
REMARK                         _______ _______ _______ _____ _____    ______ ____
ROOT
ATOM      1  N   UNL     1       6.787   5.826  15.205  0.00  0.00    +0.000 NA
ATOM      2  C   UNL     1       5.324   5.590  15.068  0.00  0.00    +0.000 C 
ATOM      3  C   UNL     1       4.810   4.283  15.722  0.00  0.00    +0.000 C 
ATOM      4  N   UNL     1       5.191   4.319  17.132  0.00  0.00    +0.000 N 
ATOM      5  C   UNL     1       4.353   3.826  18.062  0.00  0.00    +0.000 A 
ATOM      6  N   UNL     1       3.425   2.905  17.955  0.00  0.00    +0.000 NA
ATOM      7  C   UNL     1       2.742   2.929  19.152  0.00  0.00    +0.000 A 
ATOM      8  C   UNL     1       1.667   2.162  19.613  0.00  0.00    +0.000 A 
ATOM      9  N   UNL     1       1.115   2.418  20.832  0.00  0.00    +0.000 NA
ATOM     10  C   UNL     1       1.620   3.429  21.580  0.00  0.00    +0.000 A 
ATOM     11  C   UNL     1       2.691   4.235  21.221  0.00  0.00    +0.000 A 
ATOM     12  C   UNL     1       3.239   3.928  19.983  0.00  0.00    +0.000 A 
ATOM     13  N   UNL     1       4.283   4.455  19.277  0.00  0.00    +0.000 N 
ATOM     14  C   UNL     1       6.626   4.462  17.378  0.00  0.00    +0.000 C 
ATOM     15  C   UNL     1       7.147   5.726  16.646  0.00  0.00    +0.000 C 
ATOM     16  H   UNL     1       4.838   5.252  19.533  0.00  0.00    +0.000 HD
ENDROOT
BRANCH   1  17
ATOM     17  C   UNL     1       7.597   4.898  14.400  0.00  0.00    +0.000 C 
BRANCH  17  19
ATOM     18  C   UNL     1       6.777   3.680  12.348  0.00  0.00    +0.000 C 
ATOM     19  C   UNL     1       7.299   4.997  12.898  0.00  0.00    +0.000 C 
ENDBRANCH  17  19
ENDBRANCH   1  17
TORSDOF 2
ENDMDL
MODEL 3
REMARK VINA RESULT:      -6.0      3.070      7.447
REMARK  Name = 
REMARK  3 active torsions:
REMARK  status: ('A' for Active; 'I' for Inactive)
REMARK    1  A    between atoms: C_1  and  C_2
REMARK    2  A    between atoms: C_2  and  C_3
REMARK    3  A    between atoms: C_3  and  N_4
REMARK                            x       y       z     vdW  Elec       q    Type
REMARK                         _______ _______ _______ _____ _____    ______ ____
ROOT
ATOM      1  N   UNL     1       2.015   4.788  18.870  0.00  0.00    +0.000 NA
ATOM      2  C   UNL     1       2.569   5.937  18.102  0.00  0.00    +0.000 C 
ATOM      3  C   UNL     1       4.078   5.832  17.767  0.00  0.00    +0.000 C 
ATOM      4  N   UNL     1       4.278   4.584  17.033  0.00  0.00    +0.000 N 
ATOM      5  C   UNL     1       5.165   4.539  16.024  0.00  0.00    +0.000 A 
ATOM      6  N   UNL     1       6.237   5.265  15.813  0.00  0.00    +0.000 NA
ATOM      7  C   UNL     1       6.663   4.934  14.544  0.00  0.00    +0.000 A 
ATOM      8  C   UNL     1       7.759   5.379  13.797  0.00  0.00    +0.000 A 
ATOM      9  N   UNL     1       7.939   4.943  12.519  0.00  0.00    +0.000 NA
ATOM     10  C   UNL     1       7.037   4.082  11.988  0.00  0.00    +0.000 A 
ATOM     11  C   UNL     1       5.930   3.570  12.650  0.00  0.00    +0.000 A 
ATOM     12  C   UNL     1       5.794   4.022  13.955  0.00  0.00    +0.000 A 
ATOM     13  N   UNL     1       4.875   3.764  14.932  0.00  0.00    +0.000 N 
ATOM     14  C   UNL     1       3.844   3.379  17.740  0.00  0.00    +0.000 C 
ATOM     15  C   UNL     1       2.356   3.532  18.149  0.00  0.00    +0.000 C 
ATOM     16  H   UNL     1       4.047   3.201  14.843  0.00  0.00    +0.000 HD
ENDROOT
BRANCH   1  17
ATOM     17  C   UNL     1       2.500   4.739  20.259  0.00  0.00    +0.000 C 
BRANCH  17  19
ATOM     18  C   UNL     1       2.430   2.676  21.710  0.00  0.00    +0.000 C 
ATOM     19  C   UNL     1       1.634   3.848  21.160  0.00  0.00    +0.000 C 
ENDBRANCH  17  19
ENDBRANCH   1  17
TORSDOF 2
ENDMDL
MODEL 4
REMARK VINA RESULT:      -5.8      3.620      5.077
REMARK  Name = 
REMARK  3 active torsions:
REMARK  status: ('A' for Active; 'I' for Inactive)
REMARK    1  A    between atoms: C_1  and  C_2
REMARK    2  A    between atoms: C_2  and  C_3
REMARK    3  A    between atoms: C_3  and  N_4
REMARK                            x       y       z     vdW  Elec       q    Type
REMARK                         _______ _______ _______ _____ _____    ______ ____
ROOT
ATOM      1  N   UNL     1       7.546   6.677  17.043  0.00  0.00    +0.000 NA
ATOM      2  C   UNL     1       7.452   5.854  18.280  0.00  0.00    +0.000 C 
ATOM      3  C   UNL     1       6.152   6.053  19.098  0.00  0.00    +0.000 C 
ATOM      4  N   UNL     1       5.027   5.768  18.209  0.00  0.00    +0.000 N 
ATOM      5  C   UNL     1       3.940   5.139  18.690  0.00  0.00    +0.000 A 
ATOM      6  N   UNL     1       3.463   5.097  19.911  0.00  0.00    +0.000 NA
ATOM      7  C   UNL     1       2.453   4.159  19.881  0.00  0.00    +0.000 A 
ATOM      8  C   UNL     1       1.587   3.707  20.882  0.00  0.00    +0.000 A 
ATOM      9  N   UNL     1       0.697   2.711  20.620  0.00  0.00    +0.000 NA
ATOM     10  C   UNL     1       0.673   2.163  19.380  0.00  0.00    +0.000 A 
ATOM     11  C   UNL     1       1.477   2.550  18.317  0.00  0.00    +0.000 A 
ATOM     12  C   UNL     1       2.354   3.582  18.619  0.00  0.00    +0.000 A 
ATOM     13  N   UNL     1       3.286   4.251  17.876  0.00  0.00    +0.000 N 
ATOM     14  C   UNL     1       4.978   6.588  16.999  0.00  0.00    +0.000 C 
ATOM     15  C   UNL     1       6.319   6.451  16.233  0.00  0.00    +0.000 C 
ATOM     16  H   UNL     1       3.551   4.053  16.928  0.00  0.00    +0.000 HD
ENDROOT
BRANCH   1  17
ATOM     17  C   UNL     1       7.731   8.111  17.320  0.00  0.00    +0.000 C 
BRANCH  17  19
ATOM     18  C   UNL     1       8.821   9.859  18.777  0.00  0.00    +0.000 C 
ATOM     19  C   UNL     1       8.616   8.371  18.546  0.00  0.00    +0.000 C 
ENDBRANCH  17  19
ENDBRANCH   1  17
TORSDOF 2
ENDMDL
MODEL 5
REMARK VINA RESULT:      -5.8      3.592      4.378
REMARK  Name = 
REMARK  3 active torsions:
REMARK  status: ('A' for Active; 'I' for Inactive)
REMARK    1  A    between atoms: C_1  and  C_2
REMARK    2  A    between atoms: C_2  and  C_3
REMARK    3  A    between atoms: C_3  and  N_4
REMARK                            x       y       z     vdW  Elec       q    Type
REMARK                         _______ _______ _______ _____ _____    ______ ____
ROOT
ATOM      1  N   UNL     1       7.194   5.442  15.384  0.00  0.00    +0.000 NA
ATOM      2  C   UNL     1       6.407   6.310  16.303  0.00  0.00    +0.000 C 
ATOM      3  C   UNL     1       4.930   5.885  16.498  0.00  0.00    +0.000 C 
ATOM      4  N   UNL     1       4.932   4.505  16.977  0.00  0.00    +0.000 N 
ATOM      5  C   UNL     1       4.025   4.116  17.892  0.00  0.00    +0.000 A 
ATOM      6  N   UNL     1       2.831   4.594  18.149  0.00  0.00    +0.000 NA
ATOM      7  C   UNL     1       2.419   3.958  19.301  0.00  0.00    +0.000 A 
ATOM      8  C   UNL     1       1.231   4.057  20.032  0.00  0.00    +0.000 A 
ATOM      9  N   UNL     1       1.080   3.360  21.192  0.00  0.00    +0.000 NA
ATOM     10  C   UNL     1       2.101   2.582  21.627  0.00  0.00    +0.000 A 
ATOM     11  C   UNL     1       3.310   2.404  20.969  0.00  0.00    +0.000 A 
ATOM     12  C   UNL     1       3.415   3.113  19.780  0.00  0.00    +0.000 A 
ATOM     13  N   UNL     1       4.407   3.208  18.845  0.00  0.00    +0.000 N 
ATOM     14  C   UNL     1       5.608   3.549  16.100  0.00  0.00    +0.000 C 
ATOM     15  C   UNL     1       7.058   4.032  15.839  0.00  0.00    +0.000 C 
ATOM     16  H   UNL     1       5.319   2.790  18.893  0.00  0.00    +0.000 HD
ENDROOT
BRANCH   1  17
ATOM     17  C   UNL     1       6.785   5.576  13.977  0.00  0.00    +0.000 C 
BRANCH  17  19
ATOM     18  C   UNL     1       7.098   3.995  12.035  0.00  0.00    +0.000 C 
ATOM     19  C   UNL     1       7.787   4.942  13.003  0.00  0.00    +0.000 C 
ENDBRANCH  17  19
ENDBRANCH   1  17
TORSDOF 2
ENDMDL
MODEL 6
REMARK VINA RESULT:      -5.7      2.066      2.469
REMARK  Name = 
REMARK  3 active torsions:
REMARK  status: ('A' for Active; 'I' for Inactive)
REMARK    1  A    between atoms: C_1  and  C_2
REMARK    2  A    between atoms: C_2  and  C_3
REMARK    3  A    between atoms: C_3  and  N_4
REMARK                            x       y       z     vdW  Elec       q    Type
REMARK                         _______ _______ _______ _____ _____    ______ ____
ROOT
ATOM      1  N   UNL     1       4.472   3.964  19.439  0.00  0.00    +0.000 NA
ATOM      2  C   UNL     1       4.896   5.376  19.231  0.00  0.00    +0.000 C 
ATOM      3  C   UNL     1       3.794   6.313  18.676  0.00  0.00    +0.000 C 
ATOM      4  N   UNL     1       2.662   6.252  19.599  0.00  0.00    +0.000 N 
ATOM      5  C   UNL     1       1.952   7.364  19.858  0.00  0.00    +0.000 A 
ATOM      6  N   UNL     1       1.771   8.437  19.124  0.00  0.00    +0.000 NA
ATOM      7  C   UNL     1       1.126   9.340  19.943  0.00  0.00    +0.000 A 
ATOM      8  C   UNL     1       0.670  10.639  19.700  0.00  0.00    +0.000 A 
ATOM      9  N   UNL     1       0.108  11.367  20.704  0.00  0.00    +0.000 NA
ATOM     10  C   UNL     1       0.009  10.814  21.938  0.00  0.00    +0.000 A 
ATOM     11  C   UNL     1       0.415   9.531  22.277  0.00  0.00    +0.000 A 
ATOM     12  C   UNL     1       0.962   8.815  21.221  0.00  0.00    +0.000 A 
ATOM     13  N   UNL     1       1.463   7.547  21.124  0.00  0.00    +0.000 N 
ATOM     14  C   UNL     1       2.111   4.913  19.808  0.00  0.00    +0.000 C 
ATOM     15  C   UNL     1       3.242   3.962  20.277  0.00  0.00    +0.000 C 
ATOM     16  H   UNL     1       1.579   6.890  21.875  0.00  0.00    +0.000 HD
ENDROOT
BRANCH   1  17
ATOM     17  C   UNL     1       4.244   3.241  18.178  0.00  0.00    +0.000 C 
BRANCH  17  19
ATOM     18  C   UNL     1       2.149   1.903  17.744  0.00  0.00    +0.000 C 
ATOM     19  C   UNL     1       3.528   1.899  18.383  0.00  0.00    +0.000 C 
ENDBRANCH  17  19
ENDBRANCH   1  17
TORSDOF 2
ENDMDL
MODEL 7
REMARK VINA RESULT:      -5.7      2.733      6.819
REMARK  Name = 
REMARK  3 active torsions:
REMARK  status: ('A' for Active; 'I' for Inactive)
REMARK    1  A    between atoms: C_1  and  C_2
REMARK    2  A    between atoms: C_2  and  C_3
REMARK    3  A    between atoms: C_3  and  N_4
REMARK                            x       y       z     vdW  Elec       q    Type
REMARK                         _______ _______ _______ _____ _____    ______ ____
ROOT
ATOM      1  N   UNL     1       0.186  10.546  19.360  0.00  0.00    +0.000 NA
ATOM      2  C   UNL     1       0.630   9.619  18.282  0.00  0.00    +0.000 C 
ATOM      3  C   UNL     1       1.923   8.826  18.595  0.00  0.00    +0.000 C 
ATOM      4  N   UNL     1       1.697   8.092  19.839  0.00  0.00    +0.000 N 
ATOM      5  C   UNL     1       2.204   6.855  19.984  0.00  0.00    +0.000 A 
ATOM      6  N   UNL     1       3.248   6.301  19.414  0.00  0.00    +0.000 NA
ATOM      7  C   UNL     1       3.198   4.969  19.768  0.00  0.00    +0.000 A 
ATOM      8  C   UNL     1       4.053   3.905  19.466  0.00  0.00    +0.000 A 
ATOM      9  N   UNL     1       3.755   2.645  19.889  0.00  0.00    +0.000 NA
ATOM     10  C   UNL     1       2.616   2.444  20.596  0.00  0.00    +0.000 A 
ATOM     11  C   UNL     1       1.713   3.433  20.961  0.00  0.00    +0.000 A 
ATOM     12  C   UNL     1       2.064   4.704  20.530  0.00  0.00    +0.000 A 
ATOM     13  N   UNL     1       1.474   5.927  20.679  0.00  0.00    +0.000 N 
ATOM     14  C   UNL     1       1.339   8.924  20.987  0.00  0.00    +0.000 C 
ATOM     15  C   UNL     1       0.095   9.780  20.632  0.00  0.00    +0.000 C 
ATOM     16  H   UNL     1       0.587   6.117  21.113  0.00  0.00    +0.000 HD
ENDROOT
BRANCH   1  17
ATOM     17  C   UNL     1       1.073  11.711  19.516  0.00  0.00    +0.000 C 
BRANCH  17  19
ATOM     18  C   UNL     1      -0.772  13.017  18.394  0.00  0.00    +0.000 C 
ATOM     19  C   UNL     1       0.731  12.853  18.549  0.00  0.00    +0.000 C 
ENDBRANCH  17  19
ENDBRANCH   1  17
TORSDOF 2
ENDMDL
MODEL 8
REMARK VINA RESULT:      -5.7      0.991      1.048
REMARK  Name = 
REMARK  3 active torsions:
REMARK  status: ('A' for Active; 'I' for Inactive)
REMARK    1  A    between atoms: C_1  and  C_2
REMARK    2  A    between atoms: C_2  and  C_3
REMARK    3  A    between atoms: C_3  and  N_4
REMARK                            x       y       z     vdW  Elec       q    Type
REMARK                         _______ _______ _______ _____ _____    ______ ____
ROOT
ATOM      1  N   UNL     1       6.877   5.252  16.915  0.00  0.00    +0.000 NA
ATOM      2  C   UNL     1       6.789   6.691  17.285  0.00  0.00    +0.000 C 
ATOM      3  C   UNL     1       5.436   7.369  16.952  0.00  0.00    +0.000 C 
ATOM      4  N   UNL     1       4.387   6.605  17.624  0.00  0.00    +0.000 N 
ATOM      5  C   UNL     1       3.334   7.247  18.160  0.00  0.00    +0.000 A 
ATOM      6  N   UNL     1       2.800   8.402  17.838  0.00  0.00    +0.000 NA
ATOM      7  C   UNL     1       1.876   8.669  18.826  0.00  0.00    +0.000 A 
ATOM      8  C   UNL     1       1.001   9.746  19.000  0.00  0.00    +0.000 A 
ATOM      9  N   UNL     1       0.212   9.816  20.109  0.00  0.00    +0.000 NA
ATOM     10  C   UNL     1       0.299   8.832  21.037  0.00  0.00    +0.000 A 
ATOM     11  C   UNL     1       1.120   7.717  20.950  0.00  0.00    +0.000 A 
ATOM     12  C   UNL     1       1.890   7.672  19.796  0.00  0.00    +0.000 A 
ATOM     13  N   UNL     1       2.800   6.767  19.326  0.00  0.00    +0.000 N 
ATOM     14  C   UNL     1       4.331   5.189  17.263  0.00  0.00    +0.000 C 
ATOM     15  C   UNL     1       5.716   4.540  17.516  0.00  0.00    +0.000 C 
ATOM     16  H   UNL     1       3.129   5.945  19.802  0.00  0.00    +0.000 HD
ENDROOT
BRANCH   1  17
ATOM     17  C   UNL     1       6.925   5.034  15.460  0.00  0.00    +0.000 C 
BRANCH  17  19
ATOM     18  C   UNL     1       5.971   3.745  13.512  0.00  0.00    +0.000 C 
ATOM     19  C   UNL     1       6.155   3.782  15.020  0.00  0.00    +0.000 C 
ENDBRANCH  17  19
ENDBRANCH   1  17
TORSDOF 2
ENDMDL
MODEL 9
REMARK VINA RESULT:      -5.6      3.512      7.461
REMARK  Name = 
REMARK  3 active torsions:
REMARK  status: ('A' for Active; 'I' for Inactive)
REMARK    1  A    between atoms: C_1  and  C_2
REMARK    2  A    between atoms: C_2  and  C_3
REMARK    3  A    between atoms: C_3  and  N_4
REMARK                            x       y       z     vdW  Elec       q    Type
REMARK                         _______ _______ _______ _____ _____    ______ ____
ROOT
ATOM      1  N   UNL     1       3.585   4.311  19.941  0.00  0.00    +0.000 NA
ATOM      2  C   UNL     1       4.123   3.156  19.171  0.00  0.00    +0.000 C 
ATOM      3  C   UNL     1       3.839   3.197  17.648  0.00  0.00    +0.000 C 
ATOM      4  N   UNL     1       4.386   4.451  17.135  0.00  0.00    +0.000 N 
ATOM      5  C   UNL     1       4.968   4.478  15.923  0.00  0.00    +0.000 A 
ATOM      6  N   UNL     1       4.774   3.707  14.879  0.00  0.00    +0.000 NA
ATOM      7  C   UNL     1       5.763   4.047  13.980  0.00  0.00    +0.000 A 
ATOM      8  C   UNL     1       6.043   3.569  12.696  0.00  0.00    +0.000 A 
ATOM      9  N   UNL     1       7.130   4.027  12.016  0.00  0.00    +0.000 NA
ATOM     10  C   UNL     1       7.936   4.942  12.609  0.00  0.00    +0.000 A 
ATOM     11  C   UNL     1       7.736   5.490  13.868  0.00  0.00    +0.000 A 
ATOM     12  C   UNL     1       6.606   5.014  14.518  0.00  0.00    +0.000 A 
ATOM     13  N   UNL     1       6.054   5.293  15.737  0.00  0.00    +0.000 N 
ATOM     14  C   UNL     1       3.855   5.659  17.768  0.00  0.00    +0.000 C 
ATOM     15  C   UNL     1       4.065   5.566  19.302  0.00  0.00    +0.000 C 
ATOM     16  H   UNL     1       6.435   5.895  16.444  0.00  0.00    +0.000 HD
ENDROOT
BRANCH   1  17
ATOM     17  C   UNL     1       2.116   4.303  20.036  0.00  0.00    +0.000 C 
BRANCH  17  19
ATOM     18  C   UNL     1       1.715   2.641  21.891  0.00  0.00    +0.000 C 
ATOM     19  C   UNL     1       1.551   2.926  20.408  0.00  0.00    +0.000 C 
ENDBRANCH  17  19
ENDBRANCH   1  17
TORSDOF 2
ENDMDL
