MODEL 1
REMARK VINA RESULT:      -8.3      0.000      0.000
REMARK  Name = 
REMARK  8 active torsions:
REMARK  status: ('A' for Active; 'I' for Inactive)
REMARK    1  A    between atoms: C_1  and  N_2
REMARK    2  A    between atoms: N_2  and  C_3
REMARK    3  A    between atoms: C_4  and  C_6
REMARK    4  A    between atoms: C_6  and  C_7
REMARK    5  A    between atoms: C_6  and  C_20
REMARK    6  A    between atoms: C_10  and  C_11
REMARK    7  A    between atoms: C_20  and  N_21
REMARK    8  A    between atoms: C_20  and  C_22
REMARK                            x       y       z     vdW  Elec       q    Type
REMARK                         _______ _______ _______ _____ _____    ______ ____
ROOT
ATOM      1  C   UNL     1       3.172   5.105  18.673  0.00  0.00    +0.000 C 
ENDROOT
BRANCH   1   2
ATOM      2  C   UNL     1       2.639   6.534  18.870  0.00  0.00    +0.000 A 
ATOM      3  C   UNL     1       2.117   6.896  20.119  0.00  0.00    +0.000 A 
ATOM      4  C   UNL     1       1.471   8.126  20.302  0.00  0.00    +0.000 A 
ATOM      5  C   UNL     1       1.322   9.050  19.253  0.00  0.00    +0.000 A 
ATOM      6  C   UNL     1       1.895   8.706  18.018  0.00  0.00    +0.000 A 
ATOM      7  C   UNL     1       2.533   7.465  17.828  0.00  0.00    +0.000 A 
BRANCH   5   8
ATOM      8  C   UNL     1       0.519  10.287  19.438  0.00  0.00    +0.000 A 
ATOM      9  C   UNL     1       0.604  11.047  20.623  0.00  0.00    +0.000 A 
ATOM     10  C   UNL     1      -0.231  12.146  20.848  0.00  0.00    +0.000 A 
ATOM     11  C   UNL     1      -1.149  12.519  19.879  0.00  0.00    +0.000 A 
ATOM     12  F   UNL     1      -1.960  13.560  20.101  0.00  0.00    +0.000 F 
ATOM     13  C   UNL     1      -1.240  11.818  18.685  0.00  0.00    +0.000 A 
ATOM     14  C   UNL     1      -0.413  10.710  18.470  0.00  0.00    +0.000 A 
ENDBRANCH   5   8
ENDBRANCH   1   2
BRANCH   1  18
ATOM     15  C   UNL     1       0.490   2.356  18.973  0.00  0.00    +0.000 C 
ATOM     16  N   UNL     1       1.636   3.184  19.319  0.00  0.00    +0.000 N 
ATOM     17  C   UNL     1       2.578   2.610  20.265  0.00  0.00    +0.000 C 
ATOM     18  C   UNL     1       1.986   4.158  18.373  0.00  0.00    +0.000 C 
ATOM     19  O   UNL     1       1.323   4.290  17.337  0.00  0.00    +0.000 OA
ENDBRANCH   1  18
BRANCH   1  20
ATOM     20  C   UNL     1       4.328   4.956  17.649  0.00  0.00    +0.000 C 
BRANCH  20  21
ATOM     21  C   UNL     1       5.687   4.981  18.397  0.00  0.00    +0.000 C 
ATOM     22  O   UNL     1       6.065   3.997  19.041  0.00  0.00    +0.000 OA
ATOM     23  N   UNL     1       6.464   6.118  18.333  0.00  0.00    +0.000 N 
ATOM     24  C   UNL     1       6.213   7.358  17.616  0.00  0.00    +0.000 C 
ATOM     25  C   UNL     1       7.605   7.897  17.326  0.00  0.00    +0.000 C 
ATOM     26  C   UNL     1       8.416   7.459  18.538  0.00  0.00    +0.000 C 
ATOM     27  C   UNL     1       7.776   6.144  18.967  0.00  0.00    +0.000 C 
ENDBRANCH  20  21
BRANCH  20  28
ATOM     28  N   UNL     1       4.306   3.756  16.770  0.00  0.00    +0.000 NA
ATOM     29  H   UNL     1       3.347   3.389  16.771  0.00  0.00    +0.000 HD
ATOM     30  H   UNL     1       4.858   3.020  17.214  0.00  0.00    +0.000 HD
ENDBRANCH  20  28
ENDBRANCH   1  20
TORSDOF 6
ENDMDL
MODEL 2
REMARK VINA RESULT:      -8.1      1.110      1.479
REMARK  Name = 
REMARK  8 active torsions:
REMARK  status: ('A' for Active; 'I' for Inactive)
REMARK    1  A    between atoms: C_1  and  N_2
REMARK    2  A    between atoms: N_2  and  C_3
REMARK    3  A    between atoms: C_4  and  C_6
REMARK    4  A    between atoms: C_6  and  C_7
REMARK    5  A    between atoms: C_6  and  C_20
REMARK    6  A    between atoms: C_10  and  C_11
REMARK    7  A    between atoms: C_20  and  N_21
REMARK    8  A    between atoms: C_20  and  C_22
REMARK                            x       y       z     vdW  Elec       q    Type
REMARK                         _______ _______ _______ _____ _____    ______ ____
ROOT
ATOM      1  C   UNL     1       3.032   5.113  18.683  0.00  0.00    +0.000 C 
ENDROOT
BRANCH   1   2
ATOM      2  C   UNL     1       2.417   6.520  18.760  0.00  0.00    +0.000 A 
ATOM      3  C   UNL     1       2.410   7.321  17.611  0.00  0.00    +0.000 A 
ATOM      4  C   UNL     1       2.013   8.663  17.668  0.00  0.00    +0.000 A 
ATOM      5  C   UNL     1       1.601   9.265  18.870  0.00  0.00    +0.000 A 
ATOM      6  C   UNL     1       1.557   8.444  20.008  0.00  0.00    +0.000 A 
ATOM      7  C   UNL     1       1.967   7.098  19.956  0.00  0.00    +0.000 A 
BRANCH   5   8
ATOM      8  C   UNL     1       1.312  10.721  18.930  0.00  0.00    +0.000 A 
ATOM      9  C   UNL     1       0.116  11.210  19.496  0.00  0.00    +0.000 A 
ATOM     10  C   UNL     1      -0.211  12.570  19.453  0.00  0.00    +0.000 A 
ATOM     11  C   UNL     1       0.667  13.467  18.865  0.00  0.00    +0.000 A 
ATOM     12  F   UNL     1       0.347  14.765  18.808  0.00  0.00    +0.000 F 
ATOM     13  C   UNL     1       1.869  13.031  18.328  0.00  0.00    +0.000 A 
ATOM     14  C   UNL     1       2.186  11.668  18.360  0.00  0.00    +0.000 A 
ENDBRANCH   5   8
ENDBRANCH   1   2
BRANCH   1  18
ATOM     15  C   UNL     1       0.535   2.224  19.195  0.00  0.00    +0.000 C 
ATOM     16  N   UNL     1       1.632   3.141  19.469  0.00  0.00    +0.000 N 
ATOM     17  C   UNL     1       2.624   2.684  20.428  0.00  0.00    +0.000 C 
ATOM     18  C   UNL     1       1.904   4.077  18.462  0.00  0.00    +0.000 C 
ATOM     19  O   UNL     1       1.218   4.106  17.433  0.00  0.00    +0.000 OA
ENDBRANCH   1  18
BRANCH   1  20
ATOM     20  C   UNL     1       4.201   4.946  17.677  0.00  0.00    +0.000 C 
BRANCH  20  21
ATOM     21  C   UNL     1       5.549   4.958  18.443  0.00  0.00    +0.000 C 
ATOM     22  O   UNL     1       5.889   3.987  19.127  0.00  0.00    +0.000 OA
ATOM     23  N   UNL     1       6.361   6.069  18.351  0.00  0.00    +0.000 N 
ATOM     24  C   UNL     1       6.156   7.289  17.588  0.00  0.00    +0.000 C 
ATOM     25  C   UNL     1       7.567   7.777  17.300  0.00  0.00    +0.000 C 
ATOM     26  C   UNL     1       8.348   7.359  18.539  0.00  0.00    +0.000 C 
ATOM     27  C   UNL     1       7.663   6.080  19.004  0.00  0.00    +0.000 C 
ENDBRANCH  20  21
BRANCH  20  28
ATOM     28  N   UNL     1       4.176   3.743  16.802  0.00  0.00    +0.000 NA
ATOM     29  H   UNL     1       3.939   2.937  17.390  0.00  0.00    +0.000 HD
ATOM     30  H   UNL     1       5.130   3.554  16.488  0.00  0.00    +0.000 HD
ENDBRANCH  20  28
ENDBRANCH   1  20
TORSDOF 6
ENDMDL
MODEL 3
REMARK VINA RESULT:      -7.7      1.825      2.095
REMARK  Name = 
REMARK  8 active torsions:
REMARK  status: ('A' for Active; 'I' for Inactive)
REMARK    1  A    between atoms: C_1  and  N_2
REMARK    2  A    between atoms: N_2  and  C_3
REMARK    3  A    between atoms: C_4  and  C_6
REMARK    4  A    between atoms: C_6  and  C_7
REMARK    5  A    between atoms: C_6  and  C_20
REMARK    6  A    between atoms: C_10  and  C_11
REMARK    7  A    between atoms: C_20  and  N_21
REMARK    8  A    between atoms: C_20  and  C_22
REMARK                            x       y       z     vdW  Elec       q    Type
REMARK                         _______ _______ _______ _____ _____    ______ ____
ROOT
ATOM      1  C   UNL     1       3.163   4.872  19.160  0.00  0.00    +0.000 C 
ENDROOT
BRANCH   1   2
ATOM      2  C   UNL     1       2.723   6.345  19.103  0.00  0.00    +0.000 A 
ATOM      3  C   UNL     1       2.156   6.928  20.244  0.00  0.00    +0.000 A 
ATOM      4  C   UNL     1       1.591   8.209  20.195  0.00  0.00    +0.000 A 
ATOM      5  C   UNL     1       1.571   8.967  19.012  0.00  0.00    +0.000 A 
ATOM      6  C   UNL     1       2.190   8.402  17.885  0.00  0.00    +0.000 A 
ATOM      7  C   UNL     1       2.747   7.109  17.928  0.00  0.00    +0.000 A 
BRANCH   5   8
ATOM      8  C   UNL     1       0.851  10.266  18.953  0.00  0.00    +0.000 A 
ATOM      9  C   UNL     1       1.535  11.475  18.708  0.00  0.00    +0.000 A 
ATOM     10  C   UNL     1       0.880  12.710  18.765  0.00  0.00    +0.000 A 
ATOM     11  C   UNL     1      -0.477  12.753  19.043  0.00  0.00    +0.000 A 
ATOM     12  F   UNL     1      -1.101  13.935  19.114  0.00  0.00    +0.000 F 
ATOM     13  C   UNL     1      -1.193  11.584  19.256  0.00  0.00    +0.000 A 
ATOM     14  C   UNL     1      -0.531  10.351  19.213  0.00  0.00    +0.000 A 
ENDBRANCH   5   8
ENDBRANCH   1   2
BRANCH   1  18
ATOM     15  C   UNL     1       1.385   2.477  21.597  0.00  0.00    +0.000 C 
ATOM     16  N   UNL     1       2.468   3.191  20.936  0.00  0.00    +0.000 N 
ATOM     17  C   UNL     1       3.784   2.581  21.024  0.00  0.00    +0.000 C 
ATOM     18  C   UNL     1       2.080   4.048  19.897  0.00  0.00    +0.000 C 
ATOM     19  O   UNL     1       0.885   4.181  19.609  0.00  0.00    +0.000 OA
ENDBRANCH   1  18
BRANCH   1  20
ATOM     20  C   UNL     1       3.571   4.242  17.802  0.00  0.00    +0.000 C 
BRANCH  20  21
ATOM     21  C   UNL     1       5.113   4.293  17.652  0.00  0.00    +0.000 C 
ATOM     22  O   UNL     1       5.844   4.100  18.630  0.00  0.00    +0.000 OA
ATOM     23  N   UNL     1       5.657   4.559  16.413  0.00  0.00    +0.000 N 
ATOM     24  C   UNL     1       4.978   4.787  15.148  0.00  0.00    +0.000 C 
ATOM     25  C   UNL     1       5.985   4.325  14.108  0.00  0.00    +0.000 C 
ATOM     26  C   UNL     1       7.329   4.685  14.729  0.00  0.00    +0.000 C 
ATOM     27  C   UNL     1       7.102   4.545  16.229  0.00  0.00    +0.000 C 
ENDBRANCH  20  21
BRANCH  20  28
ATOM     28  N   UNL     1       3.126   2.846  17.541  0.00  0.00    +0.000 NA
ATOM     29  H   UNL     1       2.573   2.854  16.677  0.00  0.00    +0.000 HD
ATOM     30  H   UNL     1       2.458   2.580  18.266  0.00  0.00    +0.000 HD
ENDBRANCH  20  28
ENDBRANCH   1  20
TORSDOF 6
ENDMDL
MODEL 4
REMARK VINA RESULT:      -7.6      1.218      1.462
REMARK  Name = 
REMARK  8 active torsions:
REMARK  status: ('A' for Active; 'I' for Inactive)
REMARK    1  A    between atoms: C_1  and  N_2
REMARK    2  A    between atoms: N_2  and  C_3
REMARK    3  A    between atoms: C_4  and  C_6
REMARK    4  A    between atoms: C_6  and  C_7
REMARK    5  A    between atoms: C_6  and  C_20
REMARK    6  A    between atoms: C_10  and  C_11
REMARK    7  A    between atoms: C_20  and  N_21
REMARK    8  A    between atoms: C_20  and  C_22
REMARK                            x       y       z     vdW  Elec       q    Type
REMARK                         _______ _______ _______ _____ _____    ______ ____
ROOT
ATOM      1  C   UNL     1       3.501   5.105  18.009  0.00  0.00    +0.000 C 
ENDROOT
BRANCH   1   2
ATOM      2  C   UNL     1       2.883   6.443  18.449  0.00  0.00    +0.000 A 
ATOM      3  C   UNL     1       2.549   6.625  19.798  0.00  0.00    +0.000 A 
ATOM      4  C   UNL     1       1.837   7.755  20.219  0.00  0.00    +0.000 A 
ATOM      5  C   UNL     1       1.432   8.756  19.319  0.00  0.00    +0.000 A 
ATOM      6  C   UNL     1       1.817   8.597  17.978  0.00  0.00    +0.000 A 
ATOM      7  C   UNL     1       2.522   7.456  17.550  0.00  0.00    +0.000 A 
BRANCH   5   8
ATOM      8  C   UNL     1       0.566   9.877  19.769  0.00  0.00    +0.000 A 
ATOM      9  C   UNL     1       0.713  10.451  21.048  0.00  0.00    +0.000 A 
ATOM     10  C   UNL     1      -0.173  11.428  21.517  0.00  0.00    +0.000 A 
ATOM     11  C   UNL     1      -1.206  11.864  20.703  0.00  0.00    +0.000 A 
ATOM     12  F   UNL     1      -2.063  12.785  21.157  0.00  0.00    +0.000 F 
ATOM     13  C   UNL     1      -1.364  11.348  19.425  0.00  0.00    +0.000 A 
ATOM     14  C   UNL     1      -0.485  10.361  18.964  0.00  0.00    +0.000 A 
ENDBRANCH   5   8
ENDBRANCH   1   2
BRANCH   1  18
ATOM     15  C   UNL     1       1.550   2.012  19.218  0.00  0.00    +0.000 C 
ATOM     16  N   UNL     1       2.609   3.007  19.134  0.00  0.00    +0.000 N 
ATOM     17  C   UNL     1       3.906   2.607  19.654  0.00  0.00    +0.000 C 
ATOM     18  C   UNL     1       2.440   3.988  18.147  0.00  0.00    +0.000 C 
ATOM     19  O   UNL     1       1.431   3.987  17.431  0.00  0.00    +0.000 OA
ENDBRANCH   1  18
BRANCH   1  20
ATOM     20  C   UNL     1       4.186   5.109  16.617  0.00  0.00    +0.000 C 
BRANCH  20  21
ATOM     21  C   UNL     1       5.318   6.169  16.601  0.00  0.00    +0.000 C 
ATOM     22  O   UNL     1       5.288   7.105  15.795  0.00  0.00    +0.000 OA
ATOM     23  N   UNL     1       6.358   6.050  17.498  0.00  0.00    +0.000 N 
ATOM     24  C   UNL     1       6.564   5.048  18.531  0.00  0.00    +0.000 C 
ATOM     25  C   UNL     1       7.389   5.774  19.581  0.00  0.00    +0.000 C 
ATOM     26  C   UNL     1       8.258   6.719  18.760  0.00  0.00    +0.000 C 
ATOM     27  C   UNL     1       7.399   7.068  17.551  0.00  0.00    +0.000 C 
ENDBRANCH  20  21
BRANCH  20  28
ATOM     28  N   UNL     1       4.751   3.820  16.135  0.00  0.00    +0.000 NA
ATOM     29  H   UNL     1       4.035   3.098  16.272  0.00  0.00    +0.000 HD
ATOM     30  H   UNL     1       5.508   3.545  16.764  0.00  0.00    +0.000 HD
ENDBRANCH  20  28
ENDBRANCH   1  20
TORSDOF 6
ENDMDL
MODEL 5
REMARK VINA RESULT:      -7.6      2.768      4.561
REMARK  Name = 
REMARK  8 active torsions:
REMARK  status: ('A' for Active; 'I' for Inactive)
REMARK    1  A    between atoms: C_1  and  N_2
REMARK    2  A    between atoms: N_2  and  C_3
REMARK    3  A    between atoms: C_4  and  C_6
REMARK    4  A    between atoms: C_6  and  C_7
REMARK    5  A    between atoms: C_6  and  C_20
REMARK    6  A    between atoms: C_10  and  C_11
REMARK    7  A    between atoms: C_20  and  N_21
REMARK    8  A    between atoms: C_20  and  C_22
REMARK                            x       y       z     vdW  Elec       q    Type
REMARK                         _______ _______ _______ _____ _____    ______ ____
ROOT
ATOM      1  C   UNL     1       5.522   5.775  17.159  0.00  0.00    +0.000 C 
ENDROOT
BRANCH   1   2
ATOM      2  C   UNL     1       4.276   6.397  17.812  0.00  0.00    +0.000 A 
ATOM      3  C   UNL     1       3.793   7.619  17.324  0.00  0.00    +0.000 A 
ATOM      4  C   UNL     1       2.767   8.305  17.985  0.00  0.00    +0.000 A 
ATOM      5  C   UNL     1       2.173   7.804  19.157  0.00  0.00    +0.000 A 
ATOM      6  C   UNL     1       2.622   6.553  19.611  0.00  0.00    +0.000 A 
ATOM      7  C   UNL     1       3.662   5.867  18.955  0.00  0.00    +0.000 A 
BRANCH   5   8
ATOM      8  C   UNL     1       1.180   8.612  19.911  0.00  0.00    +0.000 A 
ATOM      9  C   UNL     1       0.588   9.762  19.347  0.00  0.00    +0.000 A 
ATOM     10  C   UNL     1      -0.259  10.589  20.093  0.00  0.00    +0.000 A 
ATOM     11  C   UNL     1      -0.548  10.263  21.409  0.00  0.00    +0.000 A 
ATOM     12  F   UNL     1      -1.345  11.063  22.128  0.00  0.00    +0.000 F 
ATOM     13  C   UNL     1      -0.014   9.123  21.989  0.00  0.00    +0.000 A 
ATOM     14  C   UNL     1       0.845   8.306  21.245  0.00  0.00    +0.000 A 
ENDBRANCH   5   8
ENDBRANCH   1   2
BRANCH   1  18
ATOM     15  C   UNL     1       8.269   5.706  19.859  0.00  0.00    +0.000 C 
ATOM     16  N   UNL     1       7.414   6.220  18.799  0.00  0.00    +0.000 N 
ATOM     17  C   UNL     1       7.926   7.363  18.061  0.00  0.00    +0.000 C 
ATOM     18  C   UNL     1       6.494   5.305  18.267  0.00  0.00    +0.000 C 
ATOM     19  O   UNL     1       6.427   4.154  18.715  0.00  0.00    +0.000 OA
ENDBRANCH   1  18
BRANCH   1  20
ATOM     20  C   UNL     1       5.246   4.674  16.101  0.00  0.00    +0.000 C 
BRANCH  20  21
ATOM     21  C   UNL     1       6.450   4.580  15.128  0.00  0.00    +0.000 C 
ATOM     22  O   UNL     1       7.597   4.807  15.527  0.00  0.00    +0.000 OA
ATOM     23  N   UNL     1       6.220   4.240  13.811  0.00  0.00    +0.000 N 
ATOM     24  C   UNL     1       4.964   3.913  13.158  0.00  0.00    +0.000 C 
ATOM     25  C   UNL     1       5.375   2.989  12.024  0.00  0.00    +0.000 C 
ATOM     26  C   UNL     1       6.738   3.524  11.605  0.00  0.00    +0.000 C 
ATOM     27  C   UNL     1       7.338   4.076  12.892  0.00  0.00    +0.000 C 
ENDBRANCH  20  21
BRANCH  20  28
ATOM     28  N   UNL     1       4.951   3.307  16.607  0.00  0.00    +0.000 NA
ATOM     29  H   UNL     1       5.699   3.050  17.260  0.00  0.00    +0.000 HD
ATOM     30  H   UNL     1       5.055   2.648  15.833  0.00  0.00    +0.000 HD
ENDBRANCH  20  28
ENDBRANCH   1  20
TORSDOF 6
ENDMDL
MODEL 6
REMARK VINA RESULT:      -7.5      1.987      2.142
REMARK  Name = 
REMARK  8 active torsions:
REMARK  status: ('A' for Active; 'I' for Inactive)
REMARK    1  A    between atoms: C_1  and  N_2
REMARK    2  A    between atoms: N_2  and  C_3
REMARK    3  A    between atoms: C_4  and  C_6
REMARK    4  A    between atoms: C_6  and  C_7
REMARK    5  A    between atoms: C_6  and  C_20
REMARK    6  A    between atoms: C_10  and  C_11
REMARK    7  A    between atoms: C_20  and  N_21
REMARK    8  A    between atoms: C_20  and  C_22
REMARK                            x       y       z     vdW  Elec       q    Type
REMARK                         _______ _______ _______ _____ _____    ______ ____
ROOT
ATOM      1  C   UNL     1       2.669   4.974  19.086  0.00  0.00    +0.000 C 
ENDROOT
BRANCH   1   2
ATOM      2  C   UNL     1       2.335   6.463  19.275  0.00  0.00    +0.000 A 
ATOM      3  C   UNL     1       1.877   6.902  20.524  0.00  0.00    +0.000 A 
ATOM      4  C   UNL     1       1.405   8.209  20.702  0.00  0.00    +0.000 A 
ATOM      5  C   UNL     1       1.372   9.137  19.646  0.00  0.00    +0.000 A 
ATOM      6  C   UNL     1       1.883   8.709  18.410  0.00  0.00    +0.000 A 
ATOM      7  C   UNL     1       2.346   7.392  18.225  0.00  0.00    +0.000 A 
BRANCH   5   8
ATOM      8  C   UNL     1       0.745  10.472  19.827  0.00  0.00    +0.000 A 
ATOM      9  C   UNL     1      -0.256  10.688  20.797  0.00  0.00    +0.000 A 
ATOM     10  C   UNL     1      -0.928  11.911  20.894  0.00  0.00    +0.000 A 
ATOM     11  C   UNL     1      -0.590  12.947  20.038  0.00  0.00    +0.000 A 
ATOM     12  F   UNL     1      -1.244  14.112  20.119  0.00  0.00    +0.000 F 
ATOM     13  C   UNL     1       0.413  12.786  19.093  0.00  0.00    +0.000 A 
ATOM     14  C   UNL     1       1.073  11.556  18.989  0.00  0.00    +0.000 A 
ENDBRANCH   5   8
ENDBRANCH   1   2
BRANCH   1  18
ATOM     15  C   UNL     1       1.703   2.571  21.937  0.00  0.00    +0.000 C 
ATOM     16  N   UNL     1       2.539   3.296  20.992  0.00  0.00    +0.000 N 
ATOM     17  C   UNL     1       3.837   2.709  20.704  0.00  0.00    +0.000 C 
ATOM     18  C   UNL     1       1.856   4.139  20.103  0.00  0.00    +0.000 C 
ATOM     19  O   UNL     1       0.626   4.250  20.167  0.00  0.00    +0.000 OA
ENDBRANCH   1  18
BRANCH   1  20
ATOM     20  C   UNL     1       2.541   4.437  17.636  0.00  0.00    +0.000 C 
BRANCH  20  21
ATOM     21  C   UNL     1       3.844   3.694  17.243  0.00  0.00    +0.000 C 
ATOM     22  O   UNL     1       3.963   2.483  17.458  0.00  0.00    +0.000 OA
ATOM     23  N   UNL     1       4.867   4.405  16.652  0.00  0.00    +0.000 N 
ATOM     24  C   UNL     1       4.913   5.814  16.296  0.00  0.00    +0.000 C 
ATOM     25  C   UNL     1       5.880   5.859  15.123  0.00  0.00    +0.000 C 
ATOM     26  C   UNL     1       6.884   4.761  15.448  0.00  0.00    +0.000 C 
ATOM     27  C   UNL     1       6.074   3.720  16.210  0.00  0.00    +0.000 C 
ENDBRANCH  20  21
BRANCH  20  28
ATOM     28  N   UNL     1       1.390   3.540  17.344  0.00  0.00    +0.000 NA
ATOM     29  H   UNL     1       1.323   2.863  18.113  0.00  0.00    +0.000 HD
ATOM     30  H   UNL     1       1.624   2.971  16.528  0.00  0.00    +0.000 HD
ENDBRANCH  20  28
ENDBRANCH   1  20
TORSDOF 6
ENDMDL
MODEL 7
REMARK VINA RESULT:      -7.5      1.941      2.453
REMARK  Name = 
REMARK  8 active torsions:
REMARK  status: ('A' for Active; 'I' for Inactive)
REMARK    1  A    between atoms: C_1  and  N_2
REMARK    2  A    between atoms: N_2  and  C_3
REMARK    3  A    between atoms: C_4  and  C_6
REMARK    4  A    between atoms: C_6  and  C_7
REMARK    5  A    between atoms: C_6  and  C_20
REMARK    6  A    between atoms: C_10  and  C_11
REMARK    7  A    between atoms: C_20  and  N_21
REMARK    8  A    between atoms: C_20  and  C_22
REMARK                            x       y       z     vdW  Elec       q    Type
REMARK                         _______ _______ _______ _____ _____    ______ ____
ROOT
ATOM      1  C   UNL     1       2.982   4.963  19.219  0.00  0.00    +0.000 C 
ENDROOT
BRANCH   1   2
ATOM      2  C   UNL     1       2.398   6.383  19.120  0.00  0.00    +0.000 A 
ATOM      3  C   UNL     1       2.431   7.044  17.885  0.00  0.00    +0.000 A 
ATOM      4  C   UNL     1       2.064   8.392  17.778  0.00  0.00    +0.000 A 
ATOM      5  C   UNL     1       1.645   9.138  18.893  0.00  0.00    +0.000 A 
ATOM      6  C   UNL     1       1.561   8.456  20.118  0.00  0.00    +0.000 A 
ATOM      7  C   UNL     1       1.941   7.105  20.231  0.00  0.00    +0.000 A 
BRANCH   5   8
ATOM      8  C   UNL     1       1.388  10.597  18.778  0.00  0.00    +0.000 A 
ATOM      9  C   UNL     1       2.314  11.458  18.153  0.00  0.00    +0.000 A 
ATOM     10  C   UNL     1       2.131  12.846  18.143  0.00  0.00    +0.000 A 
ATOM     11  C   UNL     1       1.004  13.392  18.737  0.00  0.00    +0.000 A 
ATOM     12  F   UNL     1       0.837  14.720  18.743  0.00  0.00    +0.000 F 
ATOM     13  C   UNL     1       0.053  12.576  19.332  0.00  0.00    +0.000 A 
ATOM     14  C   UNL     1       0.247  11.190  19.353  0.00  0.00    +0.000 A 
ENDBRANCH   5   8
ENDBRANCH   1   2
BRANCH   1  18
ATOM     15  C   UNL     1       1.481   2.411  21.683  0.00  0.00    +0.000 C 
ATOM     16  N   UNL     1       2.483   3.203  20.984  0.00  0.00    +0.000 N 
ATOM     17  C   UNL     1       3.835   2.670  20.986  0.00  0.00    +0.000 C 
ATOM     18  C   UNL     1       1.990   4.060  19.990  0.00  0.00    +0.000 C 
ATOM     19  O   UNL     1       0.776   4.129  19.769  0.00  0.00    +0.000 OA
ENDBRANCH   1  18
BRANCH   1  20
ATOM     20  C   UNL     1       3.445   4.333  17.879  0.00  0.00    +0.000 C 
BRANCH  20  21
ATOM     21  C   UNL     1       4.994   4.343  17.811  0.00  0.00    +0.000 C 
ATOM     22  O   UNL     1       5.666   4.086  18.815  0.00  0.00    +0.000 OA
ATOM     23  N   UNL     1       5.609   4.645  16.614  0.00  0.00    +0.000 N 
ATOM     24  C   UNL     1       5.005   4.949  15.328  0.00  0.00    +0.000 C 
ATOM     25  C   UNL     1       6.052   4.501  14.321  0.00  0.00    +0.000 C 
ATOM     26  C   UNL     1       7.371   4.793  15.026  0.00  0.00    +0.000 C 
ATOM     27  C   UNL     1       7.061   4.595  16.504  0.00  0.00    +0.000 C 
ENDBRANCH  20  21
BRANCH  20  28
ATOM     28  N   UNL     1       2.977   2.953  17.581  0.00  0.00    +0.000 NA
ATOM     29  H   UNL     1       3.306   2.711  16.639  0.00  0.00    +0.000 HD
ATOM     30  H   UNL     1       1.959   2.969  17.496  0.00  0.00    +0.000 HD
ENDBRANCH  20  28
ENDBRANCH   1  20
TORSDOF 6
ENDMDL
MODEL 8
REMARK VINA RESULT:      -7.5      5.040      9.268
REMARK  Name = 
REMARK  8 active torsions:
REMARK  status: ('A' for Active; 'I' for Inactive)
REMARK    1  A    between atoms: C_1  and  N_2
REMARK    2  A    between atoms: N_2  and  C_3
REMARK    3  A    between atoms: C_4  and  C_6
REMARK    4  A    between atoms: C_6  and  C_7
REMARK    5  A    between atoms: C_6  and  C_20
REMARK    6  A    between atoms: C_10  and  C_11
REMARK    7  A    between atoms: C_20  and  N_21
REMARK    8  A    between atoms: C_20  and  C_22
REMARK                            x       y       z     vdW  Elec       q    Type
REMARK                         _______ _______ _______ _____ _____    ______ ____
ROOT
ATOM      1  C   UNL     1       0.318  11.634  19.430  0.00  0.00    +0.000 C 
ENDROOT
BRANCH   1   2
ATOM      2  C   UNL     1       0.807  10.179  19.336  0.00  0.00    +0.000 A 
ATOM      3  C   UNL     1       0.869   9.408  20.504  0.00  0.00    +0.000 A 
ATOM      4  C   UNL     1       1.458   8.137  20.500  0.00  0.00    +0.000 A 
ATOM      5  C   UNL     1       2.007   7.577  19.334  0.00  0.00    +0.000 A 
ATOM      6  C   UNL     1       1.894   8.330  18.154  0.00  0.00    +0.000 A 
ATOM      7  C   UNL     1       1.313   9.612  18.157  0.00  0.00    +0.000 A 
BRANCH   5   8
ATOM      8  C   UNL     1       2.743   6.287  19.384  0.00  0.00    +0.000 A 
ATOM      9  C   UNL     1       3.822   6.023  18.515  0.00  0.00    +0.000 A 
ATOM     10  C   UNL     1       4.444   4.769  18.481  0.00  0.00    +0.000 A 
ATOM     11  C   UNL     1       4.012   3.768  19.335  0.00  0.00    +0.000 A 
ATOM     12  F   UNL     1       4.595   2.564  19.291  0.00  0.00    +0.000 F 
ATOM     13  C   UNL     1       2.977   3.998  20.229  0.00  0.00    +0.000 A 
ATOM     14  C   UNL     1       2.347   5.248  20.250  0.00  0.00    +0.000 A 
ENDBRANCH   5   8
ENDBRANCH   1   2
BRANCH   1  18
ATOM     15  C   UNL     1       3.036  14.215  20.318  0.00  0.00    +0.000 C 
ATOM     16  N   UNL     1       1.857  13.373  20.464  0.00  0.00    +0.000 N 
ATOM     17  C   UNL     1       0.880  13.806  21.449  0.00  0.00    +0.000 C 
ATOM     18  C   UNL     1       1.536  12.584  19.351  0.00  0.00    +0.000 C 
ATOM     19  O   UNL     1       2.248  12.610  18.340  0.00  0.00    +0.000 OA
ENDBRANCH   1  18
BRANCH   1  20
ATOM     20  C   UNL     1      -0.810  12.027  18.440  0.00  0.00    +0.000 C 
BRANCH  20  21
ATOM     21  C   UNL     1      -2.154  12.136  19.205  0.00  0.00    +0.000 C 
ATOM     22  O   UNL     1      -2.180  12.553  20.368  0.00  0.00    +0.000 OA
ATOM     23  N   UNL     1      -3.319  11.760  18.570  0.00  0.00    +0.000 N 
ATOM     24  C   UNL     1      -3.502  11.273  17.212  0.00  0.00    +0.000 C 
ATOM     25  C   UNL     1      -4.921  11.695  16.865  0.00  0.00    +0.000 C 
ATOM     26  C   UNL     1      -5.659  11.589  18.193  0.00  0.00    +0.000 C 
ATOM     27  C   UNL     1      -4.602  11.917  19.240  0.00  0.00    +0.000 C 
ENDBRANCH  20  21
BRANCH  20  28
ATOM     28  N   UNL     1      -0.620  13.278  17.657  0.00  0.00    +0.000 NA
ATOM     29  H   UNL     1      -0.762  13.048  16.666  0.00  0.00    +0.000 HD
ATOM     30  H   UNL     1       0.364  13.548  17.714  0.00  0.00    +0.000 HD
ENDBRANCH  20  28
ENDBRANCH   1  20
TORSDOF 6
ENDMDL
MODEL 9
REMARK VINA RESULT:      -7.4      5.117      9.346
REMARK  Name = 
REMARK  8 active torsions:
REMARK  status: ('A' for Active; 'I' for Inactive)
REMARK    1  A    between atoms: C_1  and  N_2
REMARK    2  A    between atoms: N_2  and  C_3
REMARK    3  A    between atoms: C_4  and  C_6
REMARK    4  A    between atoms: C_6  and  C_7
REMARK    5  A    between atoms: C_6  and  C_20
REMARK    6  A    between atoms: C_10  and  C_11
REMARK    7  A    between atoms: C_20  and  N_21
REMARK    8  A    between atoms: C_20  and  C_22
REMARK                            x       y       z     vdW  Elec       q    Type
REMARK                         _______ _______ _______ _____ _____    ______ ____
ROOT
ATOM      1  C   UNL     1       0.119  11.513  19.570  0.00  0.00    +0.000 C 
ENDROOT
BRANCH   1   2
ATOM      2  C   UNL     1       0.944  10.244  19.295  0.00  0.00    +0.000 A 
ATOM      3  C   UNL     1       1.491  10.054  18.020  0.00  0.00    +0.000 A 
ATOM      4  C   UNL     1       2.108   8.846  17.671  0.00  0.00    +0.000 A 
ATOM      5  C   UNL     1       2.212   7.776  18.578  0.00  0.00    +0.000 A 
ATOM      6  C   UNL     1       1.711   7.991  19.872  0.00  0.00    +0.000 A 
ATOM      7  C   UNL     1       1.080   9.200  20.222  0.00  0.00    +0.000 A 
BRANCH   5   8
ATOM      8  C   UNL     1       2.751   6.462  18.144  0.00  0.00    +0.000 A 
ATOM      9  C   UNL     1       2.003   5.275  18.293  0.00  0.00    +0.000 A 
ATOM     10  C   UNL     1       2.550   4.023  17.992  0.00  0.00    +0.000 A 
ATOM     11  C   UNL     1       3.847   3.941  17.511  0.00  0.00    +0.000 A 
ATOM     12  F   UNL     1       4.377   2.742  17.238  0.00  0.00    +0.000 F 
ATOM     13  C   UNL     1       4.604   5.087  17.317  0.00  0.00    +0.000 A 
ATOM     14  C   UNL     1       4.059   6.337  17.634  0.00  0.00    +0.000 A 
ENDBRANCH   5   8
ENDBRANCH   1   2
BRANCH   1  18
ATOM     15  C   UNL     1       2.024  14.364  21.324  0.00  0.00    +0.000 C 
ATOM     16  N   UNL     1       1.068  13.284  21.127  0.00  0.00    +0.000 N 
ATOM     17  C   UNL     1      -0.096  13.294  21.997  0.00  0.00    +0.000 C 
ATOM     18  C   UNL     1       1.080  12.690  19.857  0.00  0.00    +0.000 C 
ATOM     19  O   UNL     1       1.883  13.070  18.997  0.00  0.00    +0.000 OA
ENDBRANCH   1  18
BRANCH   1  20
ATOM     20  C   UNL     1      -0.950  11.862  18.501  0.00  0.00    +0.000 C 
BRANCH  20  21
ATOM     21  C   UNL     1      -2.348  11.929  19.169  0.00  0.00    +0.000 C 
ATOM     22  O   UNL     1      -2.459  12.258  20.355  0.00  0.00    +0.000 OA
ATOM     23  N   UNL     1      -3.463  11.614  18.422  0.00  0.00    +0.000 N 
ATOM     24  C   UNL     1      -3.546  11.232  17.022  0.00  0.00    +0.000 C 
ATOM     25  C   UNL     1      -4.932  11.695  16.602  0.00  0.00    +0.000 C 
ATOM     26  C   UNL     1      -5.769  11.498  17.860  0.00  0.00    +0.000 C 
ATOM     27  C   UNL     1      -4.793  11.736  19.005  0.00  0.00    +0.000 C 
ENDBRANCH  20  21
BRANCH  20  28
ATOM     28  N   UNL     1      -0.748  13.114  17.723  0.00  0.00    +0.000 NA
ATOM     29  H   UNL     1      -1.629  13.323  17.239  0.00  0.00    +0.000 HD
ATOM     30  H   UNL     1      -0.086  12.922  16.969  0.00  0.00    +0.000 HD
ENDBRANCH  20  28
ENDBRANCH   1  20
TORSDOF 6
ENDMDL
