MODEL 1
REMARK VINA RESULT:      -6.3      0.000      0.000
REMARK  Name = 
REMARK  17 active torsions:
REMARK  status: ('A' for Active; 'I' for Inactive)
REMARK    1  A    between atoms: C_2  and  C_3
REMARK    2  A    between atoms: C_2  and  C_5
REMARK    3  A    between atoms: C_3  and  O_4
REMARK    4  A    between atoms: C_7  and  C_8
REMARK    5  A    between atoms: C_11  and  O_12
REMARK    6  A    between atoms: C_13  and  O_14
REMARK    7  A    between atoms: O_14  and  C_15
REMARK    8  A    between atoms: C_15  and  C_17
REMARK    9  A    between atoms: C_17  and  C_18
REMARK   10  A    between atoms: C_19  and  C_20
REMARK   11  A    between atoms: C_20  and  C_21
REMARK   12  A    between atoms: C_20  and  C_22
REMARK   13  A    between atoms: C_22  and  C_23
REMARK   14  A    between atoms: C_23  and  C_24
REMARK   15  A    between atoms: C_24  and  C_25
REMARK   16  A    between atoms: C_28  and  C_29
REMARK   17  A    between atoms: C_29  and  O_31
REMARK                            x       y       z     vdW  Elec       q    Type
REMARK                         _______ _______ _______ _____ _____    ______ ____
ROOT
ATOM      1  C   UNL     1      -3.176  11.249  18.736  0.00  0.00    +0.000 C 
ATOM      2  C   UNL     1      -2.008  12.128  19.206  0.00  0.00    +0.000 C 
ATOM      3  C   UNL     1      -0.627  11.411  19.359  0.00  0.00    +0.000 C 
ATOM      4  C   UNL     1      -0.641  10.551  20.640  0.00  0.00    +0.000 C 
ATOM      5  C   UNL     1      -0.337  10.455  18.197  0.00  0.00    +0.000 C 
ATOM      6  C   UNL     1      -1.316  10.113  17.333  0.00  0.00    +0.000 C 
ATOM      7  C   UNL     1      -2.766  10.521  17.427  0.00  0.00    +0.000 C 
ATOM      8  C   UNL     1       1.117   9.986  18.016  0.00  0.00    +0.000 C 
ATOM      9  C   UNL     1       2.054  11.202  17.968  0.00  0.00    +0.000 C 
ATOM     10  C   UNL     1       1.890  12.075  19.216  0.00  0.00    +0.000 C 
ATOM     11  C   UNL     1       0.444  12.553  19.356  0.00  0.00    +0.000 C 
ENDROOT
BRANCH   1  13
ATOM     12  C   UNL     1      -5.211  12.124  17.434  0.00  0.00    +0.000 C 
ATOM     13  C   UNL     1      -4.510  12.034  18.584  0.00  0.00    +0.000 C 
BRANCH  13  14
ATOM     14  C   UNL     1      -4.999  12.739  19.838  0.00  0.00    +0.000 C 
BRANCH  14  15
ATOM     15  O   UNL     1      -4.970  14.155  19.682  0.00  0.00    +0.000 OA
ATOM     16  H   UNL     1      -5.680  14.506  20.245  0.00  0.00    +0.000 HD
ENDBRANCH  14  15
ENDBRANCH  13  14
ENDBRANCH   1  13
BRANCH   7  17
ATOM     17  O   UNL     1      -3.535   9.325  17.300  0.00  0.00    +0.000 OA
ATOM     18  H   UNL     1      -3.038   8.616  17.745  0.00  0.00    +0.000 HD
ENDBRANCH   7  17
BRANCH  11  19
ATOM     19  C   UNL     1       0.327  13.460  20.571  0.00  0.00    +0.000 C 
ATOM     20  O   UNL     1       0.724  13.171  21.689  0.00  0.00    +0.000 OA
BRANCH  19  21
ATOM     21  O   UNL     1      -0.271  14.645  20.311  0.00  0.00    +0.000 OA
ATOM     22  H   UNL     1      -1.245  14.639  20.340  0.00  0.00    +0.000 HD
ENDBRANCH  19  21
ENDBRANCH  11  19
BRANCH   8  23
ATOM     23  O   UNL     1       1.629   9.206  19.124  0.00  0.00    +0.000 OA
BRANCH  23  24
ATOM     24  C   UNL     1       2.264   8.051  18.820  0.00  0.00    +0.000 C 
ATOM     25  O   UNL     1       2.963   7.880  17.832  0.00  0.00    +0.000 OA
BRANCH  24  26
ATOM     26  C   UNL     1       2.090   6.994  19.876  0.00  0.00    +0.000 C 
ATOM     27  C   UNL     1       1.347   7.475  21.093  0.00  0.00    +0.000 C 
ATOM     28  C   UNL     1       2.458   5.703  19.699  0.00  0.00    +0.000 C 
BRANCH  28  29
ATOM     29  C   UNL     1       2.182   4.542  20.655  0.00  0.00    +0.000 C 
ATOM     30  C   UNL     1       0.806   3.938  20.362  0.00  0.00    +0.000 C 
BRANCH  29  31
ATOM     31  C   UNL     1       3.263   3.439  20.632  0.00  0.00    +0.000 C 
BRANCH  31  32
ATOM     32  C   UNL     1       3.998   3.392  19.290  0.00  0.00    +0.000 C 
BRANCH  32  33
ATOM     33  C   UNL     1       3.506   2.256  18.395  0.00  0.00    +0.000 C 
ATOM     34  C   UNL     1       2.533   2.787  17.353  0.00  0.00    +0.000 C 
ENDBRANCH  32  33
ENDBRANCH  31  32
ENDBRANCH  29  31
ENDBRANCH  28  29
ENDBRANCH  24  26
ENDBRANCH  23  24
ENDBRANCH   8  23
TORSDOF 13
ENDMDL
MODEL 2
REMARK VINA RESULT:      -6.0      2.786      7.766
REMARK  Name = 
REMARK  17 active torsions:
REMARK  status: ('A' for Active; 'I' for Inactive)
REMARK    1  A    between atoms: C_2  and  C_3
REMARK    2  A    between atoms: C_2  and  C_5
REMARK    3  A    between atoms: C_3  and  O_4
REMARK    4  A    between atoms: C_7  and  C_8
REMARK    5  A    between atoms: C_11  and  O_12
REMARK    6  A    between atoms: C_13  and  O_14
REMARK    7  A    between atoms: O_14  and  C_15
REMARK    8  A    between atoms: C_15  and  C_17
REMARK    9  A    between atoms: C_17  and  C_18
REMARK   10  A    between atoms: C_19  and  C_20
REMARK   11  A    between atoms: C_20  and  C_21
REMARK   12  A    between atoms: C_20  and  C_22
REMARK   13  A    between atoms: C_22  and  C_23
REMARK   14  A    between atoms: C_23  and  C_24
REMARK   15  A    between atoms: C_24  and  C_25
REMARK   16  A    between atoms: C_28  and  C_29
REMARK   17  A    between atoms: C_29  and  O_31
REMARK                            x       y       z     vdW  Elec       q    Type
REMARK                         _______ _______ _______ _____ _____    ______ ____
ROOT
ATOM      1  C   UNL     1       0.209   9.659  20.139  0.00  0.00    +0.000 C 
ATOM      2  C   UNL     1       0.441  11.152  19.868  0.00  0.00    +0.000 C 
ATOM      3  C   UNL     1      -0.666  12.126  20.390  0.00  0.00    +0.000 C 
ATOM      4  C   UNL     1      -1.899  12.035  19.467  0.00  0.00    +0.000 C 
ATOM      5  C   UNL     1      -1.148  11.755  21.796  0.00  0.00    +0.000 C 
ATOM      6  C   UNL     1      -0.820  10.564  22.340  0.00  0.00    +0.000 C 
ATOM      7  C   UNL     1      -0.056   9.457  21.656  0.00  0.00    +0.000 C 
ATOM      8  C   UNL     1      -1.934  12.823  22.577  0.00  0.00    +0.000 C 
ATOM      9  C   UNL     1      -1.140  14.138  22.602  0.00  0.00    +0.000 C 
ATOM     10  C   UNL     1      -0.801  14.606  21.183  0.00  0.00    +0.000 C 
ATOM     11  C   UNL     1       0.006  13.539  20.440  0.00  0.00    +0.000 C 
ENDROOT
BRANCH   1  13
ATOM     12  C   UNL     1       1.913   7.744  20.317  0.00  0.00    +0.000 C 
ATOM     13  C   UNL     1       1.360   8.755  19.614  0.00  0.00    +0.000 C 
BRANCH  13  14
ATOM     14  C   UNL     1       1.867   9.088  18.221  0.00  0.00    +0.000 C 
BRANCH  14  15
ATOM     15  O   UNL     1       2.551   7.982  17.639  0.00  0.00    +0.000 OA
ATOM     16  H   UNL     1       2.830   7.414  18.378  0.00  0.00    +0.000 HD
ENDBRANCH  14  15
ENDBRANCH  13  14
ENDBRANCH   1  13
BRANCH   7  17
ATOM     17  O   UNL     1      -0.817   8.263  21.840  0.00  0.00    +0.000 OA
ATOM     18  H   UNL     1      -0.672   7.708  21.053  0.00  0.00    +0.000 HD
ENDBRANCH   7  17
BRANCH  11  19
ATOM     19  C   UNL     1       0.372  14.055  19.057  0.00  0.00    +0.000 C 
ATOM     20  O   UNL     1       1.407  13.784  18.470  0.00  0.00    +0.000 OA
BRANCH  19  21
ATOM     21  O   UNL     1      -0.565  14.864  18.512  0.00  0.00    +0.000 OA
ATOM     22  H   UNL     1      -1.482  14.698  18.798  0.00  0.00    +0.000 HD
ENDBRANCH  19  21
ENDBRANCH  11  19
BRANCH   8  23
ATOM     23  O   UNL     1      -3.192  13.197  21.964  0.00  0.00    +0.000 OA
BRANCH  23  24
ATOM     24  C   UNL     1      -4.316  12.666  22.496  0.00  0.00    +0.000 C 
ATOM     25  O   UNL     1      -4.475  12.419  23.683  0.00  0.00    +0.000 OA
BRANCH  24  26
ATOM     26  C   UNL     1      -5.409  12.475  21.481  0.00  0.00    +0.000 C 
ATOM     27  C   UNL     1      -6.793  12.502  22.072  0.00  0.00    +0.000 C 
ATOM     28  C   UNL     1      -5.178  12.407  20.148  0.00  0.00    +0.000 C 
BRANCH  28  29
ATOM     29  C   UNL     1      -6.236  12.366  19.045  0.00  0.00    +0.000 C 
ATOM     30  C   UNL     1      -6.397  13.756  18.422  0.00  0.00    +0.000 C 
BRANCH  29  31
ATOM     31  C   UNL     1      -5.956  11.318  17.945  0.00  0.00    +0.000 C 
BRANCH  31  32
ATOM     32  C   UNL     1      -4.812  11.752  17.025  0.00  0.00    +0.000 C 
BRANCH  32  33
ATOM     33  C   UNL     1      -3.830  10.617  16.741  0.00  0.00    +0.000 C 
ATOM     34  C   UNL     1      -3.190  10.801  15.373  0.00  0.00    +0.000 C 
ENDBRANCH  32  33
ENDBRANCH  31  32
ENDBRANCH  29  31
ENDBRANCH  28  29
ENDBRANCH  24  26
ENDBRANCH  23  24
ENDBRANCH   8  23
TORSDOF 13
ENDMDL
MODEL 3
REMARK VINA RESULT:      -6.0      2.921      8.120
REMARK  Name = 
REMARK  17 active torsions:
REMARK  status: ('A' for Active; 'I' for Inactive)
REMARK    1  A    between atoms: C_2  and  C_3
REMARK    2  A    between atoms: C_2  and  C_5
REMARK    3  A    between atoms: C_3  and  O_4
REMARK    4  A    between atoms: C_7  and  C_8
REMARK    5  A    between atoms: C_11  and  O_12
REMARK    6  A    between atoms: C_13  and  O_14
REMARK    7  A    between atoms: O_14  and  C_15
REMARK    8  A    between atoms: C_15  and  C_17
REMARK    9  A    between atoms: C_17  and  C_18
REMARK   10  A    between atoms: C_19  and  C_20
REMARK   11  A    between atoms: C_20  and  C_21
REMARK   12  A    between atoms: C_20  and  C_22
REMARK   13  A    between atoms: C_22  and  C_23
REMARK   14  A    between atoms: C_23  and  C_24
REMARK   15  A    between atoms: C_24  and  C_25
REMARK   16  A    between atoms: C_28  and  C_29
REMARK   17  A    between atoms: C_29  and  O_31
REMARK                            x       y       z     vdW  Elec       q    Type
REMARK                         _______ _______ _______ _____ _____    ______ ____
ROOT
ATOM      1  C   UNL     1      -0.055   9.963  20.704  0.00  0.00    +0.000 C 
ATOM      2  C   UNL     1       0.176  11.471  20.531  0.00  0.00    +0.000 C 
ATOM      3  C   UNL     1      -0.881  12.409  21.201  0.00  0.00    +0.000 C 
ATOM      4  C   UNL     1      -2.175  12.397  20.360  0.00  0.00    +0.000 C 
ATOM      5  C   UNL     1      -1.272  11.935  22.604  0.00  0.00    +0.000 C 
ATOM      6  C   UNL     1      -0.922  10.703  23.032  0.00  0.00    +0.000 C 
ATOM      7  C   UNL     1      -0.218   9.646  22.215  0.00  0.00    +0.000 C 
ATOM      8  C   UNL     1      -1.990  12.944  23.516  0.00  0.00    +0.000 C 
ATOM      9  C   UNL     1      -1.181  14.248  23.587  0.00  0.00    +0.000 C 
ATOM     10  C   UNL     1      -0.934  14.822  22.188  0.00  0.00    +0.000 C 
ATOM     11  C   UNL     1      -0.192  13.810  21.312  0.00  0.00    +0.000 C 
ENDROOT
BRANCH   1  13
ATOM     12  C   UNL     1       1.605   8.005  20.601  0.00  0.00    +0.000 C 
ATOM     13  C   UNL     1       1.047   9.095  20.033  0.00  0.00    +0.000 C 
BRANCH  13  14
ATOM     14  C   UNL     1       1.498   9.559  18.658  0.00  0.00    +0.000 C 
BRANCH  14  15
ATOM     15  O   UNL     1       0.406   9.616  17.745  0.00  0.00    +0.000 OA
ATOM     16  H   UNL     1      -0.311   9.094  18.144  0.00  0.00    +0.000 HD
ENDBRANCH  14  15
ENDBRANCH  13  14
ENDBRANCH   1  13
BRANCH   7  17
ATOM     17  O   UNL     1      -0.979   8.447  22.359  0.00  0.00    +0.000 OA
ATOM     18  H   UNL     1      -1.823   8.585  21.893  0.00  0.00    +0.000 HD
ENDBRANCH   7  17
BRANCH  11  19
ATOM     19  C   UNL     1       0.085  14.428  19.951  0.00  0.00    +0.000 C 
ATOM     20  O   UNL     1      -0.722  15.084  19.313  0.00  0.00    +0.000 OA
BRANCH  19  21
ATOM     21  O   UNL     1       1.332  14.185  19.486  0.00  0.00    +0.000 OA
ATOM     22  H   UNL     1       1.489  14.431  18.556  0.00  0.00    +0.000 HD
ENDBRANCH  19  21
ENDBRANCH  11  19
BRANCH   8  23
ATOM     23  O   UNL     1      -3.282  13.373  23.021  0.00  0.00    +0.000 OA
BRANCH  23  24
ATOM     24  C   UNL     1      -4.365  12.694  23.465  0.00  0.00    +0.000 C 
ATOM     25  O   UNL     1      -4.376  11.965  24.446  0.00  0.00    +0.000 OA
BRANCH  24  26
ATOM     26  C   UNL     1      -5.606  12.989  22.668  0.00  0.00    +0.000 C 
ATOM     27  C   UNL     1      -6.658  13.733  23.444  0.00  0.00    +0.000 C 
ATOM     28  C   UNL     1      -5.717  12.719  21.345  0.00  0.00    +0.000 C 
BRANCH  28  29
ATOM     29  C   UNL     1      -6.877  13.120  20.432  0.00  0.00    +0.000 C 
ATOM     30  C   UNL     1      -6.542  14.425  19.704  0.00  0.00    +0.000 C 
BRANCH  29  31
ATOM     31  C   UNL     1      -7.281  12.031  19.415  0.00  0.00    +0.000 C 
BRANCH  31  32
ATOM     32  C   UNL     1      -6.131  11.059  19.137  0.00  0.00    +0.000 C 
BRANCH  32  33
ATOM     33  C   UNL     1      -5.413  11.366  17.823  0.00  0.00    +0.000 C 
ATOM     34  C   UNL     1      -4.110  10.585  17.739  0.00  0.00    +0.000 C 
ENDBRANCH  32  33
ENDBRANCH  31  32
ENDBRANCH  29  31
ENDBRANCH  28  29
ENDBRANCH  24  26
ENDBRANCH  23  24
ENDBRANCH   8  23
TORSDOF 13
ENDMDL
MODEL 4
REMARK VINA RESULT:      -6.0      3.023      8.201
REMARK  Name = 
REMARK  17 active torsions:
REMARK  status: ('A' for Active; 'I' for Inactive)
REMARK    1  A    between atoms: C_2  and  C_3
REMARK    2  A    between atoms: C_2  and  C_5
REMARK    3  A    between atoms: C_3  and  O_4
REMARK    4  A    between atoms: C_7  and  C_8
REMARK    5  A    between atoms: C_11  and  O_12
REMARK    6  A    between atoms: C_13  and  O_14
REMARK    7  A    between atoms: O_14  and  C_15
REMARK    8  A    between atoms: C_15  and  C_17
REMARK    9  A    between atoms: C_17  and  C_18
REMARK   10  A    between atoms: C_19  and  C_20
REMARK   11  A    between atoms: C_20  and  C_21
REMARK   12  A    between atoms: C_20  and  C_22
REMARK   13  A    between atoms: C_22  and  C_23
REMARK   14  A    between atoms: C_23  and  C_24
REMARK   15  A    between atoms: C_24  and  C_25
REMARK   16  A    between atoms: C_28  and  C_29
REMARK   17  A    between atoms: C_29  and  O_31
REMARK                            x       y       z     vdW  Elec       q    Type
REMARK                         _______ _______ _______ _____ _____    ______ ____
ROOT
ATOM      1  C   UNL     1      -0.070   9.898  20.449  0.00  0.00    +0.000 C 
ATOM      2  C   UNL     1       0.089  11.411  20.239  0.00  0.00    +0.000 C 
ATOM      3  C   UNL     1      -0.974  12.318  20.942  0.00  0.00    +0.000 C 
ATOM      4  C   UNL     1      -2.304  12.237  20.164  0.00  0.00    +0.000 C 
ATOM      5  C   UNL     1      -1.278  11.856  22.371  0.00  0.00    +0.000 C 
ATOM      6  C   UNL     1      -0.857  10.648  22.803  0.00  0.00    +0.000 C 
ATOM      7  C   UNL     1      -0.149   9.605  21.972  0.00  0.00    +0.000 C 
ATOM      8  C   UNL     1      -1.994  12.853  23.298  0.00  0.00    +0.000 C 
ATOM      9  C   UNL     1      -1.238  14.189  23.307  0.00  0.00    +0.000 C 
ATOM     10  C   UNL     1      -1.080  14.745  21.888  0.00  0.00    +0.000 C 
ATOM     11  C   UNL     1      -0.339  13.748  20.995  0.00  0.00    +0.000 C 
ENDROOT
BRANCH   1  13
ATOM     12  C   UNL     1       1.405   9.230  18.454  0.00  0.00    +0.000 C 
ATOM     13  C   UNL     1       1.034   9.063  19.742  0.00  0.00    +0.000 C 
BRANCH  13  14
ATOM     14  C   UNL     1       1.692   7.994  20.597  0.00  0.00    +0.000 C 
BRANCH  14  15
ATOM     15  O   UNL     1       2.569   7.178  19.825  0.00  0.00    +0.000 OA
ATOM     16  H   UNL     1       2.175   7.116  18.939  0.00  0.00    +0.000 HD
ENDBRANCH  14  15
ENDBRANCH  13  14
ENDBRANCH   1  13
BRANCH   7  17
ATOM     17  O   UNL     1      -0.851   8.378  22.173  0.00  0.00    +0.000 OA
ATOM     18  H   UNL     1      -1.352   8.198  21.358  0.00  0.00    +0.000 HD
ENDBRANCH   7  17
BRANCH  11  19
ATOM     19  C   UNL     1      -0.152  14.350  19.612  0.00  0.00    +0.000 C 
ATOM     20  O   UNL     1       0.793  14.111  18.876  0.00  0.00    +0.000 OA
BRANCH  19  21
ATOM     21  O   UNL     1      -1.141  15.199  19.249  0.00  0.00    +0.000 OA
ATOM     22  H   UNL     1      -1.326  15.244  18.294  0.00  0.00    +0.000 HD
ENDBRANCH  19  21
ENDBRANCH  11  19
BRANCH   8  23
ATOM     23  O   UNL     1      -3.325  13.218  22.858  0.00  0.00    +0.000 OA
BRANCH  23  24
ATOM     24  C   UNL     1      -4.350  12.909  23.684  0.00  0.00    +0.000 C 
ATOM     25  O   UNL     1      -4.266  12.836  24.901  0.00  0.00    +0.000 OA
BRANCH  24  26
ATOM     26  C   UNL     1      -5.655  12.737  22.955  0.00  0.00    +0.000 C 
ATOM     27  C   UNL     1      -6.863  12.859  23.844  0.00  0.00    +0.000 C 
ATOM     28  C   UNL     1      -5.740  12.607  21.610  0.00  0.00    +0.000 C 
BRANCH  28  29
ATOM     29  C   UNL     1      -7.024  12.580  20.780  0.00  0.00    +0.000 C 
ATOM     30  C   UNL     1      -7.148  13.870  19.965  0.00  0.00    +0.000 C 
BRANCH  29  31
ATOM     31  C   UNL     1      -7.147  11.350  19.854  0.00  0.00    +0.000 C 
BRANCH  31  32
ATOM     32  C   UNL     1      -6.610  11.640  18.450  0.00  0.00    +0.000 C 
BRANCH  32  33
ATOM     33  C   UNL     1      -5.280  10.940  18.178  0.00  0.00    +0.000 C 
ATOM     34  C   UNL     1      -4.614  11.530  16.943  0.00  0.00    +0.000 C 
ENDBRANCH  32  33
ENDBRANCH  31  32
ENDBRANCH  29  31
ENDBRANCH  28  29
ENDBRANCH  24  26
ENDBRANCH  23  24
ENDBRANCH   8  23
TORSDOF 13
ENDMDL
MODEL 5
REMARK VINA RESULT:      -5.9      4.336      7.700
REMARK  Name = 
REMARK  17 active torsions:
REMARK  status: ('A' for Active; 'I' for Inactive)
REMARK    1  A    between atoms: C_2  and  C_3
REMARK    2  A    between atoms: C_2  and  C_5
REMARK    3  A    between atoms: C_3  and  O_4
REMARK    4  A    between atoms: C_7  and  C_8
REMARK    5  A    between atoms: C_11  and  O_12
REMARK    6  A    between atoms: C_13  and  O_14
REMARK    7  A    between atoms: O_14  and  C_15
REMARK    8  A    between atoms: C_15  and  C_17
REMARK    9  A    between atoms: C_17  and  C_18
REMARK   10  A    between atoms: C_19  and  C_20
REMARK   11  A    between atoms: C_20  and  C_21
REMARK   12  A    between atoms: C_20  and  C_22
REMARK   13  A    between atoms: C_22  and  C_23
REMARK   14  A    between atoms: C_23  and  C_24
REMARK   15  A    between atoms: C_24  and  C_25
REMARK   16  A    between atoms: C_28  and  C_29
REMARK   17  A    between atoms: C_29  and  O_31
REMARK                            x       y       z     vdW  Elec       q    Type
REMARK                         _______ _______ _______ _____ _____    ______ ____
ROOT
ATOM      1  C   UNL     1       1.553   8.095  18.871  0.00  0.00    +0.000 C 
ATOM      2  C   UNL     1       2.160   6.866  19.563  0.00  0.00    +0.000 C 
ATOM      3  C   UNL     1       3.071   5.957  18.675  0.00  0.00    +0.000 C 
ATOM      4  C   UNL     1       2.185   5.123  17.726  0.00  0.00    +0.000 C 
ATOM      5  C   UNL     1       4.014   6.773  17.784  0.00  0.00    +0.000 C 
ATOM      6  C   UNL     1       3.829   8.102  17.630  0.00  0.00    +0.000 C 
ATOM      7  C   UNL     1       2.692   8.912  18.202  0.00  0.00    +0.000 C 
ATOM      8  C   UNL     1       5.209   6.034  17.158  0.00  0.00    +0.000 C 
ATOM      9  C   UNL     1       5.995   5.298  18.253  0.00  0.00    +0.000 C 
ATOM     10  C   UNL     1       5.089   4.346  19.040  0.00  0.00    +0.000 C 
ATOM     11  C   UNL     1       3.926   5.110  19.677  0.00  0.00    +0.000 C 
ENDROOT
BRANCH   1  13
ATOM     12  C   UNL     1       0.708   8.879  21.167  0.00  0.00    +0.000 C 
ATOM     13  C   UNL     1       0.680   8.963  19.820  0.00  0.00    +0.000 C 
BRANCH  13  14
ATOM     14  C   UNL     1      -0.259   9.939  19.132  0.00  0.00    +0.000 C 
BRANCH  14  15
ATOM     15  O   UNL     1       0.314  11.241  19.049  0.00  0.00    +0.000 OA
ATOM     16  H   UNL     1      -0.043  11.645  18.241  0.00  0.00    +0.000 HD
ENDBRANCH  14  15
ENDBRANCH  13  14
ENDBRANCH   1  13
BRANCH   7  17
ATOM     17  O   UNL     1       2.147   9.669  17.121  0.00  0.00    +0.000 OA
ATOM     18  H   UNL     1       2.466   9.261  16.297  0.00  0.00    +0.000 HD
ENDBRANCH   7  17
BRANCH  11  19
ATOM     19  C   UNL     1       3.077   4.149  20.493  0.00  0.00    +0.000 C 
ATOM     20  O   UNL     1       2.445   4.461  21.490  0.00  0.00    +0.000 OA
BRANCH  19  21
ATOM     21  O   UNL     1       3.079   2.883  20.018  0.00  0.00    +0.000 OA
ATOM     22  H   UNL     1       3.711   2.275  20.444  0.00  0.00    +0.000 HD
ENDBRANCH  19  21
ENDBRANCH  11  19
BRANCH   8  23
ATOM     23  O   UNL     1       4.836   4.979  16.239  0.00  0.00    +0.000 OA
BRANCH  23  24
ATOM     24  C   UNL     1       5.843   4.280  15.666  0.00  0.00    +0.000 C 
ATOM     25  O   UNL     1       6.689   3.648  16.282  0.00  0.00    +0.000 OA
BRANCH  24  26
ATOM     26  C   UNL     1       5.777   4.286  14.164  0.00  0.00    +0.000 C 
ATOM     27  C   UNL     1       6.963   4.945  13.511  0.00  0.00    +0.000 C 
ATOM     28  C   UNL     1       4.807   3.653  13.463  0.00  0.00    +0.000 C 
BRANCH  28  29
ATOM     29  C   UNL     1       4.749   3.482  11.945  0.00  0.00    +0.000 C 
ATOM     30  C   UNL     1       5.550   2.247  11.525  0.00  0.00    +0.000 C 
BRANCH  29  31
ATOM     31  C   UNL     1       3.315   3.406  11.375  0.00  0.00    +0.000 C 
BRANCH  31  32
ATOM     32  C   UNL     1       3.316   3.146   9.867  0.00  0.00    +0.000 C 
BRANCH  32  33
ATOM     33  C   UNL     1       3.304   4.438   9.052  0.00  0.00    +0.000 C 
ATOM     34  C   UNL     1       1.921   5.073   9.089  0.00  0.00    +0.000 C 
ENDBRANCH  32  33
ENDBRANCH  31  32
ENDBRANCH  29  31
ENDBRANCH  28  29
ENDBRANCH  24  26
ENDBRANCH  23  24
ENDBRANCH   8  23
TORSDOF 13
ENDMDL
MODEL 6
REMARK VINA RESULT:      -5.9      1.248      1.817
REMARK  Name = 
REMARK  17 active torsions:
REMARK  status: ('A' for Active; 'I' for Inactive)
REMARK    1  A    between atoms: C_2  and  C_3
REMARK    2  A    between atoms: C_2  and  C_5
REMARK    3  A    between atoms: C_3  and  O_4
REMARK    4  A    between atoms: C_7  and  C_8
REMARK    5  A    between atoms: C_11  and  O_12
REMARK    6  A    between atoms: C_13  and  O_14
REMARK    7  A    between atoms: O_14  and  C_15
REMARK    8  A    between atoms: C_15  and  C_17
REMARK    9  A    between atoms: C_17  and  C_18
REMARK   10  A    between atoms: C_19  and  C_20
REMARK   11  A    between atoms: C_20  and  C_21
REMARK   12  A    between atoms: C_20  and  C_22
REMARK   13  A    between atoms: C_22  and  C_23
REMARK   14  A    between atoms: C_23  and  C_24
REMARK   15  A    between atoms: C_24  and  C_25
REMARK   16  A    between atoms: C_28  and  C_29
REMARK   17  A    between atoms: C_29  and  O_31
REMARK                            x       y       z     vdW  Elec       q    Type
REMARK                         _______ _______ _______ _____ _____    ______ ____
ROOT
ATOM      1  C   UNL     1      -3.557  11.613  19.069  0.00  0.00    +0.000 C 
ATOM      2  C   UNL     1      -2.514  12.231  20.010  0.00  0.00    +0.000 C 
ATOM      3  C   UNL     1      -1.086  11.595  19.966  0.00  0.00    +0.000 C 
ATOM      4  C   UNL     1      -1.111  10.239  20.702  0.00  0.00    +0.000 C 
ATOM      5  C   UNL     1      -0.624  11.303  18.534  0.00  0.00    +0.000 C 
ATOM      6  C   UNL     1      -1.502  11.352  17.510  0.00  0.00    +0.000 C 
ATOM      7  C   UNL     1      -2.987  11.597  17.624  0.00  0.00    +0.000 C 
ATOM      8  C   UNL     1       0.876  11.045  18.315  0.00  0.00    +0.000 C 
ATOM      9  C   UNL     1       1.695  12.191  18.929  0.00  0.00    +0.000 C 
ATOM     10  C   UNL     1       1.362  12.376  20.413  0.00  0.00    +0.000 C 
ATOM     11  C   UNL     1      -0.130  12.661  20.600  0.00  0.00    +0.000 C 
ENDROOT
BRANCH   1  13
ATOM     12  C   UNL     1      -5.522  12.719  20.299  0.00  0.00    +0.000 C 
ATOM     13  C   UNL     1      -4.944  12.310  19.150  0.00  0.00    +0.000 C 
BRANCH  13  14
ATOM     14  C   UNL     1      -5.657  12.503  17.822  0.00  0.00    +0.000 C 
BRANCH  14  15
ATOM     15  O   UNL     1      -6.082  13.852  17.652  0.00  0.00    +0.000 OA
ATOM     16  H   UNL     1      -6.251  14.200  18.544  0.00  0.00    +0.000 HD
ENDBRANCH  14  15
ENDBRANCH  13  14
ENDBRANCH   1  13
BRANCH   7  17
ATOM     17  O   UNL     1      -3.629  10.559  16.883  0.00  0.00    +0.000 OA
ATOM     18  H   UNL     1      -4.490  10.908  16.589  0.00  0.00    +0.000 HD
ENDBRANCH   7  17
BRANCH  11  19
ATOM     19  C   UNL     1      -0.419  12.893  22.074  0.00  0.00    +0.000 C 
ATOM     20  O   UNL     1      -0.358  12.028  22.934  0.00  0.00    +0.000 OA
BRANCH  19  21
ATOM     21  O   UNL     1      -0.761  14.168  22.368  0.00  0.00    +0.000 OA
ATOM     22  H   UNL     1      -1.274  14.286  23.188  0.00  0.00    +0.000 HD
ENDBRANCH  19  21
ENDBRANCH  11  19
BRANCH   8  23
ATOM     23  O   UNL     1       1.379   9.868  18.992  0.00  0.00    +0.000 OA
BRANCH  23  24
ATOM     24  C   UNL     1       2.053   8.968  18.239  0.00  0.00    +0.000 C 
ATOM     25  O   UNL     1       2.613   9.224  17.183  0.00  0.00    +0.000 OA
BRANCH  24  26
ATOM     26  C   UNL     1       2.120   7.608  18.877  0.00  0.00    +0.000 C 
ATOM     27  C   UNL     1       1.885   7.626  20.363  0.00  0.00    +0.000 C 
ATOM     28  C   UNL     1       2.257   6.463  18.166  0.00  0.00    +0.000 C 
BRANCH  28  29
ATOM     29  C   UNL     1       2.183   5.039  18.717  0.00  0.00    +0.000 C 
ATOM     30  C   UNL     1       1.502   4.119  17.700  0.00  0.00    +0.000 C 
BRANCH  29  31
ATOM     31  C   UNL     1       3.551   4.454  19.131  0.00  0.00    +0.000 C 
BRANCH  31  32
ATOM     32  C   UNL     1       3.417   3.454  20.282  0.00  0.00    +0.000 C 
BRANCH  32  33
ATOM     33  C   UNL     1       2.318   3.844  21.269  0.00  0.00    +0.000 C 
ATOM     34  C   UNL     1       1.405   2.657  21.540  0.00  0.00    +0.000 C 
ENDBRANCH  32  33
ENDBRANCH  31  32
ENDBRANCH  29  31
ENDBRANCH  28  29
ENDBRANCH  24  26
ENDBRANCH  23  24
ENDBRANCH   8  23
TORSDOF 13
ENDMDL
MODEL 7
REMARK VINA RESULT:      -5.8      1.685      1.920
REMARK  Name = 
REMARK  17 active torsions:
REMARK  status: ('A' for Active; 'I' for Inactive)
REMARK    1  A    between atoms: C_2  and  C_3
REMARK    2  A    between atoms: C_2  and  C_5
REMARK    3  A    between atoms: C_3  and  O_4
REMARK    4  A    between atoms: C_7  and  C_8
REMARK    5  A    between atoms: C_11  and  O_12
REMARK    6  A    between atoms: C_13  and  O_14
REMARK    7  A    between atoms: O_14  and  C_15
REMARK    8  A    between atoms: C_15  and  C_17
REMARK    9  A    between atoms: C_17  and  C_18
REMARK   10  A    between atoms: C_19  and  C_20
REMARK   11  A    between atoms: C_20  and  C_21
REMARK   12  A    between atoms: C_20  and  C_22
REMARK   13  A    between atoms: C_22  and  C_23
REMARK   14  A    between atoms: C_23  and  C_24
REMARK   15  A    between atoms: C_24  and  C_25
REMARK   16  A    between atoms: C_28  and  C_29
REMARK   17  A    between atoms: C_29  and  O_31
REMARK                            x       y       z     vdW  Elec       q    Type
REMARK                         _______ _______ _______ _____ _____    ______ ____
ROOT
ATOM      1  C   UNL     1      -3.619  11.486  19.113  0.00  0.00    +0.000 C 
ATOM      2  C   UNL     1      -2.606  12.137  20.065  0.00  0.00    +0.000 C 
ATOM      3  C   UNL     1      -1.152  11.562  20.021  0.00  0.00    +0.000 C 
ATOM      4  C   UNL     1      -1.123  10.199  20.742  0.00  0.00    +0.000 C 
ATOM      5  C   UNL     1      -0.674  11.305  18.588  0.00  0.00    +0.000 C 
ATOM      6  C   UNL     1      -1.549  11.328  17.560  0.00  0.00    +0.000 C 
ATOM      7  C   UNL     1      -3.043  11.509  17.671  0.00  0.00    +0.000 C 
ATOM      8  C   UNL     1       0.837  11.112  18.372  0.00  0.00    +0.000 C 
ATOM      9  C   UNL     1       1.605  12.283  19.001  0.00  0.00    +0.000 C 
ATOM     10  C   UNL     1       1.259  12.439  20.485  0.00  0.00    +0.000 C 
ATOM     11  C   UNL     1      -0.244  12.660  20.669  0.00  0.00    +0.000 C 
ENDROOT
BRANCH   1  13
ATOM     12  C   UNL     1      -5.740  12.261  20.339  0.00  0.00    +0.000 C 
ATOM     13  C   UNL     1      -5.034  12.125  19.196  0.00  0.00    +0.000 C 
BRANCH  13  14
ATOM     14  C   UNL     1      -5.618  12.591  17.873  0.00  0.00    +0.000 C 
BRANCH  14  15
ATOM     15  O   UNL     1      -6.510  11.623  17.329  0.00  0.00    +0.000 OA
ATOM     16  H   UNL     1      -6.735  11.019  18.057  0.00  0.00    +0.000 HD
ENDBRANCH  14  15
ENDBRANCH  13  14
ENDBRANCH   1  13
BRANCH   7  17
ATOM     17  O   UNL     1      -3.639  10.453  16.916  0.00  0.00    +0.000 OA
ATOM     18  H   UNL     1      -3.116   9.650  17.086  0.00  0.00    +0.000 HD
ENDBRANCH   7  17
BRANCH  11  19
ATOM     19  C   UNL     1      -0.548  12.864  22.145  0.00  0.00    +0.000 C 
ATOM     20  O   UNL     1      -0.420  12.004  23.002  0.00  0.00    +0.000 OA
BRANCH  19  21
ATOM     21  O   UNL     1      -0.986  14.108  22.444  0.00  0.00    +0.000 OA
ATOM     22  H   UNL     1      -1.373  14.215  23.332  0.00  0.00    +0.000 HD
ENDBRANCH  19  21
ENDBRANCH  11  19
BRANCH   8  23
ATOM     23  O   UNL     1       1.386   9.949  19.039  0.00  0.00    +0.000 OA
BRANCH  23  24
ATOM     24  C   UNL     1       1.920   8.986  18.253  0.00  0.00    +0.000 C 
ATOM     25  O   UNL     1       2.211   9.132  17.075  0.00  0.00    +0.000 OA
BRANCH  24  26
ATOM     26  C   UNL     1       2.204   7.713  19.001  0.00  0.00    +0.000 C 
ATOM     27  C   UNL     1       1.746   7.741  20.435  0.00  0.00    +0.000 C 
ATOM     28  C   UNL     1       2.711   6.605  18.411  0.00  0.00    +0.000 C 
BRANCH  28  29
ATOM     29  C   UNL     1       2.888   5.231  19.060  0.00  0.00    +0.000 C 
ATOM     30  C   UNL     1       1.684   4.341  18.737  0.00  0.00    +0.000 C 
BRANCH  29  31
ATOM     31  C   UNL     1       4.199   4.516  18.669  0.00  0.00    +0.000 C 
BRANCH  31  32
ATOM     32  C   UNL     1       4.333   4.364  17.152  0.00  0.00    +0.000 C 
BRANCH  32  33
ATOM     33  C   UNL     1       5.784   4.183  16.709  0.00  0.00    +0.000 C 
ATOM     34  C   UNL     1       5.867   4.087  15.193  0.00  0.00    +0.000 C 
ENDBRANCH  32  33
ENDBRANCH  31  32
ENDBRANCH  29  31
ENDBRANCH  28  29
ENDBRANCH  24  26
ENDBRANCH  23  24
ENDBRANCH   8  23
TORSDOF 13
ENDMDL
MODEL 8
REMARK VINA RESULT:      -5.8      1.773      2.011
REMARK  Name = 
REMARK  17 active torsions:
REMARK  status: ('A' for Active; 'I' for Inactive)
REMARK    1  A    between atoms: C_2  and  C_3
REMARK    2  A    between atoms: C_2  and  C_5
REMARK    3  A    between atoms: C_3  and  O_4
REMARK    4  A    between atoms: C_7  and  C_8
REMARK    5  A    between atoms: C_11  and  O_12
REMARK    6  A    between atoms: C_13  and  O_14
REMARK    7  A    between atoms: O_14  and  C_15
REMARK    8  A    between atoms: C_15  and  C_17
REMARK    9  A    between atoms: C_17  and  C_18
REMARK   10  A    between atoms: C_19  and  C_20
REMARK   11  A    between atoms: C_20  and  C_21
REMARK   12  A    between atoms: C_20  and  C_22
REMARK   13  A    between atoms: C_22  and  C_23
REMARK   14  A    between atoms: C_23  and  C_24
REMARK   15  A    between atoms: C_24  and  C_25
REMARK   16  A    between atoms: C_28  and  C_29
REMARK   17  A    between atoms: C_29  and  O_31
REMARK                            x       y       z     vdW  Elec       q    Type
REMARK                         _______ _______ _______ _____ _____    ______ ____
ROOT
ATOM      1  C   UNL     1      -3.528  11.467  18.949  0.00  0.00    +0.000 C 
ATOM      2  C   UNL     1      -2.579  12.025  20.019  0.00  0.00    +0.000 C 
ATOM      3  C   UNL     1      -1.127  11.443  20.021  0.00  0.00    +0.000 C 
ATOM      4  C   UNL     1      -1.150  10.023  20.623  0.00  0.00    +0.000 C 
ATOM      5  C   UNL     1      -0.554  11.307  18.607  0.00  0.00    +0.000 C 
ATOM      6  C   UNL     1      -1.359  11.425  17.529  0.00  0.00    +0.000 C 
ATOM      7  C   UNL     1      -2.857  11.609  17.556  0.00  0.00    +0.000 C 
ATOM      8  C   UNL     1       0.967  11.121  18.476  0.00  0.00    +0.000 C 
ATOM      9  C   UNL     1       1.694  12.227  19.254  0.00  0.00    +0.000 C 
ATOM     10  C   UNL     1       1.250  12.257  20.719  0.00  0.00    +0.000 C 
ATOM     11  C   UNL     1      -0.262  12.473  20.822  0.00  0.00    +0.000 C 
ENDROOT
BRANCH   1  13
ATOM     12  C   UNL     1      -5.710  12.331  17.904  0.00  0.00    +0.000 C 
ATOM     13  C   UNL     1      -4.944  12.107  18.993  0.00  0.00    +0.000 C 
BRANCH  13  14
ATOM     14  C   UNL     1      -5.440  12.501  20.374  0.00  0.00    +0.000 C 
BRANCH  14  15
ATOM     15  O   UNL     1      -6.314  11.514  20.912  0.00  0.00    +0.000 OA
ATOM     16  H   UNL     1      -6.990  11.995  21.419  0.00  0.00    +0.000 HD
ENDBRANCH  14  15
ENDBRANCH  13  14
ENDBRANCH   1  13
BRANCH   7  17
ATOM     17  O   UNL     1      -3.403  10.627  16.674  0.00  0.00    +0.000 OA
ATOM     18  H   UNL     1      -4.249  10.979  16.344  0.00  0.00    +0.000 HD
ENDBRANCH   7  17
BRANCH  11  19
ATOM     19  C   UNL     1      -0.662  12.552  22.286  0.00  0.00    +0.000 C 
ATOM     20  O   UNL     1      -1.258  13.491  22.790  0.00  0.00    +0.000 OA
BRANCH  19  21
ATOM     21  O   UNL     1      -0.295  11.470  23.010  0.00  0.00    +0.000 OA
ATOM     22  H   UNL     1      -0.095  10.668  22.494  0.00  0.00    +0.000 HD
ENDBRANCH  19  21
ENDBRANCH  11  19
BRANCH   8  23
ATOM     23  O   UNL     1       1.467   9.900  19.074  0.00  0.00    +0.000 OA
BRANCH  23  24
ATOM     24  C   UNL     1       2.023   8.992  18.241  0.00  0.00    +0.000 C 
ATOM     25  O   UNL     1       2.376   9.224  17.094  0.00  0.00    +0.000 OA
BRANCH  24  26
ATOM     26  C   UNL     1       2.248   7.657  18.898  0.00  0.00    +0.000 C 
ATOM     27  C   UNL     1       1.831   7.620  20.343  0.00  0.00    +0.000 C 
ATOM     28  C   UNL     1       2.669   6.561  18.223  0.00  0.00    +0.000 C 
BRANCH  28  29
ATOM     29  C   UNL     1       2.777   5.141  18.778  0.00  0.00    +0.000 C 
ATOM     30  C   UNL     1       1.568   4.312  18.334  0.00  0.00    +0.000 C 
BRANCH  29  31
ATOM     31  C   UNL     1       4.087   4.416  18.398  0.00  0.00    +0.000 C 
BRANCH  31  32
ATOM     32  C   UNL     1       5.011   5.311  17.568  0.00  0.00    +0.000 C 
BRANCH  32  33
ATOM     33  C   UNL     1       5.603   4.581  16.364  0.00  0.00    +0.000 C 
ATOM     34  C   UNL     1       5.541   5.465  15.127  0.00  0.00    +0.000 C 
ENDBRANCH  32  33
ENDBRANCH  31  32
ENDBRANCH  29  31
ENDBRANCH  28  29
ENDBRANCH  24  26
ENDBRANCH  23  24
ENDBRANCH   8  23
TORSDOF 13
ENDMDL
MODEL 9
REMARK VINA RESULT:      -5.7      1.865      2.293
REMARK  Name = 
REMARK  17 active torsions:
REMARK  status: ('A' for Active; 'I' for Inactive)
REMARK    1  A    between atoms: C_2  and  C_3
REMARK    2  A    between atoms: C_2  and  C_5
REMARK    3  A    between atoms: C_3  and  O_4
REMARK    4  A    between atoms: C_7  and  C_8
REMARK    5  A    between atoms: C_11  and  O_12
REMARK    6  A    between atoms: C_13  and  O_14
REMARK    7  A    between atoms: O_14  and  C_15
REMARK    8  A    between atoms: C_15  and  C_17
REMARK    9  A    between atoms: C_17  and  C_18
REMARK   10  A    between atoms: C_19  and  C_20
REMARK   11  A    between atoms: C_20  and  C_21
REMARK   12  A    between atoms: C_20  and  C_22
REMARK   13  A    between atoms: C_22  and  C_23
REMARK   14  A    between atoms: C_23  and  C_24
REMARK   15  A    between atoms: C_24  and  C_25
REMARK   16  A    between atoms: C_28  and  C_29
REMARK   17  A    between atoms: C_29  and  O_31
REMARK                            x       y       z     vdW  Elec       q    Type
REMARK                         _______ _______ _______ _____ _____    ______ ____
ROOT
ATOM      1  C   UNL     1      -3.589  11.341  18.933  0.00  0.00    +0.000 C 
ATOM      2  C   UNL     1      -2.693  11.921  20.037  0.00  0.00    +0.000 C 
ATOM      3  C   UNL     1      -1.210  11.424  20.050  0.00  0.00    +0.000 C 
ATOM      4  C   UNL     1      -1.161   9.987  20.609  0.00  0.00    +0.000 C 
ATOM      5  C   UNL     1      -0.606  11.362  18.643  0.00  0.00    +0.000 C 
ATOM      6  C   UNL     1      -1.398  11.467  17.554  0.00  0.00    +0.000 C 
ATOM      7  C   UNL     1      -2.904  11.563  17.558  0.00  0.00    +0.000 C 
ATOM      8  C   UNL     1       0.925  11.267  18.536  0.00  0.00    +0.000 C 
ATOM      9  C   UNL     1       1.574  12.390  19.358  0.00  0.00    +0.000 C 
ATOM     10  C   UNL     1       1.103  12.351  20.816  0.00  0.00    +0.000 C 
ATOM     11  C   UNL     1      -0.420  12.477  20.896  0.00  0.00    +0.000 C 
ENDROOT
BRANCH   1  13
ATOM     12  C   UNL     1      -5.369  13.136  19.395  0.00  0.00    +0.000 C 
ATOM     13  C   UNL     1      -5.040  11.898  18.969  0.00  0.00    +0.000 C 
BRANCH  13  14
ATOM     14  C   UNL     1      -6.120  10.938  18.498  0.00  0.00    +0.000 C 
BRANCH  14  15
ATOM     15  O   UNL     1      -7.405  11.328  18.973  0.00  0.00    +0.000 OA
ATOM     16  H   UNL     1      -7.332  12.265  19.219  0.00  0.00    +0.000 HD
ENDBRANCH  14  15
ENDBRANCH  13  14
ENDBRANCH   1  13
BRANCH   7  17
ATOM     17  O   UNL     1      -3.378  10.579  16.638  0.00  0.00    +0.000 OA
ATOM     18  H   UNL     1      -4.197  10.927  16.244  0.00  0.00    +0.000 HD
ENDBRANCH   7  17
BRANCH  11  19
ATOM     19  C   UNL     1      -0.849  12.489  22.354  0.00  0.00    +0.000 C 
ATOM     20  O   UNL     1      -0.599  11.603  23.155  0.00  0.00    +0.000 OA
BRANCH  19  21
ATOM     21  O   UNL     1      -1.555  13.588  22.705  0.00  0.00    +0.000 OA
ATOM     22  H   UNL     1      -2.423  13.686  22.274  0.00  0.00    +0.000 HD
ENDBRANCH  19  21
ENDBRANCH  11  19
BRANCH   8  23
ATOM     23  O   UNL     1       1.485  10.060  19.108  0.00  0.00    +0.000 OA
BRANCH  23  24
ATOM     24  C   UNL     1       2.006   9.157  18.246  0.00  0.00    +0.000 C 
ATOM     25  O   UNL     1       2.316   9.398  17.089  0.00  0.00    +0.000 OA
BRANCH  24  26
ATOM     26  C   UNL     1       2.250   7.817  18.882  0.00  0.00    +0.000 C 
ATOM     27  C   UNL     1       1.732   7.715  20.292  0.00  0.00    +0.000 C 
ATOM     28  C   UNL     1       2.773   6.763  18.212  0.00  0.00    +0.000 C 
BRANCH  28  29
ATOM     29  C   UNL     1       2.914   5.333  18.736  0.00  0.00    +0.000 C 
ATOM     30  C   UNL     1       1.790   4.457  18.173  0.00  0.00    +0.000 C 
BRANCH  29  31
ATOM     31  C   UNL     1       4.287   4.689  18.445  0.00  0.00    +0.000 C 
BRANCH  31  32
ATOM     32  C   UNL     1       5.302   5.719  17.942  0.00  0.00    +0.000 C 
BRANCH  32  33
ATOM     33  C   UNL     1       6.730   5.176  17.936  0.00  0.00    +0.000 C 
ATOM     34  C   UNL     1       7.575   5.901  18.974  0.00  0.00    +0.000 C 
ENDBRANCH  32  33
ENDBRANCH  31  32
ENDBRANCH  29  31
ENDBRANCH  28  29
ENDBRANCH  24  26
ENDBRANCH  23  24
ENDBRANCH   8  23
TORSDOF 13
ENDMDL
