MODEL 1
REMARK VINA RESULT:      -6.0      0.000      0.000
REMARK  Name = 
REMARK  3 active torsions:
REMARK  status: ('A' for Active; 'I' for Inactive)
REMARK    1  A    between atoms: C_1  and  C_2
REMARK    2  A    between atoms: C_5  and  S_6
REMARK    3  A    between atoms: S_6  and  N_9
REMARK                            x       y       z     vdW  Elec       q    Type
REMARK                         _______ _______ _______ _____ _____    ______ ____
ROOT
ATOM      1  N   UNL     1      -1.365  14.903  21.707  0.00  0.00    +0.000 NA
ATOM      2  C   UNL     1      -1.826  14.558  23.085  0.00  0.00    +0.000 C 
ATOM      3  C   UNL     1      -2.198  13.090  23.412  0.00  0.00    +0.000 C 
ATOM      4  O   UNL     1      -1.073  12.219  23.386  0.00  0.00    +0.000 OA
ATOM      5  C   UNL     1      -1.390  10.846  23.103  0.00  0.00    +0.000 C 
ATOM      6  C   UNL     1      -0.214  10.138  22.394  0.00  0.00    +0.000 C 
ATOM      7  O   UNL     1      -0.330  10.217  20.957  0.00  0.00    +0.000 OA
ATOM      8  C   UNL     1       0.858   9.742  20.296  0.00  0.00    +0.000 C 
ATOM      9  C   UNL     1       0.845  10.021  18.779  0.00  0.00    +0.000 C 
ATOM     10  O   UNL     1       1.070  11.395  18.431  0.00  0.00    +0.000 OA
ATOM     11  C   UNL     1       2.430  11.775  18.234  0.00  0.00    +0.000 C 
ATOM     12  C   UNL     1       2.532  13.270  17.852  0.00  0.00    +0.000 C 
ATOM     13  O   UNL     1       2.384  14.135  18.990  0.00  0.00    +0.000 OA
ATOM     14  C   UNL     1       2.356  15.529  18.615  0.00  0.00    +0.000 C 
ATOM     15  C   UNL     1       1.943  16.431  19.805  0.00  0.00    +0.000 C 
ATOM     16  O   UNL     1       0.534  16.711  19.801  0.00  0.00    +0.000 OA
ATOM     17  C   UNL     1      -0.033  16.988  21.082  0.00  0.00    +0.000 C 
ATOM     18  C   UNL     1      -1.425  16.333  21.288  0.00  0.00    +0.000 C 
ENDROOT
BRANCH   1  19
ATOM     19  S   UNL     1      -0.814  13.788  20.566  0.00  0.00    +0.000 S 
ATOM     20  O   UNL     1       0.263  13.030  21.158  0.00  0.00    +0.000 OA
ATOM     21  O   UNL     1      -0.636  14.458  19.300  0.00  0.00    +0.000 OA
BRANCH  19  26
ATOM     22  C   UNL     1      -5.562  11.488  17.820  0.00  0.00    +0.000 C 
ATOM     23  C   UNL     1      -4.426  11.818  18.728  0.00  0.00    +0.000 A 
ATOM     24  C   UNL     1      -4.603  12.563  19.909  0.00  0.00    +0.000 A 
ATOM     25  C   UNL     1      -3.502  13.048  20.619  0.00  0.00    +0.000 A 
ATOM     26  C   UNL     1      -2.217  12.765  20.168  0.00  0.00    +0.000 A 
ATOM     27  C   UNL     1      -2.048  11.974  19.034  0.00  0.00    +0.000 A 
ATOM     28  C   UNL     1      -3.129  11.503  18.311  0.00  0.00    +0.000 A 
ENDBRANCH  19  26
ENDBRANCH   1  19
TORSDOF 2
ENDMDL
MODEL 2
REMARK VINA RESULT:      -5.7      8.763     11.975
REMARK  Name = 
REMARK  3 active torsions:
REMARK  status: ('A' for Active; 'I' for Inactive)
REMARK    1  A    between atoms: C_1  and  C_2
REMARK    2  A    between atoms: C_5  and  S_6
REMARK    3  A    between atoms: S_6  and  N_9
REMARK                            x       y       z     vdW  Elec       q    Type
REMARK                         _______ _______ _______ _____ _____    ______ ____
ROOT
ATOM      1  N   UNL     1       8.591  13.170  21.558  0.00  0.00    +0.000 NA
ATOM      2  C   UNL     1       7.255  13.408  22.181  0.00  0.00    +0.000 C 
ATOM      3  C   UNL     1       6.773  14.865  22.403  0.00  0.00    +0.000 C 
ATOM      4  O   UNL     1       6.517  15.549  21.182  0.00  0.00    +0.000 OA
ATOM      5  C   UNL     1       6.639  16.978  21.264  0.00  0.00    +0.000 C 
ATOM      6  C   UNL     1       7.067  17.580  19.907  0.00  0.00    +0.000 C 
ATOM      7  O   UNL     1       8.502  17.698  19.804  0.00  0.00    +0.000 OA
ATOM      8  C   UNL     1       8.916  18.063  18.473  0.00  0.00    +0.000 C 
ATOM      9  C   UNL     1      10.444  17.979  18.282  0.00  0.00    +0.000 C 
ATOM     10  O   UNL     1      10.952  16.640  18.190  0.00  0.00    +0.000 OA
ATOM     11  C   UNL     1      11.011  16.083  16.878  0.00  0.00    +0.000 C 
ATOM     12  C   UNL     1      11.588  14.649  16.916  0.00  0.00    +0.000 C 
ATOM     13  O   UNL     1      10.619  13.683  17.357  0.00  0.00    +0.000 OA
ATOM     14  C   UNL     1      11.193  12.367  17.510  0.00  0.00    +0.000 C 
ATOM     15  C   UNL     1      10.216  11.399  18.222  0.00  0.00    +0.000 C 
ATOM     16  O   UNL     1      10.456  11.341  19.638  0.00  0.00    +0.000 OA
ATOM     17  C   UNL     1       9.321  10.998  20.433  0.00  0.00    +0.000 C 
ATOM     18  C   UNL     1       9.217  11.828  21.740  0.00  0.00    +0.000 C 
ENDROOT
BRANCH   1  19
ATOM     19  S   UNL     1       9.470  14.319  20.690  0.00  0.00    +0.000 S 
ATOM     20  O   UNL     1       8.639  14.808  19.616  0.00  0.00    +0.000 OA
ATOM     21  O   UNL     1      10.791  13.799  20.422  0.00  0.00    +0.000 OA
BRANCH  19  26
ATOM     22  C   UNL     1      12.333  17.578  24.758  0.00  0.00    +0.000 C 
ATOM     23  C   UNL     1      11.385  17.003  23.761  0.00  0.00    +0.000 A 
ATOM     24  C   UNL     1      10.262  16.247  24.146  0.00  0.00    +0.000 A 
ATOM     25  C   UNL     1       9.522  15.535  23.198  0.00  0.00    +0.000 A 
ATOM     26  C   UNL     1       9.884  15.599  21.857  0.00  0.00    +0.000 A 
ATOM     27  C   UNL     1      10.959  16.399  21.475  0.00  0.00    +0.000 A 
ATOM     28  C   UNL     1      11.711  17.094  22.405  0.00  0.00    +0.000 A 
ENDBRANCH  19  26
ENDBRANCH   1  19
TORSDOF 2
ENDMDL
MODEL 3
REMARK VINA RESULT:      -5.4      0.912      1.125
REMARK  Name = 
REMARK  3 active torsions:
REMARK  status: ('A' for Active; 'I' for Inactive)
REMARK    1  A    between atoms: C_1  and  C_2
REMARK    2  A    between atoms: C_5  and  S_6
REMARK    3  A    between atoms: S_6  and  N_9
REMARK                            x       y       z     vdW  Elec       q    Type
REMARK                         _______ _______ _______ _____ _____    ______ ____
ROOT
ATOM      1  N   UNL     1      -2.208  14.638  22.375  0.00  0.00    +0.000 NA
ATOM      2  C   UNL     1      -2.659  13.917  23.603  0.00  0.00    +0.000 C 
ATOM      3  C   UNL     1      -2.703  12.368  23.596  0.00  0.00    +0.000 C 
ATOM      4  O   UNL     1      -1.408  11.784  23.521  0.00  0.00    +0.000 OA
ATOM      5  C   UNL     1      -1.382  10.467  22.944  0.00  0.00    +0.000 C 
ATOM      6  C   UNL     1      -0.033  10.195  22.241  0.00  0.00    +0.000 C 
ATOM      7  O   UNL     1      -0.077  10.552  20.843  0.00  0.00    +0.000 OA
ATOM      8  C   UNL     1       1.226  10.493  20.233  0.00  0.00    +0.000 C 
ATOM      9  C   UNL     1       1.241  11.080  18.807  0.00  0.00    +0.000 C 
ATOM     10  O   UNL     1       1.164  12.512  18.759  0.00  0.00    +0.000 OA
ATOM     11  C   UNL     1       2.409  13.207  18.787  0.00  0.00    +0.000 C 
ATOM     12  C   UNL     1       2.187  14.735  18.716  0.00  0.00    +0.000 C 
ATOM     13  O   UNL     1       1.775  15.286  19.979  0.00  0.00    +0.000 OA
ATOM     14  C   UNL     1       1.449  16.689  19.881  0.00  0.00    +0.000 C 
ATOM     15  C   UNL     1       0.768  17.207  21.172  0.00  0.00    +0.000 C 
ATOM     16  O   UNL     1      -0.665  17.174  21.072  0.00  0.00    +0.000 OA
ATOM     17  C   UNL     1      -1.358  17.044  22.314  0.00  0.00    +0.000 C 
ATOM     18  C   UNL     1      -2.571  16.079  22.239  0.00  0.00    +0.000 C 
ENDROOT
BRANCH   1  19
ATOM     19  S   UNL     1      -1.347  13.936  21.105  0.00  0.00    +0.000 S 
ATOM     20  O   UNL     1      -0.171  13.302  21.652  0.00  0.00    +0.000 OA
ATOM     21  O   UNL     1      -1.236  14.891  20.027  0.00  0.00    +0.000 OA
BRANCH  19  26
ATOM     22  C   UNL     1      -5.111  11.304  17.327  0.00  0.00    +0.000 C 
ATOM     23  C   UNL     1      -4.206  11.682  18.451  0.00  0.00    +0.000 A 
ATOM     24  C   UNL     1      -4.696  12.209  19.661  0.00  0.00    +0.000 A 
ATOM     25  C   UNL     1      -3.825  12.762  20.603  0.00  0.00    +0.000 A 
ATOM     26  C   UNL     1      -2.457  12.764  20.353  0.00  0.00    +0.000 A 
ATOM     27  C   UNL     1      -1.974  12.185  19.182  0.00  0.00    +0.000 A 
ATOM     28  C   UNL     1      -2.826  11.650  18.233  0.00  0.00    +0.000 A 
ENDBRANCH  19  26
ENDBRANCH   1  19
TORSDOF 2
ENDMDL
MODEL 4
REMARK VINA RESULT:      -5.2      2.454      5.962
REMARK  Name = 
REMARK  3 active torsions:
REMARK  status: ('A' for Active; 'I' for Inactive)
REMARK    1  A    between atoms: C_1  and  C_2
REMARK    2  A    between atoms: C_5  and  S_6
REMARK    3  A    between atoms: S_6  and  N_9
REMARK                            x       y       z     vdW  Elec       q    Type
REMARK                         _______ _______ _______ _____ _____    ______ ____
ROOT
ATOM      1  N   UNL     1      -1.831  12.519  22.760  0.00  0.00    +0.000 NA
ATOM      2  C   UNL     1      -3.307  12.391  22.948  0.00  0.00    +0.000 C 
ATOM      3  C   UNL     1      -4.160  13.673  23.124  0.00  0.00    +0.000 C 
ATOM      4  O   UNL     1      -4.206  14.468  21.945  0.00  0.00    +0.000 OA
ATOM      5  C   UNL     1      -4.453  15.864  22.178  0.00  0.00    +0.000 C 
ATOM      6  C   UNL     1      -3.805  16.735  21.079  0.00  0.00    +0.000 C 
ATOM      7  O   UNL     1      -2.471  17.150  21.443  0.00  0.00    +0.000 OA
ATOM      8  C   UNL     1      -1.788  17.786  20.346  0.00  0.00    +0.000 C 
ATOM      9  C   UNL     1      -0.295  18.036  20.640  0.00  0.00    +0.000 C 
ATOM     10  O   UNL     1       0.518  16.855  20.603  0.00  0.00    +0.000 OA
ATOM     11  C   UNL     1       1.083  16.523  19.336  0.00  0.00    +0.000 C 
ATOM     12  C   UNL     1       1.944  15.244  19.436  0.00  0.00    +0.000 C 
ATOM     13  O   UNL     1       1.145  14.049  19.469  0.00  0.00    +0.000 OA
ATOM     14  C   UNL     1       1.942  12.866  19.687  0.00  0.00    +0.000 C 
ATOM     15  C   UNL     1       1.057  11.627  19.974  0.00  0.00    +0.000 C 
ATOM     16  O   UNL     1       0.885  11.406  21.383  0.00  0.00    +0.000 OA
ATOM     17  C   UNL     1      -0.318  10.729  21.749  0.00  0.00    +0.000 C 
ATOM     18  C   UNL     1      -0.987  11.317  23.020  0.00  0.00    +0.000 C 
ENDROOT
BRANCH   1  19
ATOM     19  S   UNL     1      -1.034  13.937  22.310  0.00  0.00    +0.000 S 
ATOM     20  O   UNL     1      -1.603  14.401  21.067  0.00  0.00    +0.000 OA
ATOM     21  O   UNL     1       0.391  13.739  22.441  0.00  0.00    +0.000 OA
BRANCH  19  26
ATOM     22  C   UNL     1      -0.338  17.103  27.297  0.00  0.00    +0.000 C 
ATOM     23  C   UNL     1      -0.793  16.488  26.017  0.00  0.00    +0.000 A 
ATOM     24  C   UNL     1      -1.749  15.455  25.980  0.00  0.00    +0.000 A 
ATOM     25  C   UNL     1      -1.991  14.747  24.801  0.00  0.00    +0.000 A 
ATOM     26  C   UNL     1      -1.299  15.089  23.643  0.00  0.00    +0.000 A 
ATOM     27  C   UNL     1      -0.401  16.153  23.670  0.00  0.00    +0.000 A 
ATOM     28  C   UNL     1      -0.139  16.850  24.836  0.00  0.00    +0.000 A 
ENDBRANCH  19  26
ENDBRANCH   1  19
TORSDOF 2
ENDMDL
MODEL 5
REMARK VINA RESULT:      -5.2      2.380      5.416
REMARK  Name = 
REMARK  3 active torsions:
REMARK  status: ('A' for Active; 'I' for Inactive)
REMARK    1  A    between atoms: C_1  and  C_2
REMARK    2  A    between atoms: C_5  and  S_6
REMARK    3  A    between atoms: S_6  and  N_9
REMARK                            x       y       z     vdW  Elec       q    Type
REMARK                         _______ _______ _______ _____ _____    ______ ____
ROOT
ATOM      1  N   UNL     1      -2.287  13.895  23.088  0.00  0.00    +0.000 NA
ATOM      2  C   UNL     1      -1.143  14.840  23.265  0.00  0.00    +0.000 C 
ATOM      3  C   UNL     1       0.132  14.651  22.404  0.00  0.00    +0.000 C 
ATOM      4  O   UNL     1      -0.094  14.913  21.024  0.00  0.00    +0.000 OA
ATOM      5  C   UNL     1       0.806  14.233  20.135  0.00  0.00    +0.000 C 
ATOM      6  C   UNL     1       0.135  13.951  18.772  0.00  0.00    +0.000 C 
ATOM      7  O   UNL     1      -0.499  12.654  18.746  0.00  0.00    +0.000 OA
ATOM      8  C   UNL     1      -1.296  12.469  17.561  0.00  0.00    +0.000 C 
ATOM      9  C   UNL     1      -2.154  11.189  17.615  0.00  0.00    +0.000 C 
ATOM     10  O   UNL     1      -3.285  11.276  18.494  0.00  0.00    +0.000 OA
ATOM     11  C   UNL     1      -4.495  11.759  17.910  0.00  0.00    +0.000 C 
ATOM     12  C   UNL     1      -5.634  11.791  18.954  0.00  0.00    +0.000 C 
ATOM     13  O   UNL     1      -5.531  12.918  19.840  0.00  0.00    +0.000 OA
ATOM     14  C   UNL     1      -6.522  12.879  20.889  0.00  0.00    +0.000 C 
ATOM     15  C   UNL     1      -6.244  13.948  21.976  0.00  0.00    +0.000 C 
ATOM     16  O   UNL     1      -5.492  13.411  23.076  0.00  0.00    +0.000 OA
ATOM     17  C   UNL     1      -4.697  14.359  23.788  0.00  0.00    +0.000 C 
ATOM     18  C   UNL     1      -3.299  13.812  24.181  0.00  0.00    +0.000 C 
ENDROOT
BRANCH   1  19
ATOM     19  S   UNL     1      -2.505  12.881  21.757  0.00  0.00    +0.000 S 
ATOM     20  O   UNL     1      -2.432  13.684  20.559  0.00  0.00    +0.000 OA
ATOM     21  O   UNL     1      -3.639  12.021  22.000  0.00  0.00    +0.000 OA
BRANCH  19  26
ATOM     22  C   UNL     1       0.505   7.752  21.666  0.00  0.00    +0.000 C 
ATOM     23  C   UNL     1       0.052   9.171  21.749  0.00  0.00    +0.000 A 
ATOM     24  C   UNL     1      -0.194   9.807  22.981  0.00  0.00    +0.000 A 
ATOM     25  C   UNL     1      -0.828  11.051  23.027  0.00  0.00    +0.000 A 
ATOM     26  C   UNL     1      -1.193  11.679  21.841  0.00  0.00    +0.000 A 
ATOM     27  C   UNL     1      -0.891  11.072  20.624  0.00  0.00    +0.000 A 
ATOM     28  C   UNL     1      -0.280   9.832  20.564  0.00  0.00    +0.000 A 
ENDBRANCH  19  26
ENDBRANCH   1  19
TORSDOF 2
ENDMDL
MODEL 6
REMARK VINA RESULT:      -5.1      1.486      2.336
REMARK  Name = 
REMARK  3 active torsions:
REMARK  status: ('A' for Active; 'I' for Inactive)
REMARK    1  A    between atoms: C_1  and  C_2
REMARK    2  A    between atoms: C_5  and  S_6
REMARK    3  A    between atoms: S_6  and  N_9
REMARK                            x       y       z     vdW  Elec       q    Type
REMARK                         _______ _______ _______ _____ _____    ______ ____
ROOT
ATOM      1  N   UNL     1      -2.927  14.361  22.671  0.00  0.00    +0.000 NA
ATOM      2  C   UNL     1      -3.054  13.327  23.742  0.00  0.00    +0.000 C 
ATOM      3  C   UNL     1      -2.611  11.872  23.443  0.00  0.00    +0.000 C 
ATOM      4  O   UNL     1      -1.205  11.755  23.257  0.00  0.00    +0.000 OA
ATOM      5  C   UNL     1      -0.804  10.641  22.443  0.00  0.00    +0.000 C 
ATOM      6  C   UNL     1       0.516  10.942  21.699  0.00  0.00    +0.000 C 
ATOM      7  O   UNL     1       0.276  11.509  20.393  0.00  0.00    +0.000 OA
ATOM      8  C   UNL     1       1.492  11.979  19.780  0.00  0.00    +0.000 C 
ATOM      9  C   UNL     1       1.235  12.784  18.491  0.00  0.00    +0.000 C 
ATOM     10  O   UNL     1       0.711  14.101  18.714  0.00  0.00    +0.000 OA
ATOM     11  C   UNL     1       1.676  15.140  18.870  0.00  0.00    +0.000 C 
ATOM     12  C   UNL     1       0.983  16.505  19.089  0.00  0.00    +0.000 C 
ATOM     13  O   UNL     1       0.497  16.661  20.433  0.00  0.00    +0.000 OA
ATOM     14  C   UNL     1      -0.256  17.880  20.602  0.00  0.00    +0.000 C 
ATOM     15  C   UNL     1      -0.985  17.915  21.969  0.00  0.00    +0.000 C 
ATOM     16  O   UNL     1      -2.339  17.446  21.867  0.00  0.00    +0.000 OA
ATOM     17  C   UNL     1      -2.878  16.883  23.063  0.00  0.00    +0.000 C 
ATOM     18  C   UNL     1      -3.730  15.611  22.809  0.00  0.00    +0.000 C 
ENDROOT
BRANCH   1  19
ATOM     19  S   UNL     1      -1.970  14.209  21.290  0.00  0.00    +0.000 S 
ATOM     20  O   UNL     1      -0.626  13.884  21.705  0.00  0.00    +0.000 OA
ATOM     21  O   UNL     1      -2.222  15.330  20.416  0.00  0.00    +0.000 OA
BRANCH  19  26
ATOM     22  C   UNL     1      -4.425  11.155  16.816  0.00  0.00    +0.000 C 
ATOM     23  C   UNL     1      -3.841  11.631  18.103  0.00  0.00    +0.000 A 
ATOM     24  C   UNL     1      -4.646  12.045  19.182  0.00  0.00    +0.000 A 
ATOM     25  C   UNL     1      -4.083  12.694  20.284  0.00  0.00    +0.000 A 
ATOM     26  C   UNL     1      -2.709  12.906  20.326  0.00  0.00    +0.000 A 
ATOM     27  C   UNL     1      -1.912  12.439  19.284  0.00  0.00    +0.000 A 
ATOM     28  C   UNL     1      -2.457  11.811  18.179  0.00  0.00    +0.000 A 
ENDBRANCH  19  26
ENDBRANCH   1  19
TORSDOF 2
ENDMDL
MODEL 7
REMARK VINA RESULT:      -5.1      2.881      6.621
REMARK  Name = 
REMARK  3 active torsions:
REMARK  status: ('A' for Active; 'I' for Inactive)
REMARK    1  A    between atoms: C_1  and  C_2
REMARK    2  A    between atoms: C_5  and  S_6
REMARK    3  A    between atoms: S_6  and  N_9
REMARK                            x       y       z     vdW  Elec       q    Type
REMARK                         _______ _______ _______ _____ _____    ______ ____
ROOT
ATOM      1  N   UNL     1       1.575  13.450  21.125  0.00  0.00    +0.000 NA
ATOM      2  C   UNL     1       3.020  13.777  21.312  0.00  0.00    +0.000 C 
ATOM      3  C   UNL     1       3.439  15.251  21.541  0.00  0.00    +0.000 C 
ATOM      4  O   UNL     1       2.986  15.762  22.789  0.00  0.00    +0.000 OA
ATOM      5  C   UNL     1       2.819  17.189  22.822  0.00  0.00    +0.000 C 
ATOM      6  C   UNL     1       1.715  17.597  23.824  0.00  0.00    +0.000 C 
ATOM      7  O   UNL     1       0.424  17.695  23.186  0.00  0.00    +0.000 OA
ATOM      8  C   UNL     1      -0.636  17.872  24.146  0.00  0.00    +0.000 C 
ATOM      9  C   UNL     1      -2.037  17.758  23.511  0.00  0.00    +0.000 C 
ATOM     10  O   UNL     1      -2.421  16.417  23.172  0.00  0.00    +0.000 OA
ATOM     11  C   UNL     1      -3.100  15.685  24.191  0.00  0.00    +0.000 C 
ATOM     12  C   UNL     1      -3.469  14.268  23.696  0.00  0.00    +0.000 C 
ATOM     13  O   UNL     1      -2.343  13.374  23.708  0.00  0.00    +0.000 OA
ATOM     14  C   UNL     1      -2.660  12.091  23.130  0.00  0.00    +0.000 C 
ATOM     15  C   UNL     1      -1.388  11.232  22.916  0.00  0.00    +0.000 C 
ATOM     16  O   UNL     1      -0.868  11.369  21.583  0.00  0.00    +0.000 OA
ATOM     17  C   UNL     1       0.536  11.142  21.453  0.00  0.00    +0.000 C 
ATOM     18  C   UNL     1       1.230  12.144  20.492  0.00  0.00    +0.000 C 
ENDROOT
BRANCH   1  19
ATOM     19  S   UNL     1       0.294  14.467  21.543  0.00  0.00    +0.000 S 
ATOM     20  O   UNL     1       0.430  14.816  22.937  0.00  0.00    +0.000 OA
ATOM     21  O   UNL     1      -0.937  13.904  21.041  0.00  0.00    +0.000 OA
BRANCH  19  26
ATOM     22  C   UNL     1      -0.329  18.196  16.953  0.00  0.00    +0.000 C 
ATOM     23  C   UNL     1       0.014  17.508  18.231  0.00  0.00    +0.000 A 
ATOM     24  C   UNL     1       1.236  16.835  18.415  0.00  0.00    +0.000 A 
ATOM     25  C   UNL     1       1.439  16.015  19.527  0.00  0.00    +0.000 A 
ATOM     26  C   UNL     1       0.431  15.886  20.477  0.00  0.00    +0.000 A 
ATOM     27  C   UNL     1      -0.752  16.604  20.321  0.00  0.00    +0.000 A 
ATOM     28  C   UNL     1      -0.973  17.406  19.216  0.00  0.00    +0.000 A 
ENDBRANCH  19  26
ENDBRANCH   1  19
TORSDOF 2
ENDMDL
MODEL 8
REMARK VINA RESULT:      -5.1      3.089      6.349
REMARK  Name = 
REMARK  3 active torsions:
REMARK  status: ('A' for Active; 'I' for Inactive)
REMARK    1  A    between atoms: C_1  and  C_2
REMARK    2  A    between atoms: C_5  and  S_6
REMARK    3  A    between atoms: S_6  and  N_9
REMARK                            x       y       z     vdW  Elec       q    Type
REMARK                         _______ _______ _______ _____ _____    ______ ____
ROOT
ATOM      1  N   UNL     1      -2.004  12.077  21.245  0.00  0.00    +0.000 NA
ATOM      2  C   UNL     1      -1.691  11.710  22.659  0.00  0.00    +0.000 C 
ATOM      3  C   UNL     1      -2.532  12.329  23.804  0.00  0.00    +0.000 C 
ATOM      4  O   UNL     1      -3.879  11.871  23.804  0.00  0.00    +0.000 OA
ATOM      5  C   UNL     1      -4.815  12.778  24.410  0.00  0.00    +0.000 C 
ATOM      6  C   UNL     1      -6.219  12.630  23.781  0.00  0.00    +0.000 C 
ATOM      7  O   UNL     1      -6.409  13.540  22.677  0.00  0.00    +0.000 OA
ATOM      8  C   UNL     1      -7.629  13.269  21.961  0.00  0.00    +0.000 C 
ATOM      9  C   UNL     1      -7.743  14.079  20.653  0.00  0.00    +0.000 C 
ATOM     10  O   UNL     1      -6.892  13.613  19.597  0.00  0.00    +0.000 OA
ATOM     11  C   UNL     1      -7.450  12.622  18.735  0.00  0.00    +0.000 C 
ATOM     12  C   UNL     1      -6.440  12.218  17.636  0.00  0.00    +0.000 C 
ATOM     13  O   UNL     1      -5.429  11.321  18.126  0.00  0.00    +0.000 OA
ATOM     14  C   UNL     1      -4.419  11.044  17.134  0.00  0.00    +0.000 C 
ATOM     15  C   UNL     1      -3.211  10.290  17.745  0.00  0.00    +0.000 C 
ATOM     16  O   UNL     1      -2.158  11.189  18.131  0.00  0.00    +0.000 OA
ATOM     17  C   UNL     1      -1.322  10.724  19.191  0.00  0.00    +0.000 C 
ATOM     18  C   UNL     1      -0.956  11.835  20.212  0.00  0.00    +0.000 C 
ENDROOT
BRANCH   1  19
ATOM     19  S   UNL     1      -3.448  12.783  20.729  0.00  0.00    +0.000 S 
ATOM     20  O   UNL     1      -4.541  11.945  21.161  0.00  0.00    +0.000 OA
ATOM     21  O   UNL     1      -3.315  13.166  19.342  0.00  0.00    +0.000 OA
BRANCH  19  26
ATOM     22  C   UNL     1      -2.867  18.627  21.665  0.00  0.00    +0.000 C 
ATOM     23  C   UNL     1      -3.150  17.165  21.736  0.00  0.00    +0.000 A 
ATOM     24  C   UNL     1      -2.297  16.268  22.406  0.00  0.00    +0.000 A 
ATOM     25  C   UNL     1      -2.461  14.888  22.268  0.00  0.00    +0.000 A 
ATOM     26  C   UNL     1      -3.498  14.396  21.481  0.00  0.00    +0.000 A 
ATOM     27  C   UNL     1      -4.376  15.288  20.871  0.00  0.00    +0.000 A 
ATOM     28  C   UNL     1      -4.214  16.657  20.985  0.00  0.00    +0.000 A 
ENDBRANCH  19  26
ENDBRANCH   1  19
TORSDOF 2
ENDMDL
MODEL 9
REMARK VINA RESULT:      -5.0      2.415      6.184
REMARK  Name = 
REMARK  3 active torsions:
REMARK  status: ('A' for Active; 'I' for Inactive)
REMARK    1  A    between atoms: C_1  and  C_2
REMARK    2  A    between atoms: C_5  and  S_6
REMARK    3  A    between atoms: S_6  and  N_9
REMARK                            x       y       z     vdW  Elec       q    Type
REMARK                         _______ _______ _______ _____ _____    ______ ____
ROOT
ATOM      1  N   UNL     1      -1.530  10.712  17.797  0.00  0.00    +0.000 NA
ATOM      2  C   UNL     1      -0.469   9.661  17.826  0.00  0.00    +0.000 C 
ATOM      3  C   UNL     1       0.619   9.716  18.928  0.00  0.00    +0.000 C 
ATOM      4  O   UNL     1       0.095   9.465  20.227  0.00  0.00    +0.000 OA
ATOM      5  C   UNL     1       0.858  10.045  21.298  0.00  0.00    +0.000 C 
ATOM      6  C   UNL     1      -0.045  10.379  22.507  0.00  0.00    +0.000 C 
ATOM      7  O   UNL     1      -0.545  11.732  22.442  0.00  0.00    +0.000 OA
ATOM      8  C   UNL     1      -1.544  11.983  23.450  0.00  0.00    +0.000 C 
ATOM      9  C   UNL     1      -2.249  13.342  23.262  0.00  0.00    +0.000 C 
ATOM     10  O   UNL     1      -3.183  13.374  22.173  0.00  0.00    +0.000 OA
ATOM     11  C   UNL     1      -4.525  13.007  22.489  0.00  0.00    +0.000 C 
ATOM     12  C   UNL     1      -5.428  13.097  21.238  0.00  0.00    +0.000 C 
ATOM     13  O   UNL     1      -5.256  11.973  20.358  0.00  0.00    +0.000 OA
ATOM     14  C   UNL     1      -6.006  12.119  19.134  0.00  0.00    +0.000 C 
ATOM     15  C   UNL     1      -5.618  11.037  18.095  0.00  0.00    +0.000 C 
ATOM     16  O   UNL     1      -4.612  11.508  17.183  0.00  0.00    +0.000 OA
ATOM     17  C   UNL     1      -3.783  10.493  16.617  0.00  0.00    +0.000 C 
ATOM     18  C   UNL     1      -2.289  10.904  16.527  0.00  0.00    +0.000 C 
ENDROOT
BRANCH   1  19
ATOM     19  S   UNL     1      -1.915  11.730  19.087  0.00  0.00    +0.000 S 
ATOM     20  O   UNL     1      -2.178  10.912  20.247  0.00  0.00    +0.000 OA
ATOM     21  O   UNL     1      -2.878  12.710  18.642  0.00  0.00    +0.000 OA
BRANCH  19  26
ATOM     22  C   UNL     1       1.950  16.224  18.598  0.00  0.00    +0.000 C 
ATOM     23  C   UNL     1       1.196  14.986  18.952  0.00  0.00    +0.000 A 
ATOM     24  C   UNL     1       1.524  13.729  18.410  0.00  0.00    +0.000 A 
ATOM     25  C   UNL     1       0.672  12.635  18.578  0.00  0.00    +0.000 A 
ATOM     26  C   UNL     1      -0.498  12.784  19.314  0.00  0.00    +0.000 A 
ATOM     27  C   UNL     1      -0.786  14.015  19.901  0.00  0.00    +0.000 A 
ATOM     28  C   UNL     1       0.040  15.111  19.727  0.00  0.00    +0.000 A 
ENDBRANCH  19  26
ENDBRANCH   1  19
TORSDOF 2
ENDMDL
