MODEL 1
REMARK VINA RESULT:      -7.7      0.000      0.000
REMARK  Name = 
REMARK  3 active torsions:
REMARK  status: ('A' for Active; 'I' for Inactive)
REMARK    1  A    between atoms: O_1  and  C_2
REMARK    2  A    between atoms: C_5  and  N_6
REMARK    3  A    between atoms: C_9  and  C_10
REMARK                            x       y       z     vdW  Elec       q    Type
REMARK                         _______ _______ _______ _____ _____    ______ ____
ROOT
ATOM      1  N   UNL     1       1.770   6.885  20.727  0.00  0.00    +0.000 N 
ATOM      2  C   UNL     1       2.499   5.852  20.235  0.00  0.00    +0.000 A 
ATOM      3  N   UNL     1       3.445   5.916  19.326  0.00  0.00    +0.000 NA
ATOM      4  C   UNL     1       3.945   4.666  19.021  0.00  0.00    +0.000 A 
ATOM      5  C   UNL     1       3.325   3.629  19.686  0.00  0.00    +0.000 A 
ATOM      6  S   UNL     1       2.172   4.249  20.792  0.00  0.00    +0.000 S 
ATOM      7  H   UNL     1       1.064   6.643  21.409  0.00  0.00    +0.000 HD
ENDROOT
BRANCH   4   8
ATOM      8  C   UNL     1       5.022   4.522  18.051  0.00  0.00    +0.000 A 
ATOM      9  C   UNL     1       4.727   4.098  16.746  0.00  0.00    +0.000 A 
ATOM     10  C   UNL     1       5.735   3.988  15.783  0.00  0.00    +0.000 A 
ATOM     11  C   UNL     1       7.051   4.308  16.111  0.00  0.00    +0.000 A 
ATOM     12  C   UNL     1       7.358   4.735  17.401  0.00  0.00    +0.000 A 
ATOM     13  C   UNL     1       6.350   4.840  18.359  0.00  0.00    +0.000 A 
ATOM     14  F   UNL     1       6.691   5.281  19.580  0.00  0.00    +0.000 F 
ENDBRANCH   4   8
BRANCH   1  18
ATOM     15  C   UNL     1       0.957  10.597  18.895  0.00  0.00    +0.000 A 
ATOM     16  C   UNL     1       0.645  10.392  20.233  0.00  0.00    +0.000 A 
ATOM     17  C   UNL     1       0.952   9.162  20.828  0.00  0.00    +0.000 A 
ATOM     18  C   UNL     1       1.560   8.129  20.096  0.00  0.00    +0.000 A 
ATOM     19  C   UNL     1       1.888   8.385  18.758  0.00  0.00    +0.000 A 
ATOM     20  C   UNL     1       1.581   9.607  18.155  0.00  0.00    +0.000 A 
BRANCH  15  21
ATOM     21  O   UNL     1       0.666  11.769  18.264  0.00  0.00    +0.000 OA
ATOM     22  H   UNL     1       1.323  12.433  18.525  0.00  0.00    +0.000 HD
ENDBRANCH  15  21
ENDBRANCH   1  18
TORSDOF 3
ENDMDL
MODEL 2
REMARK VINA RESULT:      -7.6      2.988      6.597
REMARK  Name = 
REMARK  3 active torsions:
REMARK  status: ('A' for Active; 'I' for Inactive)
REMARK    1  A    between atoms: O_1  and  C_2
REMARK    2  A    between atoms: C_5  and  N_6
REMARK    3  A    between atoms: C_9  and  C_10
REMARK                            x       y       z     vdW  Elec       q    Type
REMARK                         _______ _______ _______ _____ _____    ______ ____
ROOT
ATOM      1  N   UNL     1       4.553   3.514  17.518  0.00  0.00    +0.000 N 
ATOM      2  C   UNL     1       3.803   4.298  18.333  0.00  0.00    +0.000 A 
ATOM      3  N   UNL     1       3.445   5.543  18.119  0.00  0.00    +0.000 NA
ATOM      4  C   UNL     1       2.726   6.056  19.180  0.00  0.00    +0.000 A 
ATOM      5  C   UNL     1       2.579   5.186  20.240  0.00  0.00    +0.000 A 
ATOM      6  S   UNL     1       3.263   3.664  19.847  0.00  0.00    +0.000 S 
ATOM      7  H   UNL     1       4.749   2.582  17.858  0.00  0.00    +0.000 HD
ENDROOT
BRANCH   4   8
ATOM      8  C   UNL     1       2.213   7.419  19.130  0.00  0.00    +0.000 A 
ATOM      9  C   UNL     1       2.319   8.154  17.939  0.00  0.00    +0.000 A 
ATOM     10  C   UNL     1       1.801   9.450  17.848  0.00  0.00    +0.000 A 
ATOM     11  C   UNL     1       1.163  10.025  18.946  0.00  0.00    +0.000 A 
ATOM     12  C   UNL     1       1.047   9.305  20.133  0.00  0.00    +0.000 A 
ATOM     13  C   UNL     1       1.568   8.014  20.220  0.00  0.00    +0.000 A 
ATOM     14  F   UNL     1       1.409   7.351  21.375  0.00  0.00    +0.000 F 
ENDBRANCH   4   8
BRANCH   1  18
ATOM     15  C   UNL     1       7.213   5.033  14.617  0.00  0.00    +0.000 A 
ATOM     16  C   UNL     1       7.506   5.153  15.969  0.00  0.00    +0.000 A 
ATOM     17  C   UNL     1       6.624   4.614  16.913  0.00  0.00    +0.000 A 
ATOM     18  C   UNL     1       5.443   3.964  16.520  0.00  0.00    +0.000 A 
ATOM     19  C   UNL     1       5.197   3.834  15.147  0.00  0.00    +0.000 A 
ATOM     20  C   UNL     1       6.069   4.372  14.198  0.00  0.00    +0.000 A 
BRANCH  15  21
ATOM     21  O   UNL     1       8.029   5.552  13.658  0.00  0.00    +0.000 OA
ATOM     22  H   UNL     1       7.623   5.401  12.791  0.00  0.00    +0.000 HD
ENDBRANCH  15  21
ENDBRANCH   1  18
TORSDOF 3
ENDMDL
MODEL 3
REMARK VINA RESULT:      -7.5      0.168      1.087
REMARK  Name = 
REMARK  3 active torsions:
REMARK  status: ('A' for Active; 'I' for Inactive)
REMARK    1  A    between atoms: O_1  and  C_2
REMARK    2  A    between atoms: C_5  and  N_6
REMARK    3  A    between atoms: C_9  and  C_10
REMARK                            x       y       z     vdW  Elec       q    Type
REMARK                         _______ _______ _______ _____ _____    ______ ____
ROOT
ATOM      1  N   UNL     1       1.801   6.826  20.730  0.00  0.00    +0.000 N 
ATOM      2  C   UNL     1       2.545   5.803  20.240  0.00  0.00    +0.000 A 
ATOM      3  N   UNL     1       3.473   5.876  19.314  0.00  0.00    +0.000 NA
ATOM      4  C   UNL     1       3.996   4.633  19.017  0.00  0.00    +0.000 A 
ATOM      5  C   UNL     1       3.411   3.592  19.707  0.00  0.00    +0.000 A 
ATOM      6  S   UNL     1       2.263   4.201  20.824  0.00  0.00    +0.000 S 
ATOM      7  H   UNL     1       1.113   6.578  21.428  0.00  0.00    +0.000 HD
ENDROOT
BRANCH   4   8
ATOM      8  C   UNL     1       5.060   4.500  18.031  0.00  0.00    +0.000 A 
ATOM      9  C   UNL     1       4.753   4.049  16.738  0.00  0.00    +0.000 A 
ATOM     10  C   UNL     1       5.747   3.949  15.759  0.00  0.00    +0.000 A 
ATOM     11  C   UNL     1       7.060   4.305  16.059  0.00  0.00    +0.000 A 
ATOM     12  C   UNL     1       7.379   4.758  17.338  0.00  0.00    +0.000 A 
ATOM     13  C   UNL     1       6.385   4.854  18.311  0.00  0.00    +0.000 A 
ATOM     14  F   UNL     1       6.736   5.320  19.519  0.00  0.00    +0.000 F 
ENDBRANCH   4   8
BRANCH   1  18
ATOM     15  C   UNL     1       1.244  10.512  18.754  0.00  0.00    +0.000 A 
ATOM     16  C   UNL     1       1.808   9.434  18.083  0.00  0.00    +0.000 A 
ATOM     17  C   UNL     1       1.954   8.211  18.749  0.00  0.00    +0.000 A 
ATOM     18  C   UNL     1       1.552   8.057  20.087  0.00  0.00    +0.000 A 
ATOM     19  C   UNL     1       0.959   9.156  20.720  0.00  0.00    +0.000 A 
ATOM     20  C   UNL     1       0.813  10.381  20.064  0.00  0.00    +0.000 A 
BRANCH  15  21
ATOM     21  O   UNL     1       1.092  11.727  18.157  0.00  0.00    +0.000 OA
ATOM     22  H   UNL     1       0.831  12.372  18.832  0.00  0.00    +0.000 HD
ENDBRANCH  15  21
ENDBRANCH   1  18
TORSDOF 3
ENDMDL
MODEL 4
REMARK VINA RESULT:      -7.5      2.736      6.509
REMARK  Name = 
REMARK  3 active torsions:
REMARK  status: ('A' for Active; 'I' for Inactive)
REMARK    1  A    between atoms: O_1  and  C_2
REMARK    2  A    between atoms: C_5  and  N_6
REMARK    3  A    between atoms: C_9  and  C_10
REMARK                            x       y       z     vdW  Elec       q    Type
REMARK                         _______ _______ _______ _____ _____    ______ ____
ROOT
ATOM      1  N   UNL     1       4.154   3.605  18.179  0.00  0.00    +0.000 N 
ATOM      2  C   UNL     1       3.386   4.405  18.960  0.00  0.00    +0.000 A 
ATOM      3  N   UNL     1       3.076   5.662  18.738  0.00  0.00    +0.000 NA
ATOM      4  C   UNL     1       2.318   6.189  19.765  0.00  0.00    +0.000 A 
ATOM      5  C   UNL     1       2.093   5.318  20.809  0.00  0.00    +0.000 A 
ATOM      6  S   UNL     1       2.752   3.779  20.440  0.00  0.00    +0.000 S 
ATOM      7  H   UNL     1       4.306   2.666  18.521  0.00  0.00    +0.000 HD
ENDROOT
BRANCH   4   8
ATOM      8  C   UNL     1       1.847   7.566  19.698  0.00  0.00    +0.000 A 
ATOM      9  C   UNL     1       1.276   8.158  20.835  0.00  0.00    +0.000 A 
ATOM     10  C   UNL     1       0.851   9.491  20.814  0.00  0.00    +0.000 A 
ATOM     11  C   UNL     1       0.998  10.250  19.654  0.00  0.00    +0.000 A 
ATOM     12  C   UNL     1       1.567   9.677  18.519  0.00  0.00    +0.000 A 
ATOM     13  C   UNL     1       1.987   8.347  18.545  0.00  0.00    +0.000 A 
ATOM     14  F   UNL     1       2.552   7.848  17.436  0.00  0.00    +0.000 F 
ENDBRANCH   4   8
BRANCH   1  18
ATOM     15  C   UNL     1       7.023   5.053  15.445  0.00  0.00    +0.000 A 
ATOM     16  C   UNL     1       7.318   4.984  16.801  0.00  0.00    +0.000 A 
ATOM     17  C   UNL     1       6.362   4.471  17.686  0.00  0.00    +0.000 A 
ATOM     18  C   UNL     1       5.107   4.035  17.230  0.00  0.00    +0.000 A 
ATOM     19  C   UNL     1       4.858   4.091  15.853  0.00  0.00    +0.000 A 
ATOM     20  C   UNL     1       5.805   4.605  14.964  0.00  0.00    +0.000 A 
BRANCH  15  21
ATOM     21  O   UNL     1       7.912   5.558  14.544  0.00  0.00    +0.000 OA
ATOM     22  H   UNL     1       8.064   4.894  13.855  0.00  0.00    +0.000 HD
ENDBRANCH  15  21
ENDBRANCH   1  18
TORSDOF 3
ENDMDL
MODEL 5
REMARK VINA RESULT:      -7.5      2.796      6.596
REMARK  Name = 
REMARK  3 active torsions:
REMARK  status: ('A' for Active; 'I' for Inactive)
REMARK    1  A    between atoms: O_1  and  C_2
REMARK    2  A    between atoms: C_5  and  N_6
REMARK    3  A    between atoms: C_9  and  C_10
REMARK                            x       y       z     vdW  Elec       q    Type
REMARK                         _______ _______ _______ _____ _____    ______ ____
ROOT
ATOM      1  N   UNL     1       4.245   3.630  18.064  0.00  0.00    +0.000 N 
ATOM      2  C   UNL     1       3.458   4.362  18.891  0.00  0.00    +0.000 A 
ATOM      3  N   UNL     1       3.113   5.621  18.743  0.00  0.00    +0.000 NA
ATOM      4  C   UNL     1       2.343   6.066  19.799  0.00  0.00    +0.000 A 
ATOM      5  C   UNL     1       2.143   5.129  20.791  0.00  0.00    +0.000 A 
ATOM      6  S   UNL     1       2.843   3.633  20.332  0.00  0.00    +0.000 S 
ATOM      7  H   UNL     1       4.423   2.677  18.350  0.00  0.00    +0.000 HD
ENDROOT
BRANCH   4   8
ATOM      8  C   UNL     1       1.835   7.431  19.814  0.00  0.00    +0.000 A 
ATOM      9  C   UNL     1       1.285   7.952  20.996  0.00  0.00    +0.000 A 
ATOM     10  C   UNL     1       0.825   9.272  21.052  0.00  0.00    +0.000 A 
ATOM     11  C   UNL     1       0.916  10.090  19.927  0.00  0.00    +0.000 A 
ATOM     12  C   UNL     1       1.463   9.587  18.748  0.00  0.00    +0.000 A 
ATOM     13  C   UNL     1       1.918   8.270  18.697  0.00  0.00    +0.000 A 
ATOM     14  F   UNL     1       2.461   7.840  17.548  0.00  0.00    +0.000 F 
ENDBRANCH   4   8
BRANCH   1  18
ATOM     15  C   UNL     1       7.024   5.000  15.199  0.00  0.00    +0.000 A 
ATOM     16  C   UNL     1       5.737   4.646  14.815  0.00  0.00    +0.000 A 
ATOM     17  C   UNL     1       4.822   4.224  15.787  0.00  0.00    +0.000 A 
ATOM     18  C   UNL     1       5.184   4.141  17.142  0.00  0.00    +0.000 A 
ATOM     19  C   UNL     1       6.481   4.536  17.496  0.00  0.00    +0.000 A 
ATOM     20  C   UNL     1       7.401   4.955  16.531  0.00  0.00    +0.000 A 
BRANCH  15  21
ATOM     21  O   UNL     1       7.957   5.402  14.292  0.00  0.00    +0.000 OA
ATOM     22  H   UNL     1       8.423   4.620  13.960  0.00  0.00    +0.000 HD
ENDBRANCH  15  21
ENDBRANCH   1  18
TORSDOF 3
ENDMDL
MODEL 6
REMARK VINA RESULT:      -7.5      2.943      6.641
REMARK  Name = 
REMARK  3 active torsions:
REMARK  status: ('A' for Active; 'I' for Inactive)
REMARK    1  A    between atoms: O_1  and  C_2
REMARK    2  A    between atoms: C_5  and  N_6
REMARK    3  A    between atoms: C_9  and  C_10
REMARK                            x       y       z     vdW  Elec       q    Type
REMARK                         _______ _______ _______ _____ _____    ______ ____
ROOT
ATOM      1  N   UNL     1       4.222   3.839  17.953  0.00  0.00    +0.000 N 
ATOM      2  C   UNL     1       3.448   4.644  18.723  0.00  0.00    +0.000 A 
ATOM      3  N   UNL     1       3.142   5.900  18.492  0.00  0.00    +0.000 NA
ATOM      4  C   UNL     1       2.375   6.433  19.510  0.00  0.00    +0.000 A 
ATOM      5  C   UNL     1       2.138   5.566  20.556  0.00  0.00    +0.000 A 
ATOM      6  S   UNL     1       2.799   4.025  20.200  0.00  0.00    +0.000 S 
ATOM      7  H   UNL     1       4.370   2.901  18.301  0.00  0.00    +0.000 HD
ENDROOT
BRANCH   4   8
ATOM      8  C   UNL     1       1.907   7.810  19.433  0.00  0.00    +0.000 A 
ATOM      9  C   UNL     1       1.965   8.493  18.208  0.00  0.00    +0.000 A 
ATOM     10  C   UNL     1       1.487   9.802  18.093  0.00  0.00    +0.000 A 
ATOM     11  C   UNL     1       0.937  10.443  19.203  0.00  0.00    +0.000 A 
ATOM     12  C   UNL     1       0.869   9.776  20.424  0.00  0.00    +0.000 A 
ATOM     13  C   UNL     1       1.350   8.471  20.533  0.00  0.00    +0.000 A 
ATOM     14  F   UNL     1       1.238   7.861  21.723  0.00  0.00    +0.000 F 
ENDBRANCH   4   8
BRANCH   1  18
ATOM     15  C   UNL     1       7.059   4.951  15.034  0.00  0.00    +0.000 A 
ATOM     16  C   UNL     1       5.749   4.672  14.668  0.00  0.00    +0.000 A 
ATOM     17  C   UNL     1       4.817   4.336  15.658  0.00  0.00    +0.000 A 
ATOM     18  C   UNL     1       5.184   4.264  17.011  0.00  0.00    +0.000 A 
ATOM     19  C   UNL     1       6.507   4.582  17.345  0.00  0.00    +0.000 A 
ATOM     20  C   UNL     1       7.444   4.914  16.364  0.00  0.00    +0.000 A 
BRANCH  15  21
ATOM     21  O   UNL     1       8.009   5.268  14.110  0.00  0.00    +0.000 OA
ATOM     22  H   UNL     1       8.682   5.820  14.536  0.00  0.00    +0.000 HD
ENDBRANCH  15  21
ENDBRANCH   1  18
TORSDOF 3
ENDMDL
MODEL 7
REMARK VINA RESULT:      -7.5      1.055      1.507
REMARK  Name = 
REMARK  3 active torsions:
REMARK  status: ('A' for Active; 'I' for Inactive)
REMARK    1  A    between atoms: O_1  and  C_2
REMARK    2  A    between atoms: C_5  and  N_6
REMARK    3  A    between atoms: C_9  and  C_10
REMARK                            x       y       z     vdW  Elec       q    Type
REMARK                         _______ _______ _______ _____ _____    ______ ____
ROOT
ATOM      1  N   UNL     1       1.775   6.943  20.760  0.00  0.00    +0.000 N 
ATOM      2  C   UNL     1       2.520   5.919  20.274  0.00  0.00    +0.000 A 
ATOM      3  N   UNL     1       3.458   5.991  19.357  0.00  0.00    +0.000 NA
ATOM      4  C   UNL     1       3.979   4.748  19.061  0.00  0.00    +0.000 A 
ATOM      5  C   UNL     1       3.383   3.706  19.741  0.00  0.00    +0.000 A 
ATOM      6  S   UNL     1       2.226   4.316  20.849  0.00  0.00    +0.000 S 
ATOM      7  H   UNL     1       1.079   6.695  21.450  0.00  0.00    +0.000 HD
ENDROOT
BRANCH   4   8
ATOM      8  C   UNL     1       5.052   4.614  18.085  0.00  0.00    +0.000 A 
ATOM      9  C   UNL     1       6.366   4.945  18.452  0.00  0.00    +0.000 A 
ATOM     10  C   UNL     1       7.423   4.790  17.549  0.00  0.00    +0.000 A 
ATOM     11  C   UNL     1       7.180   4.295  16.269  0.00  0.00    +0.000 A 
ATOM     12  C   UNL     1       5.881   3.959  15.893  0.00  0.00    +0.000 A 
ATOM     13  C   UNL     1       4.830   4.118  16.795  0.00  0.00    +0.000 A 
ATOM     14  F   UNL     1       3.602   3.755  16.396  0.00  0.00    +0.000 F 
ENDBRANCH   4   8
BRANCH   1  18
ATOM     15  C   UNL     1       0.880  10.617  18.890  0.00  0.00    +0.000 A 
ATOM     16  C   UNL     1       0.527  10.401  20.216  0.00  0.00    +0.000 A 
ATOM     17  C   UNL     1       0.863   9.186  20.826  0.00  0.00    +0.000 A 
ATOM     18  C   UNL     1       1.538   8.177  20.119  0.00  0.00    +0.000 A 
ATOM     19  C   UNL     1       1.904   8.444  18.793  0.00  0.00    +0.000 A 
ATOM     20  C   UNL     1       1.571   9.652  18.176  0.00  0.00    +0.000 A 
BRANCH  15  21
ATOM     21  O   UNL     1       0.565  11.776  18.245  0.00  0.00    +0.000 OA
ATOM     22  H   UNL     1       1.298  12.011  17.657  0.00  0.00    +0.000 HD
ENDBRANCH  15  21
ENDBRANCH   1  18
TORSDOF 3
ENDMDL
MODEL 8
REMARK VINA RESULT:      -7.4      1.060      1.853
REMARK  Name = 
REMARK  3 active torsions:
REMARK  status: ('A' for Active; 'I' for Inactive)
REMARK    1  A    between atoms: O_1  and  C_2
REMARK    2  A    between atoms: C_5  and  N_6
REMARK    3  A    between atoms: C_9  and  C_10
REMARK                            x       y       z     vdW  Elec       q    Type
REMARK                         _______ _______ _______ _____ _____    ______ ____
ROOT
ATOM      1  N   UNL     1       1.745   6.956  20.753  0.00  0.00    +0.000 N 
ATOM      2  C   UNL     1       2.500   5.937  20.272  0.00  0.00    +0.000 A 
ATOM      3  N   UNL     1       3.439   6.014  19.357  0.00  0.00    +0.000 NA
ATOM      4  C   UNL     1       3.972   4.774  19.067  0.00  0.00    +0.000 A 
ATOM      5  C   UNL     1       3.385   3.730  19.751  0.00  0.00    +0.000 A 
ATOM      6  S   UNL     1       2.221   4.334  20.855  0.00  0.00    +0.000 S 
ATOM      7  H   UNL     1       1.050   6.705  21.443  0.00  0.00    +0.000 HD
ENDROOT
BRANCH   4   8
ATOM      8  C   UNL     1       5.048   4.646  18.094  0.00  0.00    +0.000 A 
ATOM      9  C   UNL     1       6.357   4.998  18.459  0.00  0.00    +0.000 A 
ATOM     10  C   UNL     1       7.417   4.849  17.559  0.00  0.00    +0.000 A 
ATOM     11  C   UNL     1       7.182   4.339  16.283  0.00  0.00    +0.000 A 
ATOM     12  C   UNL     1       5.888   3.981  15.909  0.00  0.00    +0.000 A 
ATOM     13  C   UNL     1       4.834   4.134  16.809  0.00  0.00    +0.000 A 
ATOM     14  F   UNL     1       3.612   3.751  16.412  0.00  0.00    +0.000 F 
ENDBRANCH   4   8
BRANCH   1  18
ATOM     15  C   UNL     1       1.189  10.634  18.763  0.00  0.00    +0.000 A 
ATOM     16  C   UNL     1       1.746   9.552  18.094  0.00  0.00    +0.000 A 
ATOM     17  C   UNL     1       1.891   8.332  18.765  0.00  0.00    +0.000 A 
ATOM     18  C   UNL     1       1.497   8.185  20.105  0.00  0.00    +0.000 A 
ATOM     19  C   UNL     1       0.910   9.289  20.736  0.00  0.00    +0.000 A 
ATOM     20  C   UNL     1       0.764  10.511  20.075  0.00  0.00    +0.000 A 
BRANCH  15  21
ATOM     21  O   UNL     1       1.038  11.848  18.161  0.00  0.00    +0.000 OA
ATOM     22  H   UNL     1       0.941  12.524  18.849  0.00  0.00    +0.000 HD
ENDBRANCH  15  21
ENDBRANCH   1  18
TORSDOF 3
ENDMDL
MODEL 9
REMARK VINA RESULT:      -7.1      4.302      5.665
REMARK  Name = 
REMARK  3 active torsions:
REMARK  status: ('A' for Active; 'I' for Inactive)
REMARK    1  A    between atoms: O_1  and  C_2
REMARK    2  A    between atoms: C_5  and  N_6
REMARK    3  A    between atoms: C_9  and  C_10
REMARK                            x       y       z     vdW  Elec       q    Type
REMARK                         _______ _______ _______ _____ _____    ______ ____
ROOT
ATOM      1  N   UNL     1       4.473   5.408  18.422  0.00  0.00    +0.000 N 
ATOM      2  C   UNL     1       5.405   5.415  17.437  0.00  0.00    +0.000 A 
ATOM      3  N   UNL     1       5.292   4.885  16.240  0.00  0.00    +0.000 NA
ATOM      4  C   UNL     1       6.452   5.031  15.506  0.00  0.00    +0.000 A 
ATOM      5  C   UNL     1       7.482   5.646  16.187  0.00  0.00    +0.000 A 
ATOM      6  S   UNL     1       6.943   6.145  17.736  0.00  0.00    +0.000 S 
ATOM      7  H   UNL     1       4.745   5.847  19.292  0.00  0.00    +0.000 HD
ENDROOT
BRANCH   4   8
ATOM      8  C   UNL     1       6.524   4.533  14.139  0.00  0.00    +0.000 A 
ATOM      9  C   UNL     1       5.545   3.641  13.675  0.00  0.00    +0.000 A 
ATOM     10  C   UNL     1       5.565   3.177  12.355  0.00  0.00    +0.000 A 
ATOM     11  C   UNL     1       6.562   3.605  11.481  0.00  0.00    +0.000 A 
ATOM     12  C   UNL     1       7.538   4.494  11.927  0.00  0.00    +0.000 A 
ATOM     13  C   UNL     1       7.515   4.952  13.244  0.00  0.00    +0.000 A 
ATOM     14  F   UNL     1       8.460   5.827  13.619  0.00  0.00    +0.000 F 
ENDBRANCH   4   8
BRANCH   1  18
ATOM     15  C   UNL     1       1.372   2.562  18.711  0.00  0.00    +0.000 A 
ATOM     16  C   UNL     1       2.619   2.299  19.263  0.00  0.00    +0.000 A 
ATOM     17  C   UNL     1       3.624   3.271  19.183  0.00  0.00    +0.000 A 
ATOM     18  C   UNL     1       3.399   4.502  18.545  0.00  0.00    +0.000 A 
ATOM     19  C   UNL     1       2.119   4.743  18.027  0.00  0.00    +0.000 A 
ATOM     20  C   UNL     1       1.112   3.777  18.100  0.00  0.00    +0.000 A 
BRANCH  15  21
ATOM     21  O   UNL     1       0.365   1.645  18.748  0.00  0.00    +0.000 OA
ATOM     22  H   UNL     1      -0.451   2.070  18.442  0.00  0.00    +0.000 HD
ENDBRANCH  15  21
ENDBRANCH   1  18
TORSDOF 3
ENDMDL
