MODEL 1
REMARK VINA RESULT:      -7.6      0.000      0.000
REMARK  Name = 
REMARK  1 active torsions:
REMARK  status: ('A' for Active; 'I' for Inactive)
REMARK    1  A    between atoms: N_11  and  C_12
REMARK                            x       y       z     vdW  Elec       q    Type
REMARK                         _______ _______ _______ _____ _____    ______ ____
ROOT
ATOM      1  O   UNL     1       5.867   5.019  19.667  0.00  0.00    +0.000 OA
ATOM      2  C   UNL     1       5.306   4.554  18.692  0.00  0.00    +0.000 C 
ATOM      3  C   UNL     1       5.896   4.612  17.346  0.00  0.00    +0.000 A 
ATOM      4  C   UNL     1       7.112   5.136  16.941  0.00  0.00    +0.000 A 
ATOM      5  C   UNL     1       7.433   5.047  15.583  0.00  0.00    +0.000 A 
ATOM      6  C   UNL     1       6.539   4.447  14.678  0.00  0.00    +0.000 A 
ATOM      7 CL   UNL     1       6.955   4.353  13.010  0.00  0.00    +0.000 Cl
ATOM      8  C   UNL     1       5.317   3.924  15.107  0.00  0.00    +0.000 A 
ATOM      9  C   UNL     1       5.012   4.014  16.454  0.00  0.00    +0.000 A 
ATOM     10  C   UNL     1       3.803   3.539  17.183  0.00  0.00    +0.000 C 
ATOM     11  N   UNL     1       4.075   3.901  18.567  0.00  0.00    +0.000 N 
ENDROOT
BRANCH  11  12
ATOM     12  C   UNL     1       3.183   3.557  19.615  0.00  0.00    +0.000 A 
ATOM     13  C   UNL     1       1.871   4.029  19.674  0.00  0.00    +0.000 A 
ATOM     14  C   UNL     1       1.046   3.689  20.750  0.00  0.00    +0.000 A 
ATOM     15  C   UNL     1       1.554   2.869  21.743  0.00  0.00    +0.000 A 
ATOM     16  N   UNL     1       2.806   2.375  21.727  0.00  0.00    +0.000 NA
ATOM     17  C   UNL     1       3.580   2.730  20.670  0.00  0.00    +0.000 A 
ENDBRANCH  11  12
TORSDOF 1
ENDMDL
MODEL 2
REMARK VINA RESULT:      -7.4      3.236      6.311
REMARK  Name = 
REMARK  1 active torsions:
REMARK  status: ('A' for Active; 'I' for Inactive)
REMARK    1  A    between atoms: N_11  and  C_12
REMARK                            x       y       z     vdW  Elec       q    Type
REMARK                         _______ _______ _______ _____ _____    ______ ____
ROOT
ATOM      1  O   UNL     1       3.961   6.901  17.537  0.00  0.00    +0.000 OA
ATOM      2  C   UNL     1       3.996   5.715  17.802  0.00  0.00    +0.000 C 
ATOM      3  C   UNL     1       3.206   5.132  18.899  0.00  0.00    +0.000 A 
ATOM      4  C   UNL     1       2.319   5.747  19.765  0.00  0.00    +0.000 A 
ATOM      5  C   UNL     1       1.687   4.943  20.719  0.00  0.00    +0.000 A 
ATOM      6  C   UNL     1       1.960   3.565  20.782  0.00  0.00    +0.000 A 
ATOM      7 CL   UNL     1       1.173   2.597  21.969  0.00  0.00    +0.000 Cl
ATOM      8  C   UNL     1       2.859   2.964  19.898  0.00  0.00    +0.000 A 
ATOM      9  C   UNL     1       3.475   3.769  18.955  0.00  0.00    +0.000 A 
ATOM     10  C   UNL     1       4.454   3.402  17.895  0.00  0.00    +0.000 C 
ATOM     11  N   UNL     1       4.713   4.665  17.219  0.00  0.00    +0.000 N 
ENDROOT
BRANCH  11  12
ATOM     12  C   UNL     1       5.559   4.740  16.081  0.00  0.00    +0.000 A 
ATOM     13  C   UNL     1       5.267   4.093  14.880  0.00  0.00    +0.000 A 
ATOM     14  C   UNL     1       6.154   4.169  13.802  0.00  0.00    +0.000 A 
ATOM     15  C   UNL     1       7.315   4.908  13.950  0.00  0.00    +0.000 A 
ATOM     16  N   UNL     1       7.637   5.563  15.081  0.00  0.00    +0.000 NA
ATOM     17  C   UNL     1       6.756   5.463  16.108  0.00  0.00    +0.000 A 
ENDBRANCH  11  12
TORSDOF 1
ENDMDL
MODEL 3
REMARK VINA RESULT:      -7.4      0.761      1.186
REMARK  Name = 
REMARK  1 active torsions:
REMARK  status: ('A' for Active; 'I' for Inactive)
REMARK    1  A    between atoms: N_11  and  C_12
REMARK                            x       y       z     vdW  Elec       q    Type
REMARK                         _______ _______ _______ _____ _____    ______ ____
ROOT
ATOM      1  O   UNL     1       6.034   4.833  19.487  0.00  0.00    +0.000 OA
ATOM      2  C   UNL     1       5.394   4.477  18.516  0.00  0.00    +0.000 C 
ATOM      3  C   UNL     1       5.946   4.523  17.153  0.00  0.00    +0.000 A 
ATOM      4  C   UNL     1       7.201   4.920  16.727  0.00  0.00    +0.000 A 
ATOM      5  C   UNL     1       7.469   4.852  15.356  0.00  0.00    +0.000 A 
ATOM      6  C   UNL     1       6.485   4.396  14.460  0.00  0.00    +0.000 A 
ATOM      7 CL   UNL     1       6.837   4.325  12.776  0.00  0.00    +0.000 Cl
ATOM      8  C   UNL     1       5.224   3.999  14.911  0.00  0.00    +0.000 A 
ATOM      9  C   UNL     1       4.972   4.067  16.271  0.00  0.00    +0.000 A 
ATOM     10  C   UNL     1       3.739   3.703  17.022  0.00  0.00    +0.000 C 
ATOM     11  N   UNL     1       4.093   3.974  18.408  0.00  0.00    +0.000 N 
ENDROOT
BRANCH  11  12
ATOM     12  C   UNL     1       3.198   3.691  19.473  0.00  0.00    +0.000 A 
ATOM     13  C   UNL     1       3.473   2.741  20.457  0.00  0.00    +0.000 A 
ATOM     14  C   UNL     1       2.539   2.475  21.463  0.00  0.00    +0.000 A 
ATOM     15  C   UNL     1       1.349   3.181  21.466  0.00  0.00    +0.000 A 
ATOM     16  N   UNL     1       1.040   4.118  20.551  0.00  0.00    +0.000 NA
ATOM     17  C   UNL     1       1.968   4.346  19.587  0.00  0.00    +0.000 A 
ENDBRANCH  11  12
TORSDOF 1
ENDMDL
MODEL 4
REMARK VINA RESULT:      -7.1      1.303      1.340
REMARK  Name = 
REMARK  1 active torsions:
REMARK  status: ('A' for Active; 'I' for Inactive)
REMARK    1  A    between atoms: N_11  and  C_12
REMARK                            x       y       z     vdW  Elec       q    Type
REMARK                         _______ _______ _______ _____ _____    ______ ____
ROOT
ATOM      1  O   UNL     1       3.237   6.405  18.632  0.00  0.00    +0.000 OA
ATOM      2  C   UNL     1       3.662   5.393  18.107  0.00  0.00    +0.000 C 
ATOM      3  C   UNL     1       4.526   5.430  16.916  0.00  0.00    +0.000 A 
ATOM      4  C   UNL     1       5.014   6.522  16.219  0.00  0.00    +0.000 A 
ATOM      5  C   UNL     1       5.835   6.268  15.115  0.00  0.00    +0.000 A 
ATOM      6  C   UNL     1       6.137   4.946  14.742  0.00  0.00    +0.000 A 
ATOM      7 CL   UNL     1       7.146   4.659  13.377  0.00  0.00    +0.000 Cl
ATOM      8  C   UNL     1       5.634   3.859  15.460  0.00  0.00    +0.000 A 
ATOM      9  C   UNL     1       4.827   4.122  16.553  0.00  0.00    +0.000 A 
ATOM     10  C   UNL     1       4.171   3.172  17.493  0.00  0.00    +0.000 C 
ATOM     11  N   UNL     1       3.482   4.045  18.433  0.00  0.00    +0.000 N 
ENDROOT
BRANCH  11  12
ATOM     12  C   UNL     1       2.776   3.526  19.550  0.00  0.00    +0.000 A 
ATOM     13  C   UNL     1       1.384   3.554  19.642  0.00  0.00    +0.000 A 
ATOM     14  C   UNL     1       0.741   3.063  20.782  0.00  0.00    +0.000 A 
ATOM     15  C   UNL     1       1.513   2.541  21.806  0.00  0.00    +0.000 A 
ATOM     16  N   UNL     1       2.857   2.477  21.761  0.00  0.00    +0.000 NA
ATOM     17  C   UNL     1       3.447   2.967  20.642  0.00  0.00    +0.000 A 
ENDBRANCH  11  12
TORSDOF 1
ENDMDL
MODEL 5
REMARK VINA RESULT:      -7.0      3.601      6.433
REMARK  Name = 
REMARK  1 active torsions:
REMARK  status: ('A' for Active; 'I' for Inactive)
REMARK    1  A    between atoms: N_11  and  C_12
REMARK                            x       y       z     vdW  Elec       q    Type
REMARK                         _______ _______ _______ _____ _____    ______ ____
ROOT
ATOM      1  O   UNL     1       4.115   3.366  18.312  0.00  0.00    +0.000 OA
ATOM      2  C   UNL     1       3.926   4.561  18.182  0.00  0.00    +0.000 C 
ATOM      3  C   UNL     1       3.052   5.320  19.090  0.00  0.00    +0.000 A 
ATOM      4  C   UNL     1       2.343   4.885  20.196  0.00  0.00    +0.000 A 
ATOM      5  C   UNL     1       1.590   5.833  20.895  0.00  0.00    +0.000 A 
ATOM      6  C   UNL     1       1.564   7.174  20.471  0.00  0.00    +0.000 A 
ATOM      7 CL   UNL     1       0.626   8.323  21.346  0.00  0.00    +0.000 Cl
ATOM      8  C   UNL     1       2.287   7.593  19.352  0.00  0.00    +0.000 A 
ATOM      9  C   UNL     1       3.032   6.646  18.671  0.00  0.00    +0.000 A 
ATOM     10  C   UNL     1       3.895   6.810  17.469  0.00  0.00    +0.000 C 
ATOM     11  N   UNL     1       4.421   5.471  17.243  0.00  0.00    +0.000 N 
ENDROOT
BRANCH  11  12
ATOM     12  C   UNL     1       5.359   5.205  16.211  0.00  0.00    +0.000 A 
ATOM     13  C   UNL     1       5.075   4.364  15.133  0.00  0.00    +0.000 A 
ATOM     14  C   UNL     1       6.049   4.107  14.164  0.00  0.00    +0.000 A 
ATOM     15  C   UNL     1       7.288   4.710  14.291  0.00  0.00    +0.000 A 
ATOM     16  N   UNL     1       7.608   5.540  15.301  0.00  0.00    +0.000 NA
ATOM     17  C   UNL     1       6.641   5.763  16.226  0.00  0.00    +0.000 A 
ENDBRANCH  11  12
TORSDOF 1
ENDMDL
MODEL 6
REMARK VINA RESULT:      -6.7      4.261      6.578
REMARK  Name = 
REMARK  1 active torsions:
REMARK  status: ('A' for Active; 'I' for Inactive)
REMARK    1  A    between atoms: N_11  and  C_12
REMARK                            x       y       z     vdW  Elec       q    Type
REMARK                         _______ _______ _______ _____ _____    ______ ____
ROOT
ATOM      1  O   UNL     1       3.731   4.996  19.781  0.00  0.00    +0.000 OA
ATOM      2  C   UNL     1       3.465   5.982  19.121  0.00  0.00    +0.000 C 
ATOM      3  C   UNL     1       2.508   7.000  19.583  0.00  0.00    +0.000 A 
ATOM      4  C   UNL     1       1.791   7.059  20.765  0.00  0.00    +0.000 A 
ATOM      5  C   UNL     1       0.949   8.160  20.956  0.00  0.00    +0.000 A 
ATOM      6  C   UNL     1       0.846   9.156  19.968  0.00  0.00    +0.000 A 
ATOM      7 CL   UNL     1      -0.200  10.499  20.223  0.00  0.00    +0.000 Cl
ATOM      8  C   UNL     1       1.579   9.077  18.782  0.00  0.00    +0.000 A 
ATOM      9  C   UNL     1       2.412   7.986  18.606  0.00  0.00    +0.000 A 
ATOM     10  C   UNL     1       3.305   7.653  17.463  0.00  0.00    +0.000 C 
ATOM     11  N   UNL     1       3.931   6.403  17.871  0.00  0.00    +0.000 N 
ENDROOT
BRANCH  11  12
ATOM     12  C   UNL     1       4.921   5.772  17.074  0.00  0.00    +0.000 A 
ATOM     13  C   UNL     1       4.732   4.520  16.487  0.00  0.00    +0.000 A 
ATOM     14  C   UNL     1       5.756   3.927  15.743  0.00  0.00    +0.000 A 
ATOM     15  C   UNL     1       6.950   4.612  15.593  0.00  0.00    +0.000 A 
ATOM     16  N   UNL     1       7.179   5.826  16.125  0.00  0.00    +0.000 NA
ATOM     17  C   UNL     1       6.165   6.369  16.846  0.00  0.00    +0.000 A 
ENDBRANCH  11  12
TORSDOF 1
ENDMDL
MODEL 7
REMARK VINA RESULT:      -6.6      5.421      7.316
REMARK  Name = 
REMARK  1 active torsions:
REMARK  status: ('A' for Active; 'I' for Inactive)
REMARK    1  A    between atoms: N_11  and  C_12
REMARK                            x       y       z     vdW  Elec       q    Type
REMARK                         _______ _______ _______ _____ _____    ______ ____
ROOT
ATOM      1  O   UNL     1       2.235   8.926  17.242  0.00  0.00    +0.000 OA
ATOM      2  C   UNL     1       2.069   8.409  18.331  0.00  0.00    +0.000 C 
ATOM      3  C   UNL     1       1.341   9.082  19.417  0.00  0.00    +0.000 A 
ATOM      4  C   UNL     1       0.725  10.321  19.425  0.00  0.00    +0.000 A 
ATOM      5  C   UNL     1       0.085  10.717  20.605  0.00  0.00    +0.000 A 
ATOM      6  C   UNL     1       0.083   9.874  21.730  0.00  0.00    +0.000 A 
ATOM      7 CL   UNL     1      -0.707  10.384  23.172  0.00  0.00    +0.000 Cl
ATOM      8  C   UNL     1       0.711   8.626  21.701  0.00  0.00    +0.000 A 
ATOM      9  C   UNL     1       1.337   8.244  20.527  0.00  0.00    +0.000 A 
ATOM     10  C   UNL     1       2.064   6.984  20.212  0.00  0.00    +0.000 C 
ATOM     11  N   UNL     1       2.472   7.164  18.826  0.00  0.00    +0.000 N 
ENDROOT
BRANCH  11  12
ATOM     12  C   UNL     1       3.148   6.141  18.110  0.00  0.00    +0.000 A 
ATOM     13  C   UNL     1       2.611   4.865  17.931  0.00  0.00    +0.000 A 
ATOM     14  C   UNL     1       3.336   3.883  17.250  0.00  0.00    +0.000 A 
ATOM     15  C   UNL     1       4.585   4.208  16.749  0.00  0.00    +0.000 A 
ATOM     16  N   UNL     1       5.142   5.426  16.881  0.00  0.00    +0.000 NA
ATOM     17  C   UNL     1       4.412   6.353  17.552  0.00  0.00    +0.000 A 
ENDBRANCH  11  12
TORSDOF 1
ENDMDL
MODEL 8
REMARK VINA RESULT:      -6.6      1.427      1.721
REMARK  Name = 
REMARK  1 active torsions:
REMARK  status: ('A' for Active; 'I' for Inactive)
REMARK    1  A    between atoms: N_11  and  C_12
REMARK                            x       y       z     vdW  Elec       q    Type
REMARK                         _______ _______ _______ _____ _____    ______ ____
ROOT
ATOM      1  O   UNL     1       3.428   6.482  18.481  0.00  0.00    +0.000 OA
ATOM      2  C   UNL     1       3.784   5.440  17.964  0.00  0.00    +0.000 C 
ATOM      3  C   UNL     1       4.627   5.410  16.758  0.00  0.00    +0.000 A 
ATOM      4  C   UNL     1       5.164   6.461  16.036  0.00  0.00    +0.000 A 
ATOM      5  C   UNL     1       5.949   6.145  14.922  0.00  0.00    +0.000 A 
ATOM      6  C   UNL     1       6.167   4.803  14.563  0.00  0.00    +0.000 A 
ATOM      7 CL   UNL     1       7.133   4.439  13.185  0.00  0.00    +0.000 Cl
ATOM      8  C   UNL     1       5.615   3.757  15.306  0.00  0.00    +0.000 A 
ATOM      9  C   UNL     1       4.844   4.082  16.409  0.00  0.00    +0.000 A 
ATOM     10  C   UNL     1       4.152   3.185  17.374  0.00  0.00    +0.000 C 
ATOM     11  N   UNL     1       3.532   4.109  18.313  0.00  0.00    +0.000 N 
ENDROOT
BRANCH  11  12
ATOM     12  C   UNL     1       2.818   3.648  19.450  0.00  0.00    +0.000 A 
ATOM     13  C   UNL     1       3.429   2.952  20.494  0.00  0.00    +0.000 A 
ATOM     14  C   UNL     1       2.670   2.488  21.572  0.00  0.00    +0.000 A 
ATOM     15  C   UNL     1       1.310   2.743  21.586  0.00  0.00    +0.000 A 
ATOM     16  N   UNL     1       0.674   3.421  20.612  0.00  0.00    +0.000 NA
ATOM     17  C   UNL     1       1.440   3.852  19.579  0.00  0.00    +0.000 A 
ENDBRANCH  11  12
TORSDOF 1
ENDMDL
MODEL 9
REMARK VINA RESULT:      -6.6      5.476      7.424
REMARK  Name = 
REMARK  1 active torsions:
REMARK  status: ('A' for Active; 'I' for Inactive)
REMARK    1  A    between atoms: N_11  and  C_12
REMARK                            x       y       z     vdW  Elec       q    Type
REMARK                         _______ _______ _______ _____ _____    ______ ____
ROOT
ATOM      1  O   UNL     1       2.183   9.107  17.246  0.00  0.00    +0.000 OA
ATOM      2  C   UNL     1       2.045   8.565  18.326  0.00  0.00    +0.000 C 
ATOM      3  C   UNL     1       1.279   9.182  19.421  0.00  0.00    +0.000 A 
ATOM      4  C   UNL     1       0.597  10.386  19.446  0.00  0.00    +0.000 A 
ATOM      5  C   UNL     1      -0.065  10.729  20.630  0.00  0.00    +0.000 A 
ATOM      6  C   UNL     1      -0.022   9.870  21.743  0.00  0.00    +0.000 A 
ATOM      7 CL   UNL     1      -0.840  10.316  23.191  0.00  0.00    +0.000 Cl
ATOM      8  C   UNL     1       0.672   8.659  21.696  0.00  0.00    +0.000 A 
ATOM      9  C   UNL     1       1.320   8.329  20.518  0.00  0.00    +0.000 A 
ATOM     10  C   UNL     1       2.115   7.115  20.186  0.00  0.00    +0.000 C 
ATOM     11  N   UNL     1       2.514   7.337  18.804  0.00  0.00    +0.000 N 
ENDROOT
BRANCH  11  12
ATOM     12  C   UNL     1       3.245   6.363  18.074  0.00  0.00    +0.000 A 
ATOM     13  C   UNL     1       4.445   6.652  17.423  0.00  0.00    +0.000 A 
ATOM     14  C   UNL     1       5.104   5.663  16.686  0.00  0.00    +0.000 A 
ATOM     15  C   UNL     1       4.549   4.396  16.630  0.00  0.00    +0.000 A 
ATOM     16  N   UNL     1       3.403   4.062  17.252  0.00  0.00    +0.000 NA
ATOM     17  C   UNL     1       2.787   5.047  17.953  0.00  0.00    +0.000 A 
ENDBRANCH  11  12
TORSDOF 1
ENDMDL
