MODEL 1
REMARK VINA RESULT:      -7.7      0.000      0.000
REMARK  Name = 
REMARK  8 active torsions:
REMARK  status: ('A' for Active; 'I' for Inactive)
REMARK    1  A    between atoms: C_1  and  N_2
REMARK    2  A    between atoms: N_2  and  C_3
REMARK    3  A    between atoms: N_2  and  S_9
REMARK    4  A    between atoms: S_9  and  C_12
REMARK    5  A    between atoms: C_15  and  C_16
REMARK    6  A    between atoms: C_16  and  C_17
REMARK    7  A    between atoms: C_16  and  C_18
REMARK    8  A    between atoms: C_16  and  C_19
REMARK                            x       y       z     vdW  Elec       q    Type
REMARK                         _______ _______ _______ _____ _____    ______ ____
ROOT
ATOM      1  S   UNL     1       6.900   5.221  17.011  0.00  0.00    +0.000 S 
ATOM      2  O   UNL     1       7.769   4.108  16.696  0.00  0.00    +0.000 OA
ATOM      3  O   UNL     1       7.400   6.352  17.771  0.00  0.00    +0.000 OA
ENDROOT
BRANCH   1   4
ATOM      4  C   UNL     1       5.527   4.568  17.954  0.00  0.00    +0.000 A 
ATOM      5  C   UNL     1       5.193   5.193  19.153  0.00  0.00    +0.000 A 
ATOM      6  C   UNL     1       4.052   4.800  19.860  0.00  0.00    +0.000 A 
ATOM      7  C   UNL     1       3.221   3.757  19.411  0.00  0.00    +0.000 A 
ATOM      8  C   UNL     1       3.598   3.114  18.212  0.00  0.00    +0.000 A 
ATOM      9  C   UNL     1       4.726   3.529  17.476  0.00  0.00    +0.000 A 
BRANCH   7  10
ATOM     10  C   UNL     1       1.935   3.358  20.163  0.00  0.00    +0.000 C 
ATOM     11  C   UNL     1       1.010   4.565  20.460  0.00  0.00    +0.000 C 
ATOM     12  C   UNL     1       1.114   2.356  19.319  0.00  0.00    +0.000 C 
ATOM     13  C   UNL     1       2.270   2.702  21.519  0.00  0.00    +0.000 C 
ENDBRANCH   7  10
ENDBRANCH   1   4
BRANCH   1  15
ATOM     14  C   UNL     1       5.142   6.749  15.621  0.00  0.00    +0.000 C 
ATOM     15  N   UNL     1       6.259   5.807  15.553  0.00  0.00    +0.000 N 
BRANCH  15  16
ATOM     16  C   UNL     1       6.476   5.055  14.358  0.00  0.00    +0.000 A 
ATOM     17  C   UNL     1       7.573   5.315  13.537  0.00  0.00    +0.000 A 
ATOM     18  C   UNL     1       7.717   4.634  12.327  0.00  0.00    +0.000 A 
ATOM     19  C   UNL     1       6.782   3.671  11.951  0.00  0.00    +0.000 A 
ATOM     20  C   UNL     1       5.715   3.370  12.796  0.00  0.00    +0.000 A 
ATOM     21  C   UNL     1       5.557   4.067  13.996  0.00  0.00    +0.000 A 
ENDBRANCH  15  16
ENDBRANCH   1  15
TORSDOF 4
ENDMDL
MODEL 2
REMARK VINA RESULT:      -7.5      1.392      2.376
REMARK  Name = 
REMARK  8 active torsions:
REMARK  status: ('A' for Active; 'I' for Inactive)
REMARK    1  A    between atoms: C_1  and  N_2
REMARK    2  A    between atoms: N_2  and  C_3
REMARK    3  A    between atoms: N_2  and  S_9
REMARK    4  A    between atoms: S_9  and  C_12
REMARK    5  A    between atoms: C_15  and  C_16
REMARK    6  A    between atoms: C_16  and  C_17
REMARK    7  A    between atoms: C_16  and  C_18
REMARK    8  A    between atoms: C_16  and  C_19
REMARK                            x       y       z     vdW  Elec       q    Type
REMARK                         _______ _______ _______ _____ _____    ______ ____
ROOT
ATOM      1  S   UNL     1       5.653   6.284  16.342  0.00  0.00    +0.000 S 
ATOM      2  O   UNL     1       6.398   7.119  17.258  0.00  0.00    +0.000 OA
ATOM      3  O   UNL     1       5.020   6.860  15.170  0.00  0.00    +0.000 OA
ENDROOT
BRANCH   1   4
ATOM      4  C   UNL     1       4.338   5.514  17.280  0.00  0.00    +0.000 A 
ATOM      5  C   UNL     1       4.158   4.138  17.157  0.00  0.00    +0.000 A 
ATOM      6  C   UNL     1       3.230   3.473  17.964  0.00  0.00    +0.000 A 
ATOM      7  C   UNL     1       2.432   4.158  18.900  0.00  0.00    +0.000 A 
ATOM      8  C   UNL     1       2.606   5.556  18.982  0.00  0.00    +0.000 A 
ATOM      9  C   UNL     1       3.565   6.227  18.197  0.00  0.00    +0.000 A 
BRANCH   7  10
ATOM     10  C   UNL     1       1.444   3.418  19.825  0.00  0.00    +0.000 C 
ATOM     11  C   UNL     1       2.155   2.564  20.907  0.00  0.00    +0.000 C 
ATOM     12  C   UNL     1       0.548   4.435  20.569  0.00  0.00    +0.000 C 
ATOM     13  C   UNL     1       0.542   2.463  19.018  0.00  0.00    +0.000 C 
ENDBRANCH   7  10
ENDBRANCH   1   4
BRANCH   1  15
ATOM     14  C   UNL     1       7.788   4.649  16.700  0.00  0.00    +0.000 C 
ATOM     15  N   UNL     1       6.681   5.036  15.825  0.00  0.00    +0.000 N 
BRANCH  15  16
ATOM     16  C   UNL     1       6.747   4.736  14.430  0.00  0.00    +0.000 A 
ATOM     17  C   UNL     1       5.897   3.786  13.862  0.00  0.00    +0.000 A 
ATOM     18  C   UNL     1       6.039   3.439  12.517  0.00  0.00    +0.000 A 
ATOM     19  C   UNL     1       7.008   4.063  11.732  0.00  0.00    +0.000 A 
ATOM     20  C   UNL     1       7.821   5.052  12.284  0.00  0.00    +0.000 A 
ATOM     21  C   UNL     1       7.695   5.383  13.635  0.00  0.00    +0.000 A 
ENDBRANCH  15  16
ENDBRANCH   1  15
TORSDOF 4
ENDMDL
MODEL 3
REMARK VINA RESULT:      -7.5      0.085      1.057
REMARK  Name = 
REMARK  8 active torsions:
REMARK  status: ('A' for Active; 'I' for Inactive)
REMARK    1  A    between atoms: C_1  and  N_2
REMARK    2  A    between atoms: N_2  and  C_3
REMARK    3  A    between atoms: N_2  and  S_9
REMARK    4  A    between atoms: S_9  and  C_12
REMARK    5  A    between atoms: C_15  and  C_16
REMARK    6  A    between atoms: C_16  and  C_17
REMARK    7  A    between atoms: C_16  and  C_18
REMARK    8  A    between atoms: C_16  and  C_19
REMARK                            x       y       z     vdW  Elec       q    Type
REMARK                         _______ _______ _______ _____ _____    ______ ____
ROOT
ATOM      1  S   UNL     1       6.880   5.171  16.970  0.00  0.00    +0.000 S 
ATOM      2  O   UNL     1       7.722   4.054  16.603  0.00  0.00    +0.000 OA
ATOM      3  O   UNL     1       7.417   6.271  17.751  0.00  0.00    +0.000 OA
ENDROOT
BRANCH   1   4
ATOM      4  C   UNL     1       5.517   4.514  17.924  0.00  0.00    +0.000 A 
ATOM      5  C   UNL     1       5.236   5.093  19.159  0.00  0.00    +0.000 A 
ATOM      6  C   UNL     1       4.106   4.700  19.882  0.00  0.00    +0.000 A 
ATOM      7  C   UNL     1       3.233   3.702  19.413  0.00  0.00    +0.000 A 
ATOM      8  C   UNL     1       3.555   3.103  18.176  0.00  0.00    +0.000 A 
ATOM      9  C   UNL     1       4.673   3.520  17.425  0.00  0.00    +0.000 A 
BRANCH   7  10
ATOM     10  C   UNL     1       1.958   3.304  20.186  0.00  0.00    +0.000 C 
ATOM     11  C   UNL     1       1.022   4.507  20.465  0.00  0.00    +0.000 C 
ATOM     12  C   UNL     1       1.141   2.274  19.371  0.00  0.00    +0.000 C 
ATOM     13  C   UNL     1       2.313   2.682  21.552  0.00  0.00    +0.000 C 
ENDBRANCH   7  10
ENDBRANCH   1   4
BRANCH   1  15
ATOM     14  C   UNL     1       5.133   6.787  15.666  0.00  0.00    +0.000 C 
ATOM     15  N   UNL     1       6.218   5.811  15.544  0.00  0.00    +0.000 N 
BRANCH  15  16
ATOM     16  C   UNL     1       6.376   5.081  14.327  0.00  0.00    +0.000 A 
ATOM     17  C   UNL     1       5.453   4.105  13.953  0.00  0.00    +0.000 A 
ATOM     18  C   UNL     1       5.673   3.338  12.807  0.00  0.00    +0.000 A 
ATOM     19  C   UNL     1       6.800   3.567  12.018  0.00  0.00    +0.000 A 
ATOM     20  C   UNL     1       7.695   4.580  12.360  0.00  0.00    +0.000 A 
ATOM     21  C   UNL     1       7.487   5.332  13.519  0.00  0.00    +0.000 A 
ENDBRANCH  15  16
ENDBRANCH   1  15
TORSDOF 4
ENDMDL
MODEL 4
REMARK VINA RESULT:      -7.4      1.386      1.928
REMARK  Name = 
REMARK  8 active torsions:
REMARK  status: ('A' for Active; 'I' for Inactive)
REMARK    1  A    between atoms: C_1  and  N_2
REMARK    2  A    between atoms: N_2  and  C_3
REMARK    3  A    between atoms: N_2  and  S_9
REMARK    4  A    between atoms: S_9  and  C_12
REMARK    5  A    between atoms: C_15  and  C_16
REMARK    6  A    between atoms: C_16  and  C_17
REMARK    7  A    between atoms: C_16  and  C_18
REMARK    8  A    between atoms: C_16  and  C_19
REMARK                            x       y       z     vdW  Elec       q    Type
REMARK                         _______ _______ _______ _____ _____    ______ ____
ROOT
ATOM      1  S   UNL     1       5.686   6.276  16.261  0.00  0.00    +0.000 S 
ATOM      2  O   UNL     1       6.427   7.173  17.121  0.00  0.00    +0.000 OA
ATOM      3  O   UNL     1       5.034   6.777  15.065  0.00  0.00    +0.000 OA
ENDROOT
BRANCH   1   4
ATOM      4  C   UNL     1       4.391   5.543  17.254  0.00  0.00    +0.000 A 
ATOM      5  C   UNL     1       4.001   4.237  16.969  0.00  0.00    +0.000 A 
ATOM      6  C   UNL     1       3.086   3.577  17.795  0.00  0.00    +0.000 A 
ATOM      7  C   UNL     1       2.510   4.204  18.916  0.00  0.00    +0.000 A 
ATOM      8  C   UNL     1       2.893   5.539  19.166  0.00  0.00    +0.000 A 
ATOM      9  C   UNL     1       3.841   6.197  18.358  0.00  0.00    +0.000 A 
BRANCH   7  10
ATOM     10  C   UNL     1       1.539   3.460  19.857  0.00  0.00    +0.000 C 
ATOM     11  C   UNL     1       0.554   4.412  20.582  0.00  0.00    +0.000 C 
ATOM     12  C   UNL     1       0.685   2.453  19.051  0.00  0.00    +0.000 C 
ATOM     13  C   UNL     1       2.309   2.691  20.949  0.00  0.00    +0.000 C 
ENDBRANCH   7  10
ENDBRANCH   1   4
BRANCH   1  15
ATOM     14  C   UNL     1       7.751   4.589  16.760  0.00  0.00    +0.000 C 
ATOM     15  N   UNL     1       6.728   5.016  15.806  0.00  0.00    +0.000 N 
BRANCH  15  16
ATOM     16  C   UNL     1       6.901   4.739  14.415  0.00  0.00    +0.000 A 
ATOM     17  C   UNL     1       7.803   5.474  13.646  0.00  0.00    +0.000 A 
ATOM     18  C   UNL     1       7.890   5.251  12.270  0.00  0.00    +0.000 A 
ATOM     19  C   UNL     1       7.099   4.273  11.668  0.00  0.00    +0.000 A 
ATOM     20  C   UNL     1       6.237   3.499  12.445  0.00  0.00    +0.000 A 
ATOM     21  C   UNL     1       6.132   3.738  13.817  0.00  0.00    +0.000 A 
ENDBRANCH  15  16
ENDBRANCH   1  15
TORSDOF 4
ENDMDL
MODEL 5
REMARK VINA RESULT:      -7.2      3.563      6.437
REMARK  Name = 
REMARK  8 active torsions:
REMARK  status: ('A' for Active; 'I' for Inactive)
REMARK    1  A    between atoms: C_1  and  N_2
REMARK    2  A    between atoms: N_2  and  C_3
REMARK    3  A    between atoms: N_2  and  S_9
REMARK    4  A    between atoms: S_9  and  C_12
REMARK    5  A    between atoms: C_15  and  C_16
REMARK    6  A    between atoms: C_16  and  C_17
REMARK    7  A    between atoms: C_16  and  C_18
REMARK    8  A    between atoms: C_16  and  C_19
REMARK                            x       y       z     vdW  Elec       q    Type
REMARK                         _______ _______ _______ _____ _____    ______ ____
ROOT
ATOM      1  S   UNL     1       4.577   5.527  18.421  0.00  0.00    +0.000 S 
ATOM      2  O   UNL     1       5.278   5.468  19.685  0.00  0.00    +0.000 OA
ATOM      3  O   UNL     1       5.293   5.842  17.198  0.00  0.00    +0.000 OA
ENDROOT
BRANCH   1   4
ATOM      4  C   UNL     1       3.307   6.776  18.580  0.00  0.00    +0.000 A 
ATOM      5  C   UNL     1       2.641   6.889  19.798  0.00  0.00    +0.000 A 
ATOM      6  C   UNL     1       1.732   7.930  20.012  0.00  0.00    +0.000 A 
ATOM      7  C   UNL     1       1.437   8.876  19.014  0.00  0.00    +0.000 A 
ATOM      8  C   UNL     1       2.096   8.722  17.775  0.00  0.00    +0.000 A 
ATOM      9  C   UNL     1       3.040   7.696  17.566  0.00  0.00    +0.000 A 
BRANCH   7  10
ATOM     10  C   UNL     1       0.473  10.054  19.266  0.00  0.00    +0.000 C 
ATOM     11  C   UNL     1       1.188  11.429  19.271  0.00  0.00    +0.000 C 
ATOM     12  C   UNL     1      -0.603  10.108  18.156  0.00  0.00    +0.000 C 
ATOM     13  C   UNL     1      -0.233   9.908  20.630  0.00  0.00    +0.000 C 
ENDBRANCH   7  10
ENDBRANCH   1   4
BRANCH   1  15
ATOM     14  C   UNL     1       3.622   3.546  16.833  0.00  0.00    +0.000 C 
ATOM     15  N   UNL     1       3.782   4.044  18.199  0.00  0.00    +0.000 N 
BRANCH  15  16
ATOM     16  C   UNL     1       2.910   3.573  19.228  0.00  0.00    +0.000 A 
ATOM     17  C   UNL     1       1.525   3.666  19.091  0.00  0.00    +0.000 A 
ATOM     18  C   UNL     1       0.692   3.286  20.145  0.00  0.00    +0.000 A 
ATOM     19  C   UNL     1       1.241   2.785  21.325  0.00  0.00    +0.000 A 
ATOM     20  C   UNL     1       2.622   2.640  21.443  0.00  0.00    +0.000 A 
ATOM     21  C   UNL     1       3.458   3.041  20.398  0.00  0.00    +0.000 A 
ENDBRANCH  15  16
ENDBRANCH   1  15
TORSDOF 4
ENDMDL
MODEL 6
REMARK VINA RESULT:      -7.2      0.208      1.403
REMARK  Name = 
REMARK  8 active torsions:
REMARK  status: ('A' for Active; 'I' for Inactive)
REMARK    1  A    between atoms: C_1  and  N_2
REMARK    2  A    between atoms: N_2  and  C_3
REMARK    3  A    between atoms: N_2  and  S_9
REMARK    4  A    between atoms: S_9  and  C_12
REMARK    5  A    between atoms: C_15  and  C_16
REMARK    6  A    between atoms: C_16  and  C_17
REMARK    7  A    between atoms: C_16  and  C_18
REMARK    8  A    between atoms: C_16  and  C_19
REMARK                            x       y       z     vdW  Elec       q    Type
REMARK                         _______ _______ _______ _____ _____    ______ ____
ROOT
ATOM      1  S   UNL     1       6.826   5.236  16.932  0.00  0.00    +0.000 S 
ATOM      2  O   UNL     1       7.599   4.041  16.673  0.00  0.00    +0.000 OA
ATOM      3  O   UNL     1       7.406   6.339  17.676  0.00  0.00    +0.000 OA
ENDROOT
BRANCH   1   4
ATOM      4  C   UNL     1       5.374   4.736  17.849  0.00  0.00    +0.000 A 
ATOM      5  C   UNL     1       4.664   3.622  17.405  0.00  0.00    +0.000 A 
ATOM      6  C   UNL     1       3.600   3.118  18.159  0.00  0.00    +0.000 A 
ATOM      7  C   UNL     1       3.190   3.719  19.363  0.00  0.00    +0.000 A 
ATOM      8  C   UNL     1       3.901   4.867  19.776  0.00  0.00    +0.000 A 
ATOM      9  C   UNL     1       4.997   5.359  19.039  0.00  0.00    +0.000 A 
BRANCH   7  10
ATOM     10  C   UNL     1       2.049   3.133  20.220  0.00  0.00    +0.000 C 
ATOM     11  C   UNL     1       2.536   2.602  21.593  0.00  0.00    +0.000 C 
ATOM     12  C   UNL     1       0.987   4.220  20.507  0.00  0.00    +0.000 C 
ATOM     13  C   UNL     1       1.366   1.954  19.498  0.00  0.00    +0.000 C 
ENDBRANCH   7  10
ENDBRANCH   1   4
BRANCH   1  15
ATOM     14  C   UNL     1       5.208   6.829  15.448  0.00  0.00    +0.000 C 
ATOM     15  N   UNL     1       6.282   5.835  15.440  0.00  0.00    +0.000 N 
BRANCH  15  16
ATOM     16  C   UNL     1       6.518   5.060  14.263  0.00  0.00    +0.000 A 
ATOM     17  C   UNL     1       7.619   5.318  13.446  0.00  0.00    +0.000 A 
ATOM     18  C   UNL     1       7.782   4.613  12.252  0.00  0.00    +0.000 A 
ATOM     19  C   UNL     1       6.862   3.630  11.889  0.00  0.00    +0.000 A 
ATOM     20  C   UNL     1       5.792   3.333  12.731  0.00  0.00    +0.000 A 
ATOM     21  C   UNL     1       5.615   4.054  13.915  0.00  0.00    +0.000 A 
ENDBRANCH  15  16
ENDBRANCH   1  15
TORSDOF 4
ENDMDL
MODEL 7
REMARK VINA RESULT:      -7.2      4.021      5.592
REMARK  Name = 
REMARK  8 active torsions:
REMARK  status: ('A' for Active; 'I' for Inactive)
REMARK    1  A    between atoms: C_1  and  N_2
REMARK    2  A    between atoms: N_2  and  C_3
REMARK    3  A    between atoms: N_2  and  S_9
REMARK    4  A    between atoms: S_9  and  C_12
REMARK    5  A    between atoms: C_15  and  C_16
REMARK    6  A    between atoms: C_16  and  C_17
REMARK    7  A    between atoms: C_16  and  C_18
REMARK    8  A    between atoms: C_16  and  C_19
REMARK                            x       y       z     vdW  Elec       q    Type
REMARK                         _______ _______ _______ _____ _____    ______ ____
ROOT
ATOM      1  S   UNL     1       3.392   4.827  18.343  0.00  0.00    +0.000 S 
ATOM      2  O   UNL     1       2.356   4.115  17.627  0.00  0.00    +0.000 OA
ATOM      3  O   UNL     1       3.914   4.304  19.593  0.00  0.00    +0.000 OA
ENDROOT
BRANCH   1   4
ATOM      4  C   UNL     1       2.748   6.453  18.723  0.00  0.00    +0.000 A 
ATOM      5  C   UNL     1       2.627   7.373  17.685  0.00  0.00    +0.000 A 
ATOM      6  C   UNL     1       2.012   8.610  17.907  0.00  0.00    +0.000 A 
ATOM      7  C   UNL     1       1.522   8.980  19.173  0.00  0.00    +0.000 A 
ATOM      8  C   UNL     1       1.688   8.046  20.218  0.00  0.00    +0.000 A 
ATOM      9  C   UNL     1       2.274   6.785  19.993  0.00  0.00    +0.000 A 
BRANCH   7  10
ATOM     10  C   UNL     1       0.799  10.323  19.406  0.00  0.00    +0.000 C 
ATOM     11  C   UNL     1      -0.665  10.316  18.897  0.00  0.00    +0.000 C 
ATOM     12  C   UNL     1       0.750  10.645  20.918  0.00  0.00    +0.000 C 
ATOM     13  C   UNL     1       1.524  11.474  18.679  0.00  0.00    +0.000 C 
ENDBRANCH   7  10
ENDBRANCH   1   4
BRANCH   1  15
ATOM     14  C   UNL     1       4.829   4.134  16.149  0.00  0.00    +0.000 C 
ATOM     15  N   UNL     1       4.696   5.052  17.281  0.00  0.00    +0.000 N 
BRANCH  15  16
ATOM     16  C   UNL     1       5.840   5.773  17.742  0.00  0.00    +0.000 A 
ATOM     17  C   UNL     1       6.213   6.980  17.149  0.00  0.00    +0.000 A 
ATOM     18  C   UNL     1       7.385   7.622  17.552  0.00  0.00    +0.000 A 
ATOM     19  C   UNL     1       8.169   7.076  18.568  0.00  0.00    +0.000 A 
ATOM     20  C   UNL     1       7.768   5.899  19.199  0.00  0.00    +0.000 A 
ATOM     21  C   UNL     1       6.608   5.244  18.781  0.00  0.00    +0.000 A 
ENDBRANCH  15  16
ENDBRANCH   1  15
TORSDOF 4
ENDMDL
MODEL 8
REMARK VINA RESULT:      -7.1      3.646      6.536
REMARK  Name = 
REMARK  8 active torsions:
REMARK  status: ('A' for Active; 'I' for Inactive)
REMARK    1  A    between atoms: C_1  and  N_2
REMARK    2  A    between atoms: N_2  and  C_3
REMARK    3  A    between atoms: N_2  and  S_9
REMARK    4  A    between atoms: S_9  and  C_12
REMARK    5  A    between atoms: C_15  and  C_16
REMARK    6  A    between atoms: C_16  and  C_17
REMARK    7  A    between atoms: C_16  and  C_18
REMARK    8  A    between atoms: C_16  and  C_19
REMARK                            x       y       z     vdW  Elec       q    Type
REMARK                         _______ _______ _______ _____ _____    ______ ____
ROOT
ATOM      1  S   UNL     1       4.420   5.549  18.286  0.00  0.00    +0.000 S 
ATOM      2  O   UNL     1       5.223   5.521  19.489  0.00  0.00    +0.000 OA
ATOM      3  O   UNL     1       5.038   5.799  16.996  0.00  0.00    +0.000 OA
ENDROOT
BRANCH   1   4
ATOM      4  C   UNL     1       3.194   6.834  18.499  0.00  0.00    +0.000 A 
ATOM      5  C   UNL     1       2.582   6.962  19.743  0.00  0.00    +0.000 A 
ATOM      6  C   UNL     1       1.713   8.028  19.996  0.00  0.00    +0.000 A 
ATOM      7  C   UNL     1       1.405   8.986  19.013  0.00  0.00    +0.000 A 
ATOM      8  C   UNL     1       2.009   8.817  17.748  0.00  0.00    +0.000 A 
ATOM      9  C   UNL     1       2.913   7.765  17.498  0.00  0.00    +0.000 A 
BRANCH   7  10
ATOM     10  C   UNL     1       0.487  10.190  19.307  0.00  0.00    +0.000 C 
ATOM     11  C   UNL     1      -0.737  10.260  18.358  0.00  0.00    +0.000 C 
ATOM     12  C   UNL     1      -0.064  10.099  20.749  0.00  0.00    +0.000 C 
ATOM     13  C   UNL     1       1.253  11.519  19.153  0.00  0.00    +0.000 C 
ENDBRANCH   7  10
ENDBRANCH   1   4
BRANCH   1  15
ATOM     14  C   UNL     1       3.260   3.552  16.863  0.00  0.00    +0.000 C 
ATOM     15  N   UNL     1       3.578   4.078  18.190  0.00  0.00    +0.000 N 
BRANCH  15  16
ATOM     16  C   UNL     1       2.816   3.650  19.320  0.00  0.00    +0.000 A 
ATOM     17  C   UNL     1       3.442   3.101  20.439  0.00  0.00    +0.000 A 
ATOM     18  C   UNL     1       2.675   2.604  21.494  0.00  0.00    +0.000 A 
ATOM     19  C   UNL     1       1.283   2.683  21.445  0.00  0.00    +0.000 A 
ATOM     20  C   UNL     1       0.658   3.281  20.353  0.00  0.00    +0.000 A 
ATOM     21  C   UNL     1       1.424   3.758  19.286  0.00  0.00    +0.000 A 
ENDBRANCH  15  16
ENDBRANCH   1  15
TORSDOF 4
ENDMDL
MODEL 9
REMARK VINA RESULT:      -7.1      6.593      9.004
REMARK  Name = 
REMARK  8 active torsions:
REMARK  status: ('A' for Active; 'I' for Inactive)
REMARK    1  A    between atoms: C_1  and  N_2
REMARK    2  A    between atoms: N_2  and  C_3
REMARK    3  A    between atoms: N_2  and  S_9
REMARK    4  A    between atoms: S_9  and  C_12
REMARK    5  A    between atoms: C_15  and  C_16
REMARK    6  A    between atoms: C_16  and  C_17
REMARK    7  A    between atoms: C_16  and  C_18
REMARK    8  A    between atoms: C_16  and  C_19
REMARK                            x       y       z     vdW  Elec       q    Type
REMARK                         _______ _______ _______ _____ _____    ______ ____
ROOT
ATOM      1  S   UNL     1       0.309  10.858  20.442  0.00  0.00    +0.000 S 
ATOM      2  O   UNL     1       1.357  11.711  20.957  0.00  0.00    +0.000 OA
ATOM      3  O   UNL     1      -0.768  10.413  21.308  0.00  0.00    +0.000 OA
ENDROOT
BRANCH   1   4
ATOM      4  C   UNL     1       1.091   9.370  19.830  0.00  0.00    +0.000 A 
ATOM      5  C   UNL     1       1.513   9.344  18.503  0.00  0.00    +0.000 A 
ATOM      6  C   UNL     1       2.241   8.255  18.015  0.00  0.00    +0.000 A 
ATOM      7  C   UNL     1       2.553   7.147  18.823  0.00  0.00    +0.000 A 
ATOM      8  C   UNL     1       2.086   7.178  20.155  0.00  0.00    +0.000 A 
ATOM      9  C   UNL     1       1.382   8.288  20.662  0.00  0.00    +0.000 A 
BRANCH   7  10
ATOM     10  C   UNL     1       3.401   5.968  18.300  0.00  0.00    +0.000 C 
ATOM     11  C   UNL     1       4.308   5.347  19.391  0.00  0.00    +0.000 C 
ATOM     12  C   UNL     1       2.479   4.839  17.781  0.00  0.00    +0.000 C 
ATOM     13  C   UNL     1       4.323   6.420  17.149  0.00  0.00    +0.000 C 
ENDBRANCH   7  10
ENDBRANCH   1   4
BRANCH   1  15
ATOM     14  C   UNL     1       0.150  12.945  18.716  0.00  0.00    +0.000 C 
ATOM     15  N   UNL     1      -0.381  11.636  19.101  0.00  0.00    +0.000 N 
BRANCH  15  16
ATOM     16  C   UNL     1      -1.697  11.261  18.692  0.00  0.00    +0.000 A 
ATOM     17  C   UNL     1      -1.903  10.147  17.878  0.00  0.00    +0.000 A 
ATOM     18  C   UNL     1      -3.186   9.850  17.413  0.00  0.00    +0.000 A 
ATOM     19  C   UNL     1      -4.267  10.648  17.786  0.00  0.00    +0.000 A 
ATOM     20  C   UNL     1      -4.071  11.729  18.645  0.00  0.00    +0.000 A 
ATOM     21  C   UNL     1      -2.785  12.040  19.092  0.00  0.00    +0.000 A 
ENDBRANCH  15  16
ENDBRANCH   1  15
TORSDOF 4
ENDMDL
