MODEL 1
REMARK VINA RESULT:      -9.6      0.000      0.000
REMARK  Name = 
REMARK  3 active torsions:
REMARK  status: ('A' for Active; 'I' for Inactive)
REMARK    1  A    between atoms: C_2  and  C_20
REMARK    2  A    between atoms: N_3  and  C_4
REMARK    3  A    between atoms: C_22  and  N_23
REMARK                            x       y       z     vdW  Elec       q    Type
REMARK                         _______ _______ _______ _____ _____    ______ ____
ROOT
ATOM      1  C   UNL     1       1.433   8.501  20.564  0.00  0.00    +0.000 A 
ATOM      2  C   UNL     1       1.558   8.503  21.960  0.00  0.00    +0.000 A 
ATOM      3  C   UNL     1       0.822   9.384  22.752  0.00  0.00    +0.000 A 
ATOM      4  C   UNL     1      -0.051  10.288  22.164  0.00  0.00    +0.000 A 
ATOM      5  N   UNL     1      -0.733  11.187  22.982  0.00  0.00    +0.000 NA
ATOM      6  C   UNL     1      -1.515  12.058  22.428  0.00  0.00    +0.000 A 
ATOM      7  N   UNL     1      -1.744  12.125  21.069  0.00  0.00    +0.000 N 
ATOM      8  C   UNL     1      -1.146  11.221  20.192  0.00  0.00    +0.000 A 
ATOM      9  O   UNL     1      -1.372  11.164  18.985  0.00  0.00    +0.000 OA
ATOM     10  C   UNL     1      -0.187  10.277  20.780  0.00  0.00    +0.000 A 
ATOM     11  C   UNL     1       0.557   9.406  19.969  0.00  0.00    +0.000 A 
ATOM     12  C   UNL     1      -2.658  13.104  20.491  0.00  0.00    +0.000 C 
ATOM     13  C   UNL     1      -4.110  12.824  20.866  0.00  0.00    +0.000 C 
ATOM     14  C   UNL     1      -4.488  13.398  22.229  0.00  0.00    +0.000 C 
ATOM     15  C   UNL     1      -3.724  12.782  23.399  0.00  0.00    +0.000 C 
ATOM     16  C   UNL     1      -2.223  13.039  23.342  0.00  0.00    +0.000 C 
ENDROOT
BRANCH   1  19
ATOM     17  O   UNL     1       1.495   5.617  20.651  0.00  0.00    +0.000 OA
ATOM     18  C   UNL     1       2.192   6.255  19.869  0.00  0.00    +0.000 C 
ATOM     19  N   UNL     1       2.174   7.630  19.733  0.00  0.00    +0.000 N 
ATOM     20  H   UNL     1       2.671   8.048  18.951  0.00  0.00    +0.000 HD
BRANCH  18  21
ATOM     21  C   UNL     1       3.088   5.461  18.997  0.00  0.00    +0.000 A 
ATOM     22  C   UNL     1       4.457   5.492  19.315  0.00  0.00    +0.000 A 
ATOM     23  C   UNL     1       5.382   4.826  18.509  0.00  0.00    +0.000 A 
ATOM     24  C   UNL     1       4.950   4.113  17.386  0.00  0.00    +0.000 A 
ATOM     25  C   UNL     1       3.585   4.071  17.077  0.00  0.00    +0.000 A 
ATOM     26  C   UNL     1       2.661   4.746  17.880  0.00  0.00    +0.000 A 
ATOM     27  F   UNL     1       1.365   4.693  17.545  0.00  0.00    +0.000 F 
BRANCH  23  28
ATOM     28  N   UNL     1       6.810   4.902  18.843  0.00  0.00    +0.000 N 
ATOM     29  O   UNL     1       7.623   4.436  18.034  0.00  0.00    +0.000 OA
ATOM     30  O   UNL     1       7.113   5.429  19.925  0.00  0.00    +0.000 OA
ENDBRANCH  23  28
ENDBRANCH  18  21
ENDBRANCH   1  19
TORSDOF 3
ENDMDL
MODEL 2
REMARK VINA RESULT:      -9.0      3.230      3.955
REMARK  Name = 
REMARK  3 active torsions:
REMARK  status: ('A' for Active; 'I' for Inactive)
REMARK    1  A    between atoms: C_2  and  C_20
REMARK    2  A    between atoms: N_3  and  C_4
REMARK    3  A    between atoms: C_22  and  N_23
REMARK                            x       y       z     vdW  Elec       q    Type
REMARK                         _______ _______ _______ _____ _____    ______ ____
ROOT
ATOM      1  C   UNL     1       1.469   9.732  17.970  0.00  0.00    +0.000 A 
ATOM      2  C   UNL     1       0.093   9.774  18.230  0.00  0.00    +0.000 A 
ATOM      3  C   UNL     1      -0.539  10.961  18.598  0.00  0.00    +0.000 A 
ATOM      4  C   UNL     1       0.194  12.132  18.724  0.00  0.00    +0.000 A 
ATOM      5  N   UNL     1      -0.460  13.290  19.142  0.00  0.00    +0.000 NA
ATOM      6  C   UNL     1       0.235  14.371  19.299  0.00  0.00    +0.000 A 
ATOM      7  N   UNL     1       1.587  14.457  19.037  0.00  0.00    +0.000 N 
ATOM      8  C   UNL     1       2.299  13.359  18.557  0.00  0.00    +0.000 A 
ATOM      9  O   UNL     1       3.480  13.385  18.218  0.00  0.00    +0.000 OA
ATOM     10  C   UNL     1       1.558  12.095  18.452  0.00  0.00    +0.000 A 
ATOM     11  C   UNL     1       2.210  10.905  18.092  0.00  0.00    +0.000 A 
ATOM     12  C   UNL     1       2.323  15.706  19.199  0.00  0.00    +0.000 C 
ATOM     13  C   UNL     1       1.912  16.751  18.165  0.00  0.00    +0.000 C 
ATOM     14  C   UNL     1       0.665  17.529  18.578  0.00  0.00    +0.000 C 
ATOM     15  C   UNL     1      -0.594  16.673  18.695  0.00  0.00    +0.000 C 
ATOM     16  C   UNL     1      -0.501  15.607  19.780  0.00  0.00    +0.000 C 
ENDROOT
BRANCH   1  19
ATOM     17  O   UNL     1       2.238   7.550  19.695  0.00  0.00    +0.000 OA
ATOM     18  C   UNL     1       2.523   7.562  18.502  0.00  0.00    +0.000 C 
ATOM     19  N   UNL     1       2.141   8.543  17.606  0.00  0.00    +0.000 N 
ATOM     20  H   UNL     1       2.291   8.380  16.615  0.00  0.00    +0.000 HD
BRANCH  18  21
ATOM     21  C   UNL     1       3.309   6.408  18.008  0.00  0.00    +0.000 A 
ATOM     22  C   UNL     1       4.644   6.668  17.654  0.00  0.00    +0.000 A 
ATOM     23  C   UNL     1       5.440   5.654  17.116  0.00  0.00    +0.000 A 
ATOM     24  C   UNL     1       4.917   4.370  16.940  0.00  0.00    +0.000 A 
ATOM     25  C   UNL     1       3.591   4.107  17.305  0.00  0.00    +0.000 A 
ATOM     26  C   UNL     1       2.793   5.125  17.834  0.00  0.00    +0.000 A 
ATOM     27  F   UNL     1       1.525   4.838  18.160  0.00  0.00    +0.000 F 
BRANCH  23  28
ATOM     28  N   UNL     1       6.822   5.961  16.722  0.00  0.00    +0.000 N 
ATOM     29  O   UNL     1       7.568   5.016  16.436  0.00  0.00    +0.000 OA
ATOM     30  O   UNL     1       7.156   7.156  16.703  0.00  0.00    +0.000 OA
ENDBRANCH  23  28
ENDBRANCH  18  21
ENDBRANCH   1  19
TORSDOF 3
ENDMDL
MODEL 3
REMARK VINA RESULT:      -8.9      1.359      1.456
REMARK  Name = 
REMARK  3 active torsions:
REMARK  status: ('A' for Active; 'I' for Inactive)
REMARK    1  A    between atoms: C_2  and  C_20
REMARK    2  A    between atoms: N_3  and  C_4
REMARK    3  A    between atoms: C_22  and  N_23
REMARK                            x       y       z     vdW  Elec       q    Type
REMARK                         _______ _______ _______ _____ _____    ______ ____
ROOT
ATOM      1  C   UNL     1       1.580   8.095  20.485  0.00  0.00    +0.000 A 
ATOM      2  C   UNL     1       1.645   8.339  21.864  0.00  0.00    +0.000 A 
ATOM      3  C   UNL     1       0.885   9.344  22.459  0.00  0.00    +0.000 A 
ATOM      4  C   UNL     1       0.048  10.136  21.687  0.00  0.00    +0.000 A 
ATOM      5  N   UNL     1      -0.660  11.165  22.307  0.00  0.00    +0.000 NA
ATOM      6  C   UNL     1      -1.408  11.928  21.577  0.00  0.00    +0.000 A 
ATOM      7  N   UNL     1      -1.579  11.760  20.218  0.00  0.00    +0.000 N 
ATOM      8  C   UNL     1      -0.953  10.717  19.537  0.00  0.00    +0.000 A 
ATOM      9  O   UNL     1      -1.129  10.453  18.350  0.00  0.00    +0.000 OA
ATOM     10  C   UNL     1      -0.030   9.887  20.321  0.00  0.00    +0.000 A 
ATOM     11  C   UNL     1       0.739   8.886  19.705  0.00  0.00    +0.000 A 
ATOM     12  C   UNL     1      -2.457  12.627  19.441  0.00  0.00    +0.000 C 
ATOM     13  C   UNL     1      -3.927  12.420  19.795  0.00  0.00    +0.000 C 
ATOM     14  C   UNL     1      -4.357  13.222  21.021  0.00  0.00    +0.000 C 
ATOM     15  C   UNL     1      -3.649  12.816  22.311  0.00  0.00    +0.000 C 
ATOM     16  C   UNL     1      -2.144  13.055  22.277  0.00  0.00    +0.000 C 
ENDROOT
BRANCH   1  19
ATOM     17  O   UNL     1       2.896   8.247  17.921  0.00  0.00    +0.000 OA
ATOM     18  C   UNL     1       2.905   7.221  18.593  0.00  0.00    +0.000 C 
ATOM     19  N   UNL     1       2.346   7.092  19.850  0.00  0.00    +0.000 N 
ATOM     20  H   UNL     1       2.545   6.252  20.386  0.00  0.00    +0.000 HD
BRANCH  18  21
ATOM     21  C   UNL     1       3.604   6.059  17.998  0.00  0.00    +0.000 A 
ATOM     22  C   UNL     1       4.974   6.225  17.728  0.00  0.00    +0.000 A 
ATOM     23  C   UNL     1       5.698   5.206  17.106  0.00  0.00    +0.000 A 
ATOM     24  C   UNL     1       5.067   4.007  16.760  0.00  0.00    +0.000 A 
ATOM     25  C   UNL     1       3.706   3.836  17.041  0.00  0.00    +0.000 A 
ATOM     26  C   UNL     1       2.981   4.861  17.655  0.00  0.00    +0.000 A 
ATOM     27  F   UNL     1       1.677   4.665  17.896  0.00  0.00    +0.000 F 
BRANCH  23  28
ATOM     28  N   UNL     1       7.120   5.418  16.804  0.00  0.00    +0.000 N 
ATOM     29  O   UNL     1       7.473   6.543  16.430  0.00  0.00    +0.000 OA
ATOM     30  O   UNL     1       7.881   4.447  16.942  0.00  0.00    +0.000 OA
ENDBRANCH  23  28
ENDBRANCH  18  21
ENDBRANCH   1  19
TORSDOF 3
ENDMDL
MODEL 4
REMARK VINA RESULT:      -8.8      1.385      1.443
REMARK  Name = 
REMARK  3 active torsions:
REMARK  status: ('A' for Active; 'I' for Inactive)
REMARK    1  A    between atoms: C_2  and  C_20
REMARK    2  A    between atoms: N_3  and  C_4
REMARK    3  A    between atoms: C_22  and  N_23
REMARK                            x       y       z     vdW  Elec       q    Type
REMARK                         _______ _______ _______ _____ _____    ______ ____
ROOT
ATOM      1  C   UNL     1       1.301   8.611  20.536  0.00  0.00    +0.000 A 
ATOM      2  C   UNL     1       1.438   8.577  21.930  0.00  0.00    +0.000 A 
ATOM      3  C   UNL     1       0.699   9.426  22.752  0.00  0.00    +0.000 A 
ATOM      4  C   UNL     1      -0.190  10.335  22.197  0.00  0.00    +0.000 A 
ATOM      5  N   UNL     1      -0.877  11.202  23.045  0.00  0.00    +0.000 NA
ATOM      6  C   UNL     1      -1.674  12.078  22.522  0.00  0.00    +0.000 A 
ATOM      7  N   UNL     1      -1.916  12.179  21.168  0.00  0.00    +0.000 N 
ATOM      8  C   UNL     1      -1.314  11.308  20.261  0.00  0.00    +0.000 A 
ATOM      9  O   UNL     1      -1.551  11.281  19.055  0.00  0.00    +0.000 OA
ATOM     10  C   UNL     1      -0.339  10.361  20.814  0.00  0.00    +0.000 A 
ATOM     11  C   UNL     1       0.409   9.521  19.973  0.00  0.00    +0.000 A 
ATOM     12  C   UNL     1      -2.847  13.162  20.625  0.00  0.00    +0.000 C 
ATOM     13  C   UNL     1      -4.293  12.853  21.004  0.00  0.00    +0.000 C 
ATOM     14  C   UNL     1      -4.665  13.385  22.386  0.00  0.00    +0.000 C 
ATOM     15  C   UNL     1      -3.883  12.747  23.531  0.00  0.00    +0.000 C 
ATOM     16  C   UNL     1      -2.386  13.024  23.469  0.00  0.00    +0.000 C 
ENDROOT
BRANCH   1  19
ATOM     17  O   UNL     1       1.479   5.732  20.606  0.00  0.00    +0.000 OA
ATOM     18  C   UNL     1       2.122   6.400  19.803  0.00  0.00    +0.000 C 
ATOM     19  N   UNL     1       2.045   7.773  19.675  0.00  0.00    +0.000 N 
ATOM     20  H   UNL     1       2.498   8.213  18.878  0.00  0.00    +0.000 HD
BRANCH  18  21
ATOM     21  C   UNL     1       3.016   5.645  18.896  0.00  0.00    +0.000 A 
ATOM     22  C   UNL     1       3.860   6.410  18.071  0.00  0.00    +0.000 A 
ATOM     23  C   UNL     1       4.689   5.784  17.138  0.00  0.00    +0.000 A 
ATOM     24  C   UNL     1       4.695   4.390  17.028  0.00  0.00    +0.000 A 
ATOM     25  C   UNL     1       3.865   3.627  17.859  0.00  0.00    +0.000 A 
ATOM     26  C   UNL     1       3.029   4.256  18.786  0.00  0.00    +0.000 A 
ATOM     27  F   UNL     1       2.240   3.493  19.554  0.00  0.00    +0.000 F 
BRANCH  23  28
ATOM     28  N   UNL     1       5.535   6.608  16.265  0.00  0.00    +0.000 N 
ATOM     29  O   UNL     1       5.087   6.930  15.157  0.00  0.00    +0.000 OA
ATOM     30  O   UNL     1       6.655   6.928  16.695  0.00  0.00    +0.000 OA
ENDBRANCH  23  28
ENDBRANCH  18  21
ENDBRANCH   1  19
TORSDOF 3
ENDMDL
MODEL 5
REMARK VINA RESULT:      -8.7      1.653      1.763
REMARK  Name = 
REMARK  3 active torsions:
REMARK  status: ('A' for Active; 'I' for Inactive)
REMARK    1  A    between atoms: C_2  and  C_20
REMARK    2  A    between atoms: N_3  and  C_4
REMARK    3  A    between atoms: C_22  and  N_23
REMARK                            x       y       z     vdW  Elec       q    Type
REMARK                         _______ _______ _______ _____ _____    ______ ____
ROOT
ATOM      1  C   UNL     1       1.201   8.704  20.723  0.00  0.00    +0.000 A 
ATOM      2  C   UNL     1       1.254   8.660  22.123  0.00  0.00    +0.000 A 
ATOM      3  C   UNL     1       0.496   9.530  22.904  0.00  0.00    +0.000 A 
ATOM      4  C   UNL     1      -0.328  10.470  22.303  0.00  0.00    +0.000 A 
ATOM      5  N   UNL     1      -1.035  11.357  23.114  0.00  0.00    +0.000 NA
ATOM      6  C   UNL     1      -1.770  12.260  22.549  0.00  0.00    +0.000 A 
ATOM      7  N   UNL     1      -1.928  12.375  21.183  0.00  0.00    +0.000 N 
ATOM      8  C   UNL     1      -1.303  11.487  20.309  0.00  0.00    +0.000 A 
ATOM      9  O   UNL     1      -1.468  11.472  19.091  0.00  0.00    +0.000 OA
ATOM     10  C   UNL     1      -0.393  10.505  20.914  0.00  0.00    +0.000 A 
ATOM     11  C   UNL     1       0.375   9.644  20.114  0.00  0.00    +0.000 A 
ATOM     12  C   UNL     1      -2.791  13.390  20.591  0.00  0.00    +0.000 C 
ATOM     13  C   UNL     1      -4.267  13.128  20.883  0.00  0.00    +0.000 C 
ATOM     14  C   UNL     1      -4.703  13.668  22.243  0.00  0.00    +0.000 C 
ATOM     15  C   UNL     1      -4.012  13.000  23.430  0.00  0.00    +0.000 C 
ATOM     16  C   UNL     1      -2.505  13.227  23.457  0.00  0.00    +0.000 C 
ENDROOT
BRANCH   1  19
ATOM     17  O   UNL     1       1.324   5.822  20.828  0.00  0.00    +0.000 OA
ATOM     18  C   UNL     1       2.014   6.471  20.048  0.00  0.00    +0.000 C 
ATOM     19  N   UNL     1       1.967   7.844  19.903  0.00  0.00    +0.000 N 
ATOM     20  H   UNL     1       2.461   8.267  19.123  0.00  0.00    +0.000 HD
BRANCH  18  21
ATOM     21  C   UNL     1       2.933   5.691  19.187  0.00  0.00    +0.000 A 
ATOM     22  C   UNL     1       3.140   4.348  19.551  0.00  0.00    +0.000 A 
ATOM     23  C   UNL     1       4.041   3.556  18.836  0.00  0.00    +0.000 A 
ATOM     24  C   UNL     1       4.733   4.091  17.744  0.00  0.00    +0.000 A 
ATOM     25  C   UNL     1       4.516   5.424  17.374  0.00  0.00    +0.000 A 
ATOM     26  C   UNL     1       3.621   6.217  18.096  0.00  0.00    +0.000 A 
ATOM     27  F   UNL     1       3.450   7.492  17.719  0.00  0.00    +0.000 F 
BRANCH  23  28
ATOM     28  N   UNL     1       4.265   2.167  19.257  0.00  0.00    +0.000 N 
ATOM     29  O   UNL     1       4.940   1.970  20.275  0.00  0.00    +0.000 OA
ATOM     30  O   UNL     1       3.762   1.273  18.558  0.00  0.00    +0.000 OA
ENDBRANCH  23  28
ENDBRANCH  18  21
ENDBRANCH   1  19
TORSDOF 3
ENDMDL
MODEL 6
REMARK VINA RESULT:      -8.7      1.019      1.110
REMARK  Name = 
REMARK  3 active torsions:
REMARK  status: ('A' for Active; 'I' for Inactive)
REMARK    1  A    between atoms: C_2  and  C_20
REMARK    2  A    between atoms: N_3  and  C_4
REMARK    3  A    between atoms: C_22  and  N_23
REMARK                            x       y       z     vdW  Elec       q    Type
REMARK                         _______ _______ _______ _____ _____    ______ ____
ROOT
ATOM      1  C   UNL     1       1.434   8.567  20.465  0.00  0.00    +0.000 A 
ATOM      2  C   UNL     1       0.939   8.209  21.726  0.00  0.00    +0.000 A 
ATOM      3  C   UNL     1       0.240   9.120  22.516  0.00  0.00    +0.000 A 
ATOM      4  C   UNL     1       0.025  10.414  22.065  0.00  0.00    +0.000 A 
ATOM      5  N   UNL     1      -0.635  11.313  22.902  0.00  0.00    +0.000 NA
ATOM      6  C   UNL     1      -0.796  12.532  22.495  0.00  0.00    +0.000 A 
ATOM      7  N   UNL     1      -0.386  12.987  21.260  0.00  0.00    +0.000 N 
ATOM      8  C   UNL     1       0.227  12.134  20.344  0.00  0.00    +0.000 A 
ATOM      9  O   UNL     1       0.537  12.445  19.196  0.00  0.00    +0.000 OA
ATOM     10  C   UNL     1       0.502  10.768  20.808  0.00  0.00    +0.000 A 
ATOM     11  C   UNL     1       1.220   9.865  20.007  0.00  0.00    +0.000 A 
ATOM     12  C   UNL     1      -0.616  14.363  20.832  0.00  0.00    +0.000 C 
ATOM     13  C   UNL     1      -2.098  14.651  20.604  0.00  0.00    +0.000 C 
ATOM     14  C   UNL     1      -2.832  15.015  21.893  0.00  0.00    +0.000 C 
ATOM     15  C   UNL     1      -2.873  13.892  22.926  0.00  0.00    +0.000 C 
ATOM     16  C   UNL     1      -1.495  13.492  23.439  0.00  0.00    +0.000 C 
ENDROOT
BRANCH   1  19
ATOM     17  O   UNL     1       1.687   5.710  20.781  0.00  0.00    +0.000 OA
ATOM     18  C   UNL     1       2.275   6.317  19.891  0.00  0.00    +0.000 C 
ATOM     19  N   UNL     1       2.157   7.671  19.646  0.00  0.00    +0.000 N 
ATOM     20  H   UNL     1       2.560   8.047  18.792  0.00  0.00    +0.000 HD
BRANCH  18  21
ATOM     21  C   UNL     1       3.144   5.502  19.012  0.00  0.00    +0.000 A 
ATOM     22  C   UNL     1       4.517   5.508  19.312  0.00  0.00    +0.000 A 
ATOM     23  C   UNL     1       5.420   4.821  18.497  0.00  0.00    +0.000 A 
ATOM     24  C   UNL     1       4.960   4.111  17.383  0.00  0.00    +0.000 A 
ATOM     25  C   UNL     1       3.590   4.094  17.092  0.00  0.00    +0.000 A 
ATOM     26  C   UNL     1       2.690   4.790  17.904  0.00  0.00    +0.000 A 
ATOM     27  F   UNL     1       1.389   4.760  17.585  0.00  0.00    +0.000 F 
BRANCH  23  28
ATOM     28  N   UNL     1       6.853   4.871  18.813  0.00  0.00    +0.000 N 
ATOM     29  O   UNL     1       7.649   4.422  17.978  0.00  0.00    +0.000 OA
ATOM     30  O   UNL     1       7.178   5.362  19.906  0.00  0.00    +0.000 OA
ENDBRANCH  23  28
ENDBRANCH  18  21
ENDBRANCH   1  19
TORSDOF 3
ENDMDL
MODEL 7
REMARK VINA RESULT:      -8.6      3.636      4.519
REMARK  Name = 
REMARK  3 active torsions:
REMARK  status: ('A' for Active; 'I' for Inactive)
REMARK    1  A    between atoms: C_2  and  C_20
REMARK    2  A    between atoms: N_3  and  C_4
REMARK    3  A    between atoms: C_22  and  N_23
REMARK                            x       y       z     vdW  Elec       q    Type
REMARK                         _______ _______ _______ _____ _____    ______ ____
ROOT
ATOM      1  C   UNL     1       1.182   9.798  18.025  0.00  0.00    +0.000 A 
ATOM      2  C   UNL     1      -0.192   9.941  18.259  0.00  0.00    +0.000 A 
ATOM      3  C   UNL     1      -0.747  11.177  18.588  0.00  0.00    +0.000 A 
ATOM      4  C   UNL     1       0.063  12.298  18.698  0.00  0.00    +0.000 A 
ATOM      5  N   UNL     1      -0.517  13.508  19.077  0.00  0.00    +0.000 NA
ATOM      6  C   UNL     1       0.248  14.543  19.220  0.00  0.00    +0.000 A 
ATOM      7  N   UNL     1       1.606  14.529  18.980  0.00  0.00    +0.000 N 
ATOM      8  C   UNL     1       2.249  13.374  18.540  0.00  0.00    +0.000 A 
ATOM      9  O   UNL     1       3.435  13.310  18.222  0.00  0.00    +0.000 OA
ATOM     10  C   UNL     1       1.425  12.161  18.452  0.00  0.00    +0.000 A 
ATOM     11  C   UNL     1       1.999  10.920  18.133  0.00  0.00    +0.000 A 
ATOM     12  C   UNL     1       2.424  15.729  19.125  0.00  0.00    +0.000 C 
ATOM     13  C   UNL     1       2.103  16.773  18.060  0.00  0.00    +0.000 C 
ATOM     14  C   UNL     1       0.906  17.644  18.431  0.00  0.00    +0.000 C 
ATOM     15  C   UNL     1      -0.411  16.880  18.546  0.00  0.00    +0.000 C 
ATOM     16  C   UNL     1      -0.409  15.837  19.658  0.00  0.00    +0.000 C 
ENDROOT
BRANCH   1  19
ATOM     17  O   UNL     1       2.093   7.757  19.851  0.00  0.00    +0.000 OA
ATOM     18  C   UNL     1       2.235   7.649  18.638  0.00  0.00    +0.000 C 
ATOM     19  N   UNL     1       1.776   8.557  17.703  0.00  0.00    +0.000 N 
ATOM     20  H   UNL     1       1.805   8.299  16.720  0.00  0.00    +0.000 HD
BRANCH  18  21
ATOM     21  C   UNL     1       2.928   6.427  18.170  0.00  0.00    +0.000 A 
ATOM     22  C   UNL     1       2.259   5.209  18.383  0.00  0.00    +0.000 A 
ATOM     23  C   UNL     1       2.867   4.001  18.034  0.00  0.00    +0.000 A 
ATOM     24  C   UNL     1       4.140   3.997  17.456  0.00  0.00    +0.000 A 
ATOM     25  C   UNL     1       4.801   5.211  17.230  0.00  0.00    +0.000 A 
ATOM     26  C   UNL     1       4.195   6.418  17.589  0.00  0.00    +0.000 A 
ATOM     27  F   UNL     1       4.864   7.558  17.370  0.00  0.00    +0.000 F 
BRANCH  23  28
ATOM     28  N   UNL     1       2.161   2.741  18.299  0.00  0.00    +0.000 N 
ATOM     29  O   UNL     1       2.831   1.764  18.657  0.00  0.00    +0.000 OA
ATOM     30  O   UNL     1       0.929   2.735  18.144  0.00  0.00    +0.000 OA
ENDBRANCH  23  28
ENDBRANCH  18  21
ENDBRANCH   1  19
TORSDOF 3
ENDMDL
MODEL 8
REMARK VINA RESULT:      -8.5      1.826      2.601
REMARK  Name = 
REMARK  3 active torsions:
REMARK  status: ('A' for Active; 'I' for Inactive)
REMARK    1  A    between atoms: C_2  and  C_20
REMARK    2  A    between atoms: N_3  and  C_4
REMARK    3  A    between atoms: C_22  and  N_23
REMARK                            x       y       z     vdW  Elec       q    Type
REMARK                         _______ _______ _______ _____ _____    ______ ____
ROOT
ATOM      1  C   UNL     1       1.244   8.977  19.318  0.00  0.00    +0.000 A 
ATOM      2  C   UNL     1       0.719   9.623  18.191  0.00  0.00    +0.000 A 
ATOM      3  C   UNL     1      -0.171  10.688  18.316  0.00  0.00    +0.000 A 
ATOM      4  C   UNL     1      -0.563  11.128  19.572  0.00  0.00    +0.000 A 
ATOM      5  N   UNL     1      -1.492  12.163  19.660  0.00  0.00    +0.000 NA
ATOM      6  C   UNL     1      -1.887  12.542  20.833  0.00  0.00    +0.000 A 
ATOM      7  N   UNL     1      -1.411  12.006  22.011  0.00  0.00    +0.000 N 
ATOM      8  C   UNL     1      -0.436  11.010  22.007  0.00  0.00    +0.000 A 
ATOM      9  O   UNL     1       0.098  10.550  23.014  0.00  0.00    +0.000 OA
ATOM     10  C   UNL     1      -0.031  10.497  20.692  0.00  0.00    +0.000 A 
ATOM     11  C   UNL     1       0.856   9.414  20.582  0.00  0.00    +0.000 A 
ATOM     12  C   UNL     1      -1.863  12.486  23.312  0.00  0.00    +0.000 C 
ATOM     13  C   UNL     1      -1.381  13.906  23.598  0.00  0.00    +0.000 C 
ATOM     14  C   UNL     1      -2.285  14.970  22.983  0.00  0.00    +0.000 C 
ATOM     15  C   UNL     1      -2.333  14.943  21.457  0.00  0.00    +0.000 C 
ATOM     16  C   UNL     1      -2.918  13.653  20.894  0.00  0.00    +0.000 C 
ENDROOT
BRANCH   1  19
ATOM     17  O   UNL     1       2.857   8.214  17.050  0.00  0.00    +0.000 OA
ATOM     18  C   UNL     1       2.840   7.553  18.083  0.00  0.00    +0.000 C 
ATOM     19  N   UNL     1       2.138   7.886  19.225  0.00  0.00    +0.000 N 
ATOM     20  H   UNL     1       2.315   7.358  20.075  0.00  0.00    +0.000 HD
BRANCH  18  21
ATOM     21  C   UNL     1       3.671   6.327  18.084  0.00  0.00    +0.000 A 
ATOM     22  C   UNL     1       4.983   6.461  17.599  0.00  0.00    +0.000 A 
ATOM     23  C   UNL     1       5.816   5.344  17.503  0.00  0.00    +0.000 A 
ATOM     24  C   UNL     1       5.353   4.086  17.901  0.00  0.00    +0.000 A 
ATOM     25  C   UNL     1       4.050   3.955  18.398  0.00  0.00    +0.000 A 
ATOM     26  C   UNL     1       3.215   5.072  18.485  0.00  0.00    +0.000 A 
ATOM     27  F   UNL     1       1.971   4.904  18.953  0.00  0.00    +0.000 F 
BRANCH  23  28
ATOM     28  N   UNL     1       7.171   5.505  16.960  0.00  0.00    +0.000 N 
ATOM     29  O   UNL     1       7.892   4.501  16.889  0.00  0.00    +0.000 OA
ATOM     30  O   UNL     1       7.511   6.646  16.607  0.00  0.00    +0.000 OA
ENDBRANCH  23  28
ENDBRANCH  18  21
ENDBRANCH   1  19
TORSDOF 3
ENDMDL
MODEL 9
REMARK VINA RESULT:      -8.5      7.031      9.858
REMARK  Name = 
REMARK  3 active torsions:
REMARK  status: ('A' for Active; 'I' for Inactive)
REMARK    1  A    between atoms: C_2  and  C_20
REMARK    2  A    between atoms: N_3  and  C_4
REMARK    3  A    between atoms: C_22  and  N_23
REMARK                            x       y       z     vdW  Elec       q    Type
REMARK                         _______ _______ _______ _____ _____    ______ ____
ROOT
ATOM      1  C   UNL     1       7.699   8.021  18.067  0.00  0.00    +0.000 A 
ATOM      2  C   UNL     1       8.453   7.007  18.674  0.00  0.00    +0.000 A 
ATOM      3  C   UNL     1       7.881   5.780  19.007  0.00  0.00    +0.000 A 
ATOM      4  C   UNL     1       6.540   5.541  18.748  0.00  0.00    +0.000 A 
ATOM      5  N   UNL     1       5.989   4.322  19.139  0.00  0.00    +0.000 NA
ATOM      6  C   UNL     1       4.727   4.119  18.935  0.00  0.00    +0.000 A 
ATOM      7  N   UNL     1       3.896   5.028  18.313  0.00  0.00    +0.000 N 
ATOM      8  C   UNL     1       4.385   6.244  17.839  0.00  0.00    +0.000 A 
ATOM      9  O   UNL     1       3.727   7.061  17.199  0.00  0.00    +0.000 OA
ATOM     10  C   UNL     1       5.793   6.541  18.133  0.00  0.00    +0.000 A 
ATOM     11  C   UNL     1       6.352   7.787  17.804  0.00  0.00    +0.000 A 
ATOM     12  C   UNL     1       2.485   4.744  18.076  0.00  0.00    +0.000 C 
ATOM     13  C   UNL     1       2.289   3.641  17.039  0.00  0.00    +0.000 C 
ATOM     14  C   UNL     1       2.386   2.242  17.642  0.00  0.00    +0.000 C 
ATOM     15  C   UNL     1       3.758   1.905  18.221  0.00  0.00    +0.000 C 
ATOM     16  C   UNL     1       4.152   2.793  19.395  0.00  0.00    +0.000 C 
ENDROOT
BRANCH   1  19
ATOM     17  O   UNL     1       9.262   9.769  19.751  0.00  0.00    +0.000 OA
ATOM     18  C   UNL     1       8.942  10.086  18.609  0.00  0.00    +0.000 C 
ATOM     19  N   UNL     1       8.245   9.280  17.729  0.00  0.00    +0.000 N 
ATOM     20  H   UNL     1       8.169   9.572  16.759  0.00  0.00    +0.000 HD
BRANCH  18  21
ATOM     21  C   UNL     1       9.379  11.427  18.159  0.00  0.00    +0.000 A 
ATOM     22  C   UNL     1       8.398  12.435  18.158  0.00  0.00    +0.000 A 
ATOM     23  C   UNL     1       8.704  13.714  17.688  0.00  0.00    +0.000 A 
ATOM     24  C   UNL     1       9.992  14.003  17.227  0.00  0.00    +0.000 A 
ATOM     25  C   UNL     1      10.972  13.003  17.241  0.00  0.00    +0.000 A 
ATOM     26  C   UNL     1      10.662  11.721  17.704  0.00  0.00    +0.000 A 
ATOM     27  F   UNL     1      11.623  10.788  17.689  0.00  0.00    +0.000 F 
BRANCH  23  28
ATOM     28  N   UNL     1       7.652  14.739  17.665  0.00  0.00    +0.000 N 
ATOM     29  O   UNL     1       7.997  15.927  17.710  0.00  0.00    +0.000 OA
ATOM     30  O   UNL     1       6.477  14.346  17.603  0.00  0.00    +0.000 OA
ENDBRANCH  23  28
ENDBRANCH  18  21
ENDBRANCH   1  19
TORSDOF 3
ENDMDL
