MODEL 1
REMARK VINA RESULT:      -8.5      0.000      0.000
REMARK  Name = 
REMARK  10 active torsions:
REMARK  status: ('A' for Active; 'I' for Inactive)
REMARK    1  A    between atoms: C_1  and  N_2
REMARK    2  A    between atoms: N_2  and  C_3
REMARK    3  A    between atoms: C_3  and  C_4
REMARK    4  A    between atoms: C_7  and  O_8
REMARK    5  A    between atoms: O_8  and  C_9
REMARK    6  A    between atoms: C_14  and  C_16
REMARK    7  A    between atoms: C_19  and  S_20
REMARK    8  A    between atoms: S_20  and  N_23
REMARK    9  A    between atoms: N_23  and  C_24
REMARK   10  A    between atoms: N_23  and  C_25
REMARK                            x       y       z     vdW  Elec       q    Type
REMARK                         _______ _______ _______ _____ _____    ______ ____
ROOT
ATOM      1  C   UNL     1       2.297   5.730  18.991  0.00  0.00    +0.000 A 
ATOM      2  C   UNL     1       2.391   7.031  18.503  0.00  0.00    +0.000 A 
ATOM      3  C   UNL     1       2.037   8.128  19.275  0.00  0.00    +0.000 A 
ATOM      4  C   UNL     1       1.448   7.925  20.520  0.00  0.00    +0.000 A 
ATOM      5  C   UNL     1       1.313   6.634  21.037  0.00  0.00    +0.000 A 
ATOM      6  C   UNL     1       1.742   5.540  20.270  0.00  0.00    +0.000 A 
ENDROOT
BRANCH   1   9
ATOM      7  C   UNL     1       4.139   2.819  17.297  0.00  0.00    +0.000 C 
ATOM      8  N   UNL     1       3.910   3.936  18.205  0.00  0.00    +0.000 N 
ATOM      9  C   UNL     1       2.643   4.537  18.161  0.00  0.00    +0.000 C 
ATOM     10  O   UNL     1       1.746   4.107  17.429  0.00  0.00    +0.000 OA
BRANCH   8  11
ATOM     11  C   UNL     1       5.023   4.290  19.098  0.00  0.00    +0.000 C 
BRANCH  11  12
ATOM     12  C   UNL     1       5.945   5.402  18.620  0.00  0.00    +0.000 A 
ATOM     13  C   UNL     1       5.613   6.295  17.591  0.00  0.00    +0.000 A 
ATOM     14  C   UNL     1       6.475   7.341  17.246  0.00  0.00    +0.000 A 
ATOM     15  C   UNL     1       7.686   7.524  17.915  0.00  0.00    +0.000 A 
ATOM     16  C   UNL     1       8.037   6.640  18.934  0.00  0.00    +0.000 A 
ATOM     17  C   UNL     1       7.171   5.593  19.284  0.00  0.00    +0.000 A 
BRANCH  15  18
ATOM     18  O   UNL     1       8.436   8.570  17.458  0.00  0.00    +0.000 OA
BRANCH  18  19
ATOM     19  C   UNL     1       8.556   9.689  18.318  0.00  0.00    +0.000 C 
ATOM     20  F   UNL     1       9.388   9.378  19.341  0.00  0.00    +0.000 F 
ATOM     21  F   UNL     1       9.163  10.674  17.608  0.00  0.00    +0.000 F 
ENDBRANCH  18  19
ENDBRANCH  15  18
ENDBRANCH  11  12
ENDBRANCH   8  11
ENDBRANCH   1   9
BRANCH   4  22
ATOM     22  S   UNL     1       0.825   9.358  21.380  0.00  0.00    +0.000 S 
ATOM     23  O   UNL     1      -0.534   9.057  21.786  0.00  0.00    +0.000 OA
ATOM     24  O   UNL     1       1.822   9.732  22.363  0.00  0.00    +0.000 OA
BRANCH  22  25
ATOM     25  N   UNL     1       0.778  10.548  20.140  0.00  0.00    +0.000 N 
ATOM     26  C   UNL     1       1.570  11.772  20.379  0.00  0.00    +0.000 C 
BRANCH  25  27
ATOM     27  C   UNL     1      -0.469  10.686  19.427  0.00  0.00    +0.000 A 
ATOM     28  C   UNL     1      -0.716   9.959  18.251  0.00  0.00    +0.000 A 
ATOM     29  C   UNL     1      -1.882  10.175  17.514  0.00  0.00    +0.000 A 
ATOM     30  C   UNL     1      -2.807  11.124  17.940  0.00  0.00    +0.000 A 
ATOM     31  C   UNL     1      -2.566  11.860  19.100  0.00  0.00    +0.000 A 
ATOM     32  C   UNL     1      -1.394  11.646  19.839  0.00  0.00    +0.000 A 
ENDBRANCH  25  27
ENDBRANCH  22  25
ENDBRANCH   4  22
TORSDOF 8
ENDMDL
MODEL 2
REMARK VINA RESULT:      -7.9      2.866      3.354
REMARK  Name = 
REMARK  10 active torsions:
REMARK  status: ('A' for Active; 'I' for Inactive)
REMARK    1  A    between atoms: C_1  and  N_2
REMARK    2  A    between atoms: N_2  and  C_3
REMARK    3  A    between atoms: C_3  and  C_4
REMARK    4  A    between atoms: C_7  and  O_8
REMARK    5  A    between atoms: O_8  and  C_9
REMARK    6  A    between atoms: C_14  and  C_16
REMARK    7  A    between atoms: C_19  and  S_20
REMARK    8  A    between atoms: S_20  and  N_23
REMARK    9  A    between atoms: N_23  and  C_24
REMARK   10  A    between atoms: N_23  and  C_25
REMARK                            x       y       z     vdW  Elec       q    Type
REMARK                         _______ _______ _______ _____ _____    ______ ____
ROOT
ATOM      1  C   UNL     1       1.653   6.651  20.174  0.00  0.00    +0.000 A 
ATOM      2  C   UNL     1       1.003   7.169  21.291  0.00  0.00    +0.000 A 
ATOM      3  C   UNL     1       0.588   8.492  21.346  0.00  0.00    +0.000 A 
ATOM      4  C   UNL     1       0.944   9.362  20.320  0.00  0.00    +0.000 A 
ATOM      5  C   UNL     1       1.618   8.889  19.191  0.00  0.00    +0.000 A 
ATOM      6  C   UNL     1       1.968   7.531  19.122  0.00  0.00    +0.000 A 
ENDROOT
BRANCH   1   9
ATOM      7  C   UNL     1       3.768   3.490  19.652  0.00  0.00    +0.000 C 
ATOM      8  N   UNL     1       3.445   4.909  19.737  0.00  0.00    +0.000 N 
ATOM      9  C   UNL     1       2.134   5.238  20.112  0.00  0.00    +0.000 C 
ATOM     10  O   UNL     1       1.308   4.370  20.411  0.00  0.00    +0.000 OA
BRANCH   8  11
ATOM     11  C   UNL     1       4.543   5.845  19.453  0.00  0.00    +0.000 C 
BRANCH  11  12
ATOM     12  C   UNL     1       5.311   5.614  18.160  0.00  0.00    +0.000 A 
ATOM     13  C   UNL     1       4.819   5.961  16.894  0.00  0.00    +0.000 A 
ATOM     14  C   UNL     1       5.603   5.788  15.749  0.00  0.00    +0.000 A 
ATOM     15  C   UNL     1       6.894   5.265  15.836  0.00  0.00    +0.000 A 
ATOM     16  C   UNL     1       7.397   4.904  17.085  0.00  0.00    +0.000 A 
ATOM     17  C   UNL     1       6.612   5.082  18.234  0.00  0.00    +0.000 A 
BRANCH  15  18
ATOM     18  O   UNL     1       7.535   5.130  14.637  0.00  0.00    +0.000 OA
BRANCH  18  19
ATOM     19  C   UNL     1       6.744   4.718  13.536  0.00  0.00    +0.000 C 
ATOM     20  F   UNL     1       7.493   4.762  12.409  0.00  0.00    +0.000 F 
ATOM     21  F   UNL     1       6.424   3.415  13.740  0.00  0.00    +0.000 F 
ENDBRANCH  18  19
ENDBRANCH  15  18
ENDBRANCH  11  12
ENDBRANCH   8  11
ENDBRANCH   1   9
BRANCH   4  22
ATOM     22  S   UNL     1       0.567  11.092  20.538  0.00  0.00    +0.000 S 
ATOM     23  O   UNL     1      -0.628  11.170  21.355  0.00  0.00    +0.000 OA
ATOM     24  O   UNL     1       1.790  11.746  20.958  0.00  0.00    +0.000 OA
BRANCH  22  25
ATOM     25  N   UNL     1       0.175  11.594  18.942  0.00  0.00    +0.000 N 
ATOM     26  C   UNL     1       0.777  12.866  18.490  0.00  0.00    +0.000 C 
BRANCH  25  27
ATOM     27  C   UNL     1      -1.154  11.280  18.475  0.00  0.00    +0.000 A 
ATOM     28  C   UNL     1      -2.262  12.044  18.875  0.00  0.00    +0.000 A 
ATOM     29  C   UNL     1      -3.554  11.672  18.499  0.00  0.00    +0.000 A 
ATOM     30  C   UNL     1      -3.752  10.529  17.729  0.00  0.00    +0.000 A 
ATOM     31  C   UNL     1      -2.659   9.757  17.336  0.00  0.00    +0.000 A 
ATOM     32  C   UNL     1      -1.361  10.128  17.716  0.00  0.00    +0.000 A 
ENDBRANCH  25  27
ENDBRANCH  22  25
ENDBRANCH   4  22
TORSDOF 8
ENDMDL
MODEL 3
REMARK VINA RESULT:      -7.9      3.102      3.553
REMARK  Name = 
REMARK  10 active torsions:
REMARK  status: ('A' for Active; 'I' for Inactive)
REMARK    1  A    between atoms: C_1  and  N_2
REMARK    2  A    between atoms: N_2  and  C_3
REMARK    3  A    between atoms: C_3  and  C_4
REMARK    4  A    between atoms: C_7  and  O_8
REMARK    5  A    between atoms: O_8  and  C_9
REMARK    6  A    between atoms: C_14  and  C_16
REMARK    7  A    between atoms: C_19  and  S_20
REMARK    8  A    between atoms: S_20  and  N_23
REMARK    9  A    between atoms: N_23  and  C_24
REMARK   10  A    between atoms: N_23  and  C_25
REMARK                            x       y       z     vdW  Elec       q    Type
REMARK                         _______ _______ _______ _____ _____    ______ ____
ROOT
ATOM      1  C   UNL     1       1.979   6.928  19.912  0.00  0.00    +0.000 A 
ATOM      2  C   UNL     1       2.109   7.702  18.761  0.00  0.00    +0.000 A 
ATOM      3  C   UNL     1       1.898   9.074  18.776  0.00  0.00    +0.000 A 
ATOM      4  C   UNL     1       1.417   9.678  19.933  0.00  0.00    +0.000 A 
ATOM      5  C   UNL     1       1.250   8.934  21.104  0.00  0.00    +0.000 A 
ATOM      6  C   UNL     1       1.535   7.560  21.089  0.00  0.00    +0.000 A 
ENDROOT
BRANCH   1   9
ATOM      7  C   UNL     1       3.441   3.395  19.569  0.00  0.00    +0.000 C 
ATOM      8  N   UNL     1       3.404   4.852  19.605  0.00  0.00    +0.000 N 
ATOM      9  C   UNL     1       2.170   5.447  19.906  0.00  0.00    +0.000 C 
ATOM     10  O   UNL     1       1.174   4.770  20.182  0.00  0.00    +0.000 OA
BRANCH   8  11
ATOM     11  C   UNL     1       4.679   5.542  19.356  0.00  0.00    +0.000 C 
BRANCH  11  12
ATOM     12  C   UNL     1       5.251   5.419  17.951  0.00  0.00    +0.000 A 
ATOM     13  C   UNL     1       4.702   6.061  16.833  0.00  0.00    +0.000 A 
ATOM     14  C   UNL     1       5.317   5.964  15.580  0.00  0.00    +0.000 A 
ATOM     15  C   UNL     1       6.489   5.227  15.410  0.00  0.00    +0.000 A 
ATOM     16  C   UNL     1       7.044   4.574  16.509  0.00  0.00    +0.000 A 
ATOM     17  C   UNL     1       6.431   4.674  17.767  0.00  0.00    +0.000 A 
BRANCH  15  18
ATOM     18  O   UNL     1       6.965   5.201  14.130  0.00  0.00    +0.000 OA
BRANCH  18  19
ATOM     19  C   UNL     1       6.682   4.040  13.370  0.00  0.00    +0.000 C 
ATOM     20  F   UNL     1       5.340   3.868  13.302  0.00  0.00    +0.000 F 
ATOM     21  F   UNL     1       7.110   4.278  12.104  0.00  0.00    +0.000 F 
ENDBRANCH  18  19
ENDBRANCH  15  18
ENDBRANCH  11  12
ENDBRANCH   8  11
ENDBRANCH   1   9
BRANCH   4  22
ATOM     22  S   UNL     1       0.969  11.402  19.837  0.00  0.00    +0.000 S 
ATOM     23  O   UNL     1       1.620  12.077  20.943  0.00  0.00    +0.000 OA
ATOM     24  O   UNL     1       1.206  11.829  18.473  0.00  0.00    +0.000 OA
BRANCH  22  25
ATOM     25  N   UNL     1      -0.723  11.365  20.134  0.00  0.00    +0.000 N 
ATOM     26  C   UNL     1      -1.147  10.810  21.436  0.00  0.00    +0.000 C 
BRANCH  25  27
ATOM     27  C   UNL     1      -1.572  11.118  18.993  0.00  0.00    +0.000 A 
ATOM     28  C   UNL     1      -2.770  11.829  18.813  0.00  0.00    +0.000 A 
ATOM     29  C   UNL     1      -3.633  11.513  17.762  0.00  0.00    +0.000 A 
ATOM     30  C   UNL     1      -3.312  10.478  16.888  0.00  0.00    +0.000 A 
ATOM     31  C   UNL     1      -2.131   9.758  17.064  0.00  0.00    +0.000 A 
ATOM     32  C   UNL     1      -1.265  10.073  18.122  0.00  0.00    +0.000 A 
ENDBRANCH  25  27
ENDBRANCH  22  25
ENDBRANCH   4  22
TORSDOF 8
ENDMDL
MODEL 4
REMARK VINA RESULT:      -7.7      3.065      3.511
REMARK  Name = 
REMARK  10 active torsions:
REMARK  status: ('A' for Active; 'I' for Inactive)
REMARK    1  A    between atoms: C_1  and  N_2
REMARK    2  A    between atoms: N_2  and  C_3
REMARK    3  A    between atoms: C_3  and  C_4
REMARK    4  A    between atoms: C_7  and  O_8
REMARK    5  A    between atoms: O_8  and  C_9
REMARK    6  A    between atoms: C_14  and  C_16
REMARK    7  A    between atoms: C_19  and  S_20
REMARK    8  A    between atoms: S_20  and  N_23
REMARK    9  A    between atoms: N_23  and  C_24
REMARK   10  A    between atoms: N_23  and  C_25
REMARK                            x       y       z     vdW  Elec       q    Type
REMARK                         _______ _______ _______ _____ _____    ______ ____
ROOT
ATOM      1  C   UNL     1       1.869   6.914  19.845  0.00  0.00    +0.000 A 
ATOM      2  C   UNL     1       2.012   7.720  18.717  0.00  0.00    +0.000 A 
ATOM      3  C   UNL     1       1.829   9.094  18.773  0.00  0.00    +0.000 A 
ATOM      4  C   UNL     1       1.361   9.673  19.948  0.00  0.00    +0.000 A 
ATOM      5  C   UNL     1       1.180   8.898  21.097  0.00  0.00    +0.000 A 
ATOM      6  C   UNL     1       1.438   7.519  21.041  0.00  0.00    +0.000 A 
ENDROOT
BRANCH   1   9
ATOM      7  C   UNL     1       3.285   3.365  19.484  0.00  0.00    +0.000 C 
ATOM      8  N   UNL     1       3.274   4.819  19.577  0.00  0.00    +0.000 N 
ATOM      9  C   UNL     1       2.031   5.431  19.795  0.00  0.00    +0.000 C 
ATOM     10  O   UNL     1       1.001   4.767  19.957  0.00  0.00    +0.000 OA
BRANCH   8  11
ATOM     11  C   UNL     1       4.579   5.489  19.466  0.00  0.00    +0.000 C 
BRANCH  11  12
ATOM     12  C   UNL     1       5.258   5.427  18.106  0.00  0.00    +0.000 A 
ATOM     13  C   UNL     1       6.372   4.621  17.834  0.00  0.00    +0.000 A 
ATOM     14  C   UNL     1       6.908   4.554  16.543  0.00  0.00    +0.000 A 
ATOM     15  C   UNL     1       6.350   5.286  15.496  0.00  0.00    +0.000 A 
ATOM     16  C   UNL     1       5.248   6.101  15.750  0.00  0.00    +0.000 A 
ATOM     17  C   UNL     1       4.707   6.165  17.043  0.00  0.00    +0.000 A 
BRANCH  15  18
ATOM     18  O   UNL     1       6.989   5.142  14.297  0.00  0.00    +0.000 OA
BRANCH  18  19
ATOM     19  C   UNL     1       6.610   4.031  13.504  0.00  0.00    +0.000 C 
ATOM     20  F   UNL     1       5.259   3.930  13.495  0.00  0.00    +0.000 F 
ATOM     21  F   UNL     1       6.989   4.304  12.229  0.00  0.00    +0.000 F 
ENDBRANCH  18  19
ENDBRANCH  15  18
ENDBRANCH  11  12
ENDBRANCH   8  11
ENDBRANCH   1   9
BRANCH   4  22
ATOM     22  S   UNL     1       0.946  11.407  19.904  0.00  0.00    +0.000 S 
ATOM     23  O   UNL     1       1.615  12.037  21.026  0.00  0.00    +0.000 OA
ATOM     24  O   UNL     1       1.186  11.868  18.551  0.00  0.00    +0.000 OA
BRANCH  22  25
ATOM     25  N   UNL     1      -0.745  11.395  20.208  0.00  0.00    +0.000 N 
ATOM     26  C   UNL     1      -1.164  10.960  21.557  0.00  0.00    +0.000 C 
BRANCH  25  27
ATOM     27  C   UNL     1      -1.597  11.045  19.097  0.00  0.00    +0.000 A 
ATOM     28  C   UNL     1      -1.278   9.973  18.249  0.00  0.00    +0.000 A 
ATOM     29  C   UNL     1      -2.054   9.706  17.119  0.00  0.00    +0.000 A 
ATOM     30  C   UNL     1      -3.150  10.511  16.823  0.00  0.00    +0.000 A 
ATOM     31  C   UNL     1      -3.469  11.586  17.653  0.00  0.00    +0.000 A 
ATOM     32  C   UNL     1      -2.688  11.857  18.785  0.00  0.00    +0.000 A 
ENDBRANCH  25  27
ENDBRANCH  22  25
ENDBRANCH   4  22
TORSDOF 8
ENDMDL
MODEL 5
REMARK VINA RESULT:      -7.7      3.258      4.024
REMARK  Name = 
REMARK  10 active torsions:
REMARK  status: ('A' for Active; 'I' for Inactive)
REMARK    1  A    between atoms: C_1  and  N_2
REMARK    2  A    between atoms: N_2  and  C_3
REMARK    3  A    between atoms: C_3  and  C_4
REMARK    4  A    between atoms: C_7  and  O_8
REMARK    5  A    between atoms: O_8  and  C_9
REMARK    6  A    between atoms: C_14  and  C_16
REMARK    7  A    between atoms: C_19  and  S_20
REMARK    8  A    between atoms: S_20  and  N_23
REMARK    9  A    between atoms: N_23  and  C_24
REMARK   10  A    between atoms: N_23  and  C_25
REMARK                            x       y       z     vdW  Elec       q    Type
REMARK                         _______ _______ _______ _____ _____    ______ ____
ROOT
ATOM      1  C   UNL     1       1.869   6.721  20.009  0.00  0.00    +0.000 A 
ATOM      2  C   UNL     1       1.384   7.419  21.113  0.00  0.00    +0.000 A 
ATOM      3  C   UNL     1       1.028   8.758  21.031  0.00  0.00    +0.000 A 
ATOM      4  C   UNL     1       1.283   9.462  19.858  0.00  0.00    +0.000 A 
ATOM      5  C   UNL     1       1.792   8.805  18.734  0.00  0.00    +0.000 A 
ATOM      6  C   UNL     1       2.080   7.434  18.814  0.00  0.00    +0.000 A 
ENDROOT
BRANCH   1   9
ATOM      7  C   UNL     1       3.838   3.432  19.801  0.00  0.00    +0.000 C 
ATOM      8  N   UNL     1       3.578   4.865  19.743  0.00  0.00    +0.000 N 
ATOM      9  C   UNL     1       2.286   5.289  20.088  0.00  0.00    +0.000 C 
ATOM     10  O   UNL     1       1.425   4.493  20.476  0.00  0.00    +0.000 OA
BRANCH   8  11
ATOM     11  C   UNL     1       4.714   5.718  19.363  0.00  0.00    +0.000 C 
BRANCH  11  12
ATOM     12  C   UNL     1       5.259   5.530  17.955  0.00  0.00    +0.000 A 
ATOM     13  C   UNL     1       4.686   6.115  16.817  0.00  0.00    +0.000 A 
ATOM     14  C   UNL     1       5.276   5.960  15.558  0.00  0.00    +0.000 A 
ATOM     15  C   UNL     1       6.449   5.221  15.402  0.00  0.00    +0.000 A 
ATOM     16  C   UNL     1       7.028   4.623  16.520  0.00  0.00    +0.000 A 
ATOM     17  C   UNL     1       6.439   4.781  17.783  0.00  0.00    +0.000 A 
BRANCH  15  18
ATOM     18  O   UNL     1       6.899   5.135  14.115  0.00  0.00    +0.000 OA
BRANCH  18  19
ATOM     19  C   UNL     1       6.539   3.971  13.392  0.00  0.00    +0.000 C 
ATOM     20  F   UNL     1       5.203   3.983  13.166  0.00  0.00    +0.000 F 
ATOM     21  F   UNL     1       7.140   4.055  12.177  0.00  0.00    +0.000 F 
ENDBRANCH  18  19
ENDBRANCH  15  18
ENDBRANCH  11  12
ENDBRANCH   8  11
ENDBRANCH   1   9
BRANCH   4  22
ATOM     22  S   UNL     1       0.999  11.222  19.876  0.00  0.00    +0.000 S 
ATOM     23  O   UNL     1       1.625  11.746  21.074  0.00  0.00    +0.000 OA
ATOM     24  O   UNL     1       1.373  11.728  18.570  0.00  0.00    +0.000 OA
BRANCH  22  25
ATOM     25  N   UNL     1      -0.707  11.325  20.056  0.00  0.00    +0.000 N 
ATOM     26  C   UNL     1      -1.508  11.087  18.837  0.00  0.00    +0.000 C 
BRANCH  25  27
ATOM     27  C   UNL     1      -1.198  12.299  21.000  0.00  0.00    +0.000 A 
ATOM     28  C   UNL     1      -1.253  13.663  20.672  0.00  0.00    +0.000 A 
ATOM     29  C   UNL     1      -1.634  14.608  21.626  0.00  0.00    +0.000 A 
ATOM     30  C   UNL     1      -1.955  14.201  22.918  0.00  0.00    +0.000 A 
ATOM     31  C   UNL     1      -1.892  12.850  23.258  0.00  0.00    +0.000 A 
ATOM     32  C   UNL     1      -1.506  11.900  22.302  0.00  0.00    +0.000 A 
ENDBRANCH  25  27
ENDBRANCH  22  25
ENDBRANCH   4  22
TORSDOF 8
ENDMDL
MODEL 6
REMARK VINA RESULT:      -7.7      3.202      3.906
REMARK  Name = 
REMARK  10 active torsions:
REMARK  status: ('A' for Active; 'I' for Inactive)
REMARK    1  A    between atoms: C_1  and  N_2
REMARK    2  A    between atoms: N_2  and  C_3
REMARK    3  A    between atoms: C_3  and  C_4
REMARK    4  A    between atoms: C_7  and  O_8
REMARK    5  A    between atoms: O_8  and  C_9
REMARK    6  A    between atoms: C_14  and  C_16
REMARK    7  A    between atoms: C_19  and  S_20
REMARK    8  A    between atoms: S_20  and  N_23
REMARK    9  A    between atoms: N_23  and  C_24
REMARK   10  A    between atoms: N_23  and  C_25
REMARK                            x       y       z     vdW  Elec       q    Type
REMARK                         _______ _______ _______ _____ _____    ______ ____
ROOT
ATOM      1  C   UNL     1       2.309   6.080  19.689  0.00  0.00    +0.000 A 
ATOM      2  C   UNL     1       2.423   6.728  18.461  0.00  0.00    +0.000 A 
ATOM      3  C   UNL     1       2.133   8.077  18.318  0.00  0.00    +0.000 A 
ATOM      4  C   UNL     1       1.587   8.776  19.390  0.00  0.00    +0.000 A 
ATOM      5  C   UNL     1       1.433   8.157  20.634  0.00  0.00    +0.000 A 
ATOM      6  C   UNL     1       1.799   6.810  20.779  0.00  0.00    +0.000 A 
ENDROOT
BRANCH   1   9
ATOM      7  C   UNL     1       3.995   2.633  19.810  0.00  0.00    +0.000 C 
ATOM      8  N   UNL     1       3.870   4.080  19.687  0.00  0.00    +0.000 N 
ATOM      9  C   UNL     1       2.587   4.622  19.853  0.00  0.00    +0.000 C 
ATOM     10  O   UNL     1       1.618   3.914  20.145  0.00  0.00    +0.000 OA
BRANCH   8  11
ATOM     11  C   UNL     1       5.115   4.822  19.435  0.00  0.00    +0.000 C 
BRANCH  11  12
ATOM     12  C   UNL     1       5.550   4.939  17.982  0.00  0.00    +0.000 A 
ATOM     13  C   UNL     1       6.543   5.825  17.540  0.00  0.00    +0.000 A 
ATOM     14  C   UNL     1       6.948   5.835  16.201  0.00  0.00    +0.000 A 
ATOM     15  C   UNL     1       6.376   4.966  15.272  0.00  0.00    +0.000 A 
ATOM     16  C   UNL     1       5.381   4.086  15.691  0.00  0.00    +0.000 A 
ATOM     17  C   UNL     1       4.977   4.072  17.034  0.00  0.00    +0.000 A 
BRANCH  15  18
ATOM     18  O   UNL     1       6.851   5.102  13.999  0.00  0.00    +0.000 OA
BRANCH  18  19
ATOM     19  C   UNL     1       6.672   3.996  13.131  0.00  0.00    +0.000 C 
ATOM     20  F   UNL     1       5.358   3.882  12.821  0.00  0.00    +0.000 F 
ATOM     21  F   UNL     1       7.321   4.287  11.975  0.00  0.00    +0.000 F 
ENDBRANCH  18  19
ENDBRANCH  15  18
ENDBRANCH  11  12
ENDBRANCH   8  11
ENDBRANCH   1   9
BRANCH   4  22
ATOM     22  S   UNL     1       1.041  10.447  19.093  0.00  0.00    +0.000 S 
ATOM     23  O   UNL     1       1.747  11.302  20.026  0.00  0.00    +0.000 OA
ATOM     24  O   UNL     1       1.136  10.680  17.665  0.00  0.00    +0.000 OA
BRANCH  22  25
ATOM     25  N   UNL     1      -0.616  10.387  19.548  0.00  0.00    +0.000 N 
ATOM     26  C   UNL     1      -1.596  10.344  18.443  0.00  0.00    +0.000 C 
BRANCH  25  27
ATOM     27  C   UNL     1      -0.983  11.111  20.740  0.00  0.00    +0.000 A 
ATOM     28  C   UNL     1      -0.855  10.529  22.011  0.00  0.00    +0.000 A 
ATOM     29  C   UNL     1      -1.307  11.199  23.149  0.00  0.00    +0.000 A 
ATOM     30  C   UNL     1      -1.899  12.453  23.027  0.00  0.00    +0.000 A 
ATOM     31  C   UNL     1      -2.042  13.036  21.768  0.00  0.00    +0.000 A 
ATOM     32  C   UNL     1      -1.592  12.362  20.624  0.00  0.00    +0.000 A 
ENDBRANCH  25  27
ENDBRANCH  22  25
ENDBRANCH   4  22
TORSDOF 8
ENDMDL
MODEL 7
REMARK VINA RESULT:      -7.6      4.452      9.302
REMARK  Name = 
REMARK  10 active torsions:
REMARK  status: ('A' for Active; 'I' for Inactive)
REMARK    1  A    between atoms: C_1  and  N_2
REMARK    2  A    between atoms: N_2  and  C_3
REMARK    3  A    between atoms: C_3  and  C_4
REMARK    4  A    between atoms: C_7  and  O_8
REMARK    5  A    between atoms: O_8  and  C_9
REMARK    6  A    between atoms: C_14  and  C_16
REMARK    7  A    between atoms: C_19  and  S_20
REMARK    8  A    between atoms: S_20  and  N_23
REMARK    9  A    between atoms: N_23  and  C_24
REMARK   10  A    between atoms: N_23  and  C_25
REMARK                            x       y       z     vdW  Elec       q    Type
REMARK                         _______ _______ _______ _____ _____    ______ ____
ROOT
ATOM      1  C   UNL     1       1.703   7.745  20.133  0.00  0.00    +0.000 A 
ATOM      2  C   UNL     1       1.482   6.551  20.817  0.00  0.00    +0.000 A 
ATOM      3  C   UNL     1       1.804   5.321  20.262  0.00  0.00    +0.000 A 
ATOM      4  C   UNL     1       2.234   5.260  18.940  0.00  0.00    +0.000 A 
ATOM      5  C   UNL     1       2.447   6.432  18.209  0.00  0.00    +0.000 A 
ATOM      6  C   UNL     1       2.183   7.672  18.811  0.00  0.00    +0.000 A 
ENDROOT
BRANCH   1   9
ATOM      7  C   UNL     1       0.543  11.376  20.580  0.00  0.00    +0.000 C 
ATOM      8  N   UNL     1       0.800  10.105  19.915  0.00  0.00    +0.000 N 
ATOM      9  C   UNL     1       1.333   9.074  20.703  0.00  0.00    +0.000 C 
ATOM     10  O   UNL     1       1.524   9.217  21.915  0.00  0.00    +0.000 OA
BRANCH   8  11
ATOM     11  C   UNL     1       0.438  10.030  18.491  0.00  0.00    +0.000 C 
BRANCH  11  12
ATOM     12  C   UNL     1      -1.028  10.258  18.153  0.00  0.00    +0.000 A 
ATOM     13  C   UNL     1      -1.868  11.109  18.885  0.00  0.00    +0.000 A 
ATOM     14  C   UNL     1      -3.188  11.331  18.481  0.00  0.00    +0.000 A 
ATOM     15  C   UNL     1      -3.704  10.713  17.342  0.00  0.00    +0.000 A 
ATOM     16  C   UNL     1      -2.887   9.855  16.608  0.00  0.00    +0.000 A 
ATOM     17  C   UNL     1      -1.561   9.636  17.009  0.00  0.00    +0.000 A 
BRANCH  15  18
ATOM     18  O   UNL     1      -5.013  11.003  17.081  0.00  0.00    +0.000 OA
BRANCH  18  19
ATOM     19  C   UNL     1      -5.525  12.197  17.645  0.00  0.00    +0.000 C 
ATOM     20  F   UNL     1      -5.711  13.110  16.662  0.00  0.00    +0.000 F 
ATOM     21  F   UNL     1      -6.753  11.907  18.145  0.00  0.00    +0.000 F 
ENDBRANCH  18  19
ENDBRANCH  15  18
ENDBRANCH  11  12
ENDBRANCH   8  11
ENDBRANCH   1   9
BRANCH   4  22
ATOM     22  S   UNL     1       2.435   3.644  18.213  0.00  0.00    +0.000 S 
ATOM     23  O   UNL     1       1.599   2.728  18.965  0.00  0.00    +0.000 OA
ATOM     24  O   UNL     1       2.259   3.795  16.782  0.00  0.00    +0.000 OA
BRANCH  22  25
ATOM     25  N   UNL     1       4.082   3.285  18.547  0.00  0.00    +0.000 N 
ATOM     26  C   UNL     1       4.358   2.617  19.836  0.00  0.00    +0.000 C 
BRANCH  25  27
ATOM     27  C   UNL     1       5.059   4.230  18.062  0.00  0.00    +0.000 A 
ATOM     28  C   UNL     1       5.317   4.365  16.688  0.00  0.00    +0.000 A 
ATOM     29  C   UNL     1       6.334   5.208  16.236  0.00  0.00    +0.000 A 
ATOM     30  C   UNL     1       7.107   5.917  17.151  0.00  0.00    +0.000 A 
ATOM     31  C   UNL     1       6.867   5.781  18.518  0.00  0.00    +0.000 A 
ATOM     32  C   UNL     1       5.848   4.932  18.973  0.00  0.00    +0.000 A 
ENDBRANCH  25  27
ENDBRANCH  22  25
ENDBRANCH   4  22
TORSDOF 8
ENDMDL
MODEL 8
REMARK VINA RESULT:      -7.6      4.384      9.168
REMARK  Name = 
REMARK  10 active torsions:
REMARK  status: ('A' for Active; 'I' for Inactive)
REMARK    1  A    between atoms: C_1  and  N_2
REMARK    2  A    between atoms: N_2  and  C_3
REMARK    3  A    between atoms: C_3  and  C_4
REMARK    4  A    between atoms: C_7  and  O_8
REMARK    5  A    between atoms: O_8  and  C_9
REMARK    6  A    between atoms: C_14  and  C_16
REMARK    7  A    between atoms: C_19  and  S_20
REMARK    8  A    between atoms: S_20  and  N_23
REMARK    9  A    between atoms: N_23  and  C_24
REMARK   10  A    between atoms: N_23  and  C_25
REMARK                            x       y       z     vdW  Elec       q    Type
REMARK                         _______ _______ _______ _____ _____    ______ ____
ROOT
ATOM      1  C   UNL     1       1.588   7.325  20.081  0.00  0.00    +0.000 A 
ATOM      2  C   UNL     1       2.169   7.204  18.820  0.00  0.00    +0.000 A 
ATOM      3  C   UNL     1       2.362   5.967  18.222  0.00  0.00    +0.000 A 
ATOM      4  C   UNL     1       2.095   4.809  18.946  0.00  0.00    +0.000 A 
ATOM      5  C   UNL     1       1.534   4.886  20.224  0.00  0.00    +0.000 A 
ATOM      6  C   UNL     1       1.280   6.147  20.785  0.00  0.00    +0.000 A 
ENDROOT
BRANCH   1   9
ATOM      7  C   UNL     1       0.972  11.045  20.805  0.00  0.00    +0.000 C 
ATOM      8  N   UNL     1       1.058   9.806  20.041  0.00  0.00    +0.000 N 
ATOM      9  C   UNL     1       1.402   8.647  20.752  0.00  0.00    +0.000 C 
ATOM     10  O   UNL     1       1.570   8.662  21.976  0.00  0.00    +0.000 OA
BRANCH   8  11
ATOM     11  C   UNL     1       0.739   9.901  18.609  0.00  0.00    +0.000 C 
BRANCH  11  12
ATOM     12  C   UNL     1      -0.686  10.304  18.259  0.00  0.00    +0.000 A 
ATOM     13  C   UNL     1      -1.443   9.681  17.258  0.00  0.00    +0.000 A 
ATOM     14  C   UNL     1      -2.773  10.051  17.032  0.00  0.00    +0.000 A 
ATOM     15  C   UNL     1      -3.379  11.050  17.794  0.00  0.00    +0.000 A 
ATOM     16  C   UNL     1      -2.638  11.689  18.787  0.00  0.00    +0.000 A 
ATOM     17  C   UNL     1      -1.306  11.315  19.017  0.00  0.00    +0.000 A 
BRANCH  15  18
ATOM     18  O   UNL     1      -4.672  11.324  17.448  0.00  0.00    +0.000 OA
BRANCH  18  19
ATOM     19  C   UNL     1      -5.659  11.081  18.436  0.00  0.00    +0.000 C 
ATOM     20  F   UNL     1      -6.879  11.380  17.928  0.00  0.00    +0.000 F 
ATOM     21  F   UNL     1      -5.656   9.746  18.682  0.00  0.00    +0.000 F 
ENDBRANCH  18  19
ENDBRANCH  15  18
ENDBRANCH  11  12
ENDBRANCH   8  11
ENDBRANCH   1   9
BRANCH   4  22
ATOM     22  S   UNL     1       2.555   3.252  18.209  0.00  0.00    +0.000 S 
ATOM     23  O   UNL     1       1.785   2.218  18.873  0.00  0.00    +0.000 OA
ATOM     24  O   UNL     1       2.475   3.420  16.771  0.00  0.00    +0.000 OA
BRANCH  22  25
ATOM     25  N   UNL     1       4.203   3.091  18.669  0.00  0.00    +0.000 N 
ATOM     26  C   UNL     1       4.455   2.518  20.008  0.00  0.00    +0.000 C 
BRANCH  25  27
ATOM     27  C   UNL     1       5.106   4.113  18.199  0.00  0.00    +0.000 A 
ATOM     28  C   UNL     1       5.420   4.232  16.835  0.00  0.00    +0.000 A 
ATOM     29  C   UNL     1       6.372   5.159  16.404  0.00  0.00    +0.000 A 
ATOM     30  C   UNL     1       7.024   5.968  17.330  0.00  0.00    +0.000 A 
ATOM     31  C   UNL     1       6.728   5.850  18.688  0.00  0.00    +0.000 A 
ATOM     32  C   UNL     1       5.775   4.917  19.123  0.00  0.00    +0.000 A 
ENDBRANCH  25  27
ENDBRANCH  22  25
ENDBRANCH   4  22
TORSDOF 8
ENDMDL
MODEL 9
REMARK VINA RESULT:      -7.5      3.489      4.331
REMARK  Name = 
REMARK  10 active torsions:
REMARK  status: ('A' for Active; 'I' for Inactive)
REMARK    1  A    between atoms: C_1  and  N_2
REMARK    2  A    between atoms: N_2  and  C_3
REMARK    3  A    between atoms: C_3  and  C_4
REMARK    4  A    between atoms: C_7  and  O_8
REMARK    5  A    between atoms: O_8  and  C_9
REMARK    6  A    between atoms: C_14  and  C_16
REMARK    7  A    between atoms: C_19  and  S_20
REMARK    8  A    between atoms: S_20  and  N_23
REMARK    9  A    between atoms: N_23  and  C_24
REMARK   10  A    between atoms: N_23  and  C_25
REMARK                            x       y       z     vdW  Elec       q    Type
REMARK                         _______ _______ _______ _____ _____    ______ ____
ROOT
ATOM      1  C   UNL     1       2.567   5.972  19.501  0.00  0.00    +0.000 A 
ATOM      2  C   UNL     1       2.570   6.483  18.205  0.00  0.00    +0.000 A 
ATOM      3  C   UNL     1       2.217   7.798  17.938  0.00  0.00    +0.000 A 
ATOM      4  C   UNL     1       1.718   8.594  18.965  0.00  0.00    +0.000 A 
ATOM      5  C   UNL     1       1.675   8.112  20.276  0.00  0.00    +0.000 A 
ATOM      6  C   UNL     1       2.103   6.802  20.539  0.00  0.00    +0.000 A 
ENDROOT
BRANCH   1   9
ATOM      7  C   UNL     1       4.392   2.616  19.873  0.00  0.00    +0.000 C 
ATOM      8  N   UNL     1       4.202   4.036  19.603  0.00  0.00    +0.000 N 
ATOM      9  C   UNL     1       2.913   4.551  19.802  0.00  0.00    +0.000 C 
ATOM     10  O   UNL     1       1.995   3.850  20.239  0.00  0.00    +0.000 OA
BRANCH   8  11
ATOM     11  C   UNL     1       5.396   4.785  19.183  0.00  0.00    +0.000 C 
BRANCH  11  12
ATOM     12  C   UNL     1       5.731   4.748  17.699  0.00  0.00    +0.000 A 
ATOM     13  C   UNL     1       6.883   5.328  17.150  0.00  0.00    +0.000 A 
ATOM     14  C   UNL     1       7.169   5.198  15.787  0.00  0.00    +0.000 A 
ATOM     15  C   UNL     1       6.317   4.490  14.939  0.00  0.00    +0.000 A 
ATOM     16  C   UNL     1       5.161   3.915  15.465  0.00  0.00    +0.000 A 
ATOM     17  C   UNL     1       4.876   4.041  16.833  0.00  0.00    +0.000 A 
BRANCH  15  18
ATOM     18  O   UNL     1       6.708   4.465  13.631  0.00  0.00    +0.000 OA
BRANCH  18  19
ATOM     19  C   UNL     1       6.195   3.412  12.833  0.00  0.00    +0.000 C 
ATOM     20  F   UNL     1       4.987   3.776  12.339  0.00  0.00    +0.000 F 
ATOM     21  F   UNL     1       7.026   3.276  11.769  0.00  0.00    +0.000 F 
ENDBRANCH  18  19
ENDBRANCH  15  18
ENDBRANCH  11  12
ENDBRANCH   8  11
ENDBRANCH   1   9
BRANCH   4  22
ATOM     22  S   UNL     1       1.087  10.203  18.528  0.00  0.00    +0.000 S 
ATOM     23  O   UNL     1       2.182  10.948  17.938  0.00  0.00    +0.000 OA
ATOM     24  O   UNL     1      -0.142   9.993  17.789  0.00  0.00    +0.000 OA
BRANCH  22  25
ATOM     25  N   UNL     1       0.718  10.889  20.060  0.00  0.00    +0.000 N 
ATOM     26  C   UNL     1      -0.392  10.261  20.807  0.00  0.00    +0.000 C 
BRANCH  25  27
ATOM     27  C   UNL     1       0.883  12.317  20.184  0.00  0.00    +0.000 A 
ATOM     28  C   UNL     1       2.001  12.864  20.835  0.00  0.00    +0.000 A 
ATOM     29  C   UNL     1       2.101  14.242  21.037  0.00  0.00    +0.000 A 
ATOM     30  C   UNL     1       1.083  15.084  20.600  0.00  0.00    +0.000 A 
ATOM     31  C   UNL     1      -0.037  14.550  19.962  0.00  0.00    +0.000 A 
ATOM     32  C   UNL     1      -0.140  13.167  19.761  0.00  0.00    +0.000 A 
ENDBRANCH  25  27
ENDBRANCH  22  25
ENDBRANCH   4  22
TORSDOF 8
ENDMDL
