MODEL 1
REMARK VINA RESULT:      -7.6      0.000      0.000
REMARK  Name = 
REMARK  7 active torsions:
REMARK  status: ('A' for Active; 'I' for Inactive)
REMARK    1  A    between atoms: C_1  and  N_2
REMARK    2  A    between atoms: C_4  and  C_5
REMARK    3  A    between atoms: C_7  and  N_8
REMARK    4  A    between atoms: N_8  and  S_9
REMARK    5  A    between atoms: S_9  and  C_10
REMARK    6  A    between atoms: C_15  and  O_16
REMARK    7  A    between atoms: O_16  and  C_17
REMARK                            x       y       z     vdW  Elec       q    Type
REMARK                         _______ _______ _______ _____ _____    ______ ____
ROOT
ATOM      1  C   UNL     1       3.174   7.291  18.365  0.00  0.00    +0.000 A 
ATOM      2  C   UNL     1       2.735   8.499  17.772  0.00  0.00    +0.000 A 
ATOM      3  C   UNL     1       1.792   9.320  18.394  0.00  0.00    +0.000 A 
ATOM      4  C   UNL     1       1.209   8.929  19.589  0.00  0.00    +0.000 A 
ATOM      5  C   UNL     1       1.620   7.739  20.185  0.00  0.00    +0.000 A 
ATOM      6  C   UNL     1       2.620   6.934  19.608  0.00  0.00    +0.000 A 
ENDROOT
BRANCH   1  10
ATOM      7  C   UNL     1       4.334   2.981  16.388  0.00  0.00    +0.000 C 
ATOM      8  N   UNL     1       4.727   4.355  16.628  0.00  0.00    +0.000 N 
ATOM      9  C   UNL     1       3.823   5.262  17.199  0.00  0.00    +0.000 A 
ATOM     10  C   UNL     1       4.168   6.527  17.557  0.00  0.00    +0.000 A 
ATOM     11  C   UNL     1       5.536   6.920  17.353  0.00  0.00    +0.000 A 
ATOM     12  C   UNL     1       6.255   8.099  17.637  0.00  0.00    +0.000 A 
ATOM     13  C   UNL     1       7.572   7.860  17.283  0.00  0.00    +0.000 A 
ATOM     14  N   UNL     1       7.662   6.586  16.786  0.00  0.00    +0.000 N 
ATOM     15  C   UNL     1       6.423   6.006  16.822  0.00  0.00    +0.000 A 
ATOM     16  C   UNL     1       6.085   4.668  16.421  0.00  0.00    +0.000 A 
ATOM     17  O   UNL     1       6.911   3.878  15.970  0.00  0.00    +0.000 OA
ATOM     18  H   UNL     1       8.504   6.116  16.463  0.00  0.00    +0.000 HD
ENDBRANCH   1  10
BRANCH   3  19
ATOM     19  N   UNL     1       1.454  10.572  17.804  0.00  0.00    +0.000 N 
ATOM     20  H   UNL     1       2.114  10.897  17.094  0.00  0.00    +0.000 HD
BRANCH  19  21
ATOM     21  S   UNL     1       1.088  11.872  18.822  0.00  0.00    +0.000 S 
ATOM     22  C   UNL     1      -0.689  11.859  18.775  0.00  0.00    +0.000 C 
ATOM     23  O   UNL     1       1.537  11.593  20.165  0.00  0.00    +0.000 OA
ATOM     24  O   UNL     1       1.542  13.050  18.110  0.00  0.00    +0.000 OA
ENDBRANCH  19  21
ENDBRANCH   3  19
BRANCH   6  25
ATOM     25  O   UNL     1       2.809   5.781  20.306  0.00  0.00    +0.000 OA
BRANCH  25  26
ATOM     26  C   UNL     1       1.709   4.919  20.558  0.00  0.00    +0.000 C 
ATOM     27  C   UNL     1       1.338   4.098  19.321  0.00  0.00    +0.000 C 
ATOM     28  C   UNL     1       0.808   2.780  19.872  0.00  0.00    +0.000 C 
ATOM     29  C   UNL     1       1.501   2.572  21.213  0.00  0.00    +0.000 C 
ATOM     30  C   UNL     1       2.212   3.873  21.545  0.00  0.00    +0.000 C 
ENDBRANCH  25  26
ENDBRANCH   6  25
TORSDOF 5
ENDMDL
MODEL 2
REMARK VINA RESULT:      -7.5      1.651      1.821
REMARK  Name = 
REMARK  7 active torsions:
REMARK  status: ('A' for Active; 'I' for Inactive)
REMARK    1  A    between atoms: C_1  and  N_2
REMARK    2  A    between atoms: C_4  and  C_5
REMARK    3  A    between atoms: C_7  and  N_8
REMARK    4  A    between atoms: N_8  and  S_9
REMARK    5  A    between atoms: S_9  and  C_10
REMARK    6  A    between atoms: C_15  and  O_16
REMARK    7  A    between atoms: O_16  and  C_17
REMARK                            x       y       z     vdW  Elec       q    Type
REMARK                         _______ _______ _______ _____ _____    ______ ____
ROOT
ATOM      1  C   UNL     1       3.774   6.665  18.286  0.00  0.00    +0.000 A 
ATOM      2  C   UNL     1       3.204   7.849  17.759  0.00  0.00    +0.000 A 
ATOM      3  C   UNL     1       2.084   8.445  18.341  0.00  0.00    +0.000 A 
ATOM      4  C   UNL     1       1.458   7.845  19.422  0.00  0.00    +0.000 A 
ATOM      5  C   UNL     1       1.997   6.675  19.952  0.00  0.00    +0.000 A 
ATOM      6  C   UNL     1       3.167   6.098  19.422  0.00  0.00    +0.000 A 
ENDROOT
BRANCH   1  10
ATOM      7  C   UNL     1       5.368   4.681  14.120  0.00  0.00    +0.000 C 
ATOM      8  N   UNL     1       5.695   5.127  15.460  0.00  0.00    +0.000 N 
ATOM      9  C   UNL     1       4.748   5.815  16.231  0.00  0.00    +0.000 A 
ATOM     10  C   UNL     1       4.953   6.152  17.532  0.00  0.00    +0.000 A 
ATOM     11  C   UNL     1       6.199   5.752  18.127  0.00  0.00    +0.000 A 
ATOM     12  C   UNL     1       6.733   5.877  19.426  0.00  0.00    +0.000 A 
ATOM     13  C   UNL     1       7.954   5.224  19.422  0.00  0.00    +0.000 A 
ATOM     14  N   UNL     1       8.173   4.726  18.165  0.00  0.00    +0.000 N 
ATOM     15  C   UNL     1       7.109   5.046  17.367  0.00  0.00    +0.000 A 
ATOM     16  C   UNL     1       6.926   4.687  15.987  0.00  0.00    +0.000 A 
ATOM     17  O   UNL     1       7.753   4.039  15.351  0.00  0.00    +0.000 OA
ATOM     18  H   UNL     1       8.974   4.180  17.857  0.00  0.00    +0.000 HD
ENDBRANCH   1  10
BRANCH   3  19
ATOM     19  N   UNL     1       1.605   9.687  17.831  0.00  0.00    +0.000 N 
ATOM     20  H   UNL     1       2.264  10.175  17.220  0.00  0.00    +0.000 HD
BRANCH  19  21
ATOM     21  S   UNL     1       0.957  10.809  18.916  0.00  0.00    +0.000 S 
ATOM     22  C   UNL     1      -0.772  10.723  18.512  0.00  0.00    +0.000 C 
ATOM     23  O   UNL     1       1.158  10.362  20.274  0.00  0.00    +0.000 OA
ATOM     24  O   UNL     1       1.452  12.096  18.471  0.00  0.00    +0.000 OA
ENDBRANCH  19  21
ENDBRANCH   3  19
BRANCH   6  25
ATOM     25  O   UNL     1       3.472   4.920  20.031  0.00  0.00    +0.000 OA
BRANCH  25  26
ATOM     26  C   UNL     1       2.796   3.731  19.649  0.00  0.00    +0.000 C 
ATOM     27  C   UNL     1       2.307   3.798  18.200  0.00  0.00    +0.000 C 
ATOM     28  C   UNL     1       2.370   2.360  17.699  0.00  0.00    +0.000 C 
ATOM     29  C   UNL     1       3.475   1.682  18.499  0.00  0.00    +0.000 C 
ATOM     30  C   UNL     1       3.855   2.636  19.618  0.00  0.00    +0.000 C 
ENDBRANCH  25  26
ENDBRANCH   6  25
TORSDOF 5
ENDMDL
MODEL 3
REMARK VINA RESULT:      -7.4      3.734      7.877
REMARK  Name = 
REMARK  7 active torsions:
REMARK  status: ('A' for Active; 'I' for Inactive)
REMARK    1  A    between atoms: C_1  and  N_2
REMARK    2  A    between atoms: C_4  and  C_5
REMARK    3  A    between atoms: C_7  and  N_8
REMARK    4  A    between atoms: N_8  and  S_9
REMARK    5  A    between atoms: S_9  and  C_10
REMARK    6  A    between atoms: C_15  and  O_16
REMARK    7  A    between atoms: O_16  and  C_17
REMARK                            x       y       z     vdW  Elec       q    Type
REMARK                         _______ _______ _______ _____ _____    ______ ____
ROOT
ATOM      1  C   UNL     1       5.100   4.986  16.625  0.00  0.00    +0.000 A 
ATOM      2  C   UNL     1       5.082   4.005  15.604  0.00  0.00    +0.000 A 
ATOM      3  C   UNL     1       6.095   3.927  14.647  0.00  0.00    +0.000 A 
ATOM      4  C   UNL     1       7.118   4.861  14.637  0.00  0.00    +0.000 A 
ATOM      5  C   UNL     1       7.151   5.839  15.628  0.00  0.00    +0.000 A 
ATOM      6  C   UNL     1       6.177   5.891  16.642  0.00  0.00    +0.000 A 
ENDROOT
BRANCH   1  10
ATOM      7  C   UNL     1       2.218   7.528  19.636  0.00  0.00    +0.000 C 
ATOM      8  N   UNL     1       2.551   6.234  19.072  0.00  0.00    +0.000 N 
ATOM      9  C   UNL     1       3.491   6.131  18.038  0.00  0.00    +0.000 A 
ATOM     10  C   UNL     1       3.932   4.941  17.552  0.00  0.00    +0.000 A 
ATOM     11  C   UNL     1       3.411   3.747  18.160  0.00  0.00    +0.000 A 
ATOM     12  C   UNL     1       3.662   2.374  17.962  0.00  0.00    +0.000 A 
ATOM     13  C   UNL     1       2.913   1.690  18.906  0.00  0.00    +0.000 A 
ATOM     14  N   UNL     1       2.216   2.605  19.650  0.00  0.00    +0.000 N 
ATOM     15  C   UNL     1       2.511   3.863  19.200  0.00  0.00    +0.000 A 
ATOM     16  C   UNL     1       2.017   5.106  19.726  0.00  0.00    +0.000 A 
ATOM     17  O   UNL     1       1.230   5.166  20.667  0.00  0.00    +0.000 OA
ATOM     18  H   UNL     1       1.596   2.409  20.431  0.00  0.00    +0.000 HD
ENDBRANCH   1  10
BRANCH   3  19
ATOM     19  N   UNL     1       6.081   2.863  13.697  0.00  0.00    +0.000 N 
ATOM     20  H   UNL     1       6.872   2.220  13.771  0.00  0.00    +0.000 HD
BRANCH  19  21
ATOM     21  S   UNL     1       5.855   3.243  12.064  0.00  0.00    +0.000 S 
ATOM     22  C   UNL     1       6.077   1.651  11.305  0.00  0.00    +0.000 C 
ATOM     23  O   UNL     1       4.504   3.700  11.842  0.00  0.00    +0.000 OA
ATOM     24  O   UNL     1       6.993   4.067  11.707  0.00  0.00    +0.000 OA
ENDBRANCH  19  21
ENDBRANCH   3  19
BRANCH   6  25
ATOM     25  O   UNL     1       6.348   6.969  17.455  0.00  0.00    +0.000 OA
BRANCH  25  26
ATOM     26  C   UNL     1       7.562   7.705  17.406  0.00  0.00    +0.000 C 
ATOM     27  C   UNL     1       7.309   9.214  17.388  0.00  0.00    +0.000 C 
ATOM     28  C   UNL     1       8.503   9.819  18.117  0.00  0.00    +0.000 C 
ATOM     29  C   UNL     1       8.985   8.755  19.096  0.00  0.00    +0.000 C 
ATOM     30  C   UNL     1       8.249   7.473  18.746  0.00  0.00    +0.000 C 
ENDBRANCH  25  26
ENDBRANCH   6  25
TORSDOF 5
ENDMDL
MODEL 4
REMARK VINA RESULT:      -7.3      6.097      9.679
REMARK  Name = 
REMARK  7 active torsions:
REMARK  status: ('A' for Active; 'I' for Inactive)
REMARK    1  A    between atoms: C_1  and  N_2
REMARK    2  A    between atoms: C_4  and  C_5
REMARK    3  A    between atoms: C_7  and  N_8
REMARK    4  A    between atoms: N_8  and  S_9
REMARK    5  A    between atoms: S_9  and  C_10
REMARK    6  A    between atoms: C_15  and  O_16
REMARK    7  A    between atoms: O_16  and  C_17
REMARK                            x       y       z     vdW  Elec       q    Type
REMARK                         _______ _______ _______ _____ _____    ______ ____
ROOT
ATOM      1  C   UNL     1      -1.958  12.578  22.876  0.00  0.00    +0.000 A 
ATOM      2  C   UNL     1      -3.234  12.169  23.332  0.00  0.00    +0.000 A 
ATOM      3  C   UNL     1      -3.972  12.940  24.232  0.00  0.00    +0.000 A 
ATOM      4  C   UNL     1      -3.435  14.105  24.755  0.00  0.00    +0.000 A 
ATOM      5  C   UNL     1      -2.176  14.522  24.326  0.00  0.00    +0.000 A 
ATOM      6  C   UNL     1      -1.448  13.794  23.367  0.00  0.00    +0.000 A 
ENDROOT
BRANCH   1  10
ATOM      7  C   UNL     1       1.348   9.023  22.360  0.00  0.00    +0.000 C 
ATOM      8  N   UNL     1       0.384   9.893  21.715  0.00  0.00    +0.000 N 
ATOM      9  C   UNL     1      -0.462  10.707  22.480  0.00  0.00    +0.000 A 
ATOM     10  C   UNL     1      -1.300  11.628  21.934  0.00  0.00    +0.000 A 
ATOM     11  C   UNL     1      -1.280  11.770  20.503  0.00  0.00    +0.000 A 
ATOM     12  C   UNL     1      -1.953  12.626  19.609  0.00  0.00    +0.000 A 
ATOM     13  C   UNL     1      -1.464  12.348  18.343  0.00  0.00    +0.000 A 
ATOM     14  N   UNL     1      -0.534  11.347  18.450  0.00  0.00    +0.000 N 
ATOM     15  C   UNL     1      -0.417  10.986  19.765  0.00  0.00    +0.000 A 
ATOM     16  C   UNL     1       0.469   9.995  20.312  0.00  0.00    +0.000 A 
ATOM     17  O   UNL     1       1.236   9.332  19.619  0.00  0.00    +0.000 OA
ATOM     18  H   UNL     1       0.013  10.941  17.695  0.00  0.00    +0.000 HD
ENDBRANCH   1  10
BRANCH   3  19
ATOM     19  N   UNL     1      -5.291  12.533  24.587  0.00  0.00    +0.000 N 
ATOM     20  H   UNL     1      -5.365  11.562  24.899  0.00  0.00    +0.000 HD
BRANCH  19  21
ATOM     21  S   UNL     1      -6.551  12.838  23.500  0.00  0.00    +0.000 S 
ATOM     22  C   UNL     1      -6.272  14.552  23.120  0.00  0.00    +0.000 C 
ATOM     23  O   UNL     1      -6.380  12.045  22.307  0.00  0.00    +0.000 OA
ATOM     24  O   UNL     1      -7.762  12.751  24.291  0.00  0.00    +0.000 OA
ENDBRANCH  19  21
ENDBRANCH   3  19
BRANCH   6  25
ATOM     25  O   UNL     1      -0.215  14.328  23.154  0.00  0.00    +0.000 OA
BRANCH  25  26
ATOM     26  C   UNL     1       0.060  15.007  21.937  0.00  0.00    +0.000 C 
ATOM     27  C   UNL     1       0.584  16.423  22.184  0.00  0.00    +0.000 C 
ATOM     28  C   UNL     1       1.534  16.696  21.023  0.00  0.00    +0.000 C 
ATOM     29  C   UNL     1       2.075  15.339  20.591  0.00  0.00    +0.000 C 
ATOM     30  C   UNL     1       1.250  14.288  21.313  0.00  0.00    +0.000 C 
ENDBRANCH  25  26
ENDBRANCH   6  25
TORSDOF 5
ENDMDL
MODEL 5
REMARK VINA RESULT:      -7.3      2.424      6.466
REMARK  Name = 
REMARK  7 active torsions:
REMARK  status: ('A' for Active; 'I' for Inactive)
REMARK    1  A    between atoms: C_1  and  N_2
REMARK    2  A    between atoms: C_4  and  C_5
REMARK    3  A    between atoms: C_7  and  N_8
REMARK    4  A    between atoms: N_8  and  S_9
REMARK    5  A    between atoms: S_9  and  C_10
REMARK    6  A    between atoms: C_15  and  O_16
REMARK    7  A    between atoms: O_16  and  C_17
REMARK                            x       y       z     vdW  Elec       q    Type
REMARK                         _______ _______ _______ _____ _____    ______ ____
ROOT
ATOM      1  C   UNL     1       3.067   6.608  17.821  0.00  0.00    +0.000 A 
ATOM      2  C   UNL     1       4.247   6.932  17.109  0.00  0.00    +0.000 A 
ATOM      3  C   UNL     1       5.055   5.944  16.544  0.00  0.00    +0.000 A 
ATOM      4  C   UNL     1       4.751   4.605  16.729  0.00  0.00    +0.000 A 
ATOM      5  C   UNL     1       3.599   4.264  17.433  0.00  0.00    +0.000 A 
ATOM      6  C   UNL     1       2.734   5.247  17.949  0.00  0.00    +0.000 A 
ENDROOT
BRANCH   1  10
ATOM      7  C   UNL     1       2.316  11.423  17.529  0.00  0.00    +0.000 C 
ATOM      8  N   UNL     1       2.022  10.184  18.223  0.00  0.00    +0.000 N 
ATOM      9  C   UNL     1       2.472   8.960  17.711  0.00  0.00    +0.000 A 
ATOM     10  C   UNL     1       2.332   7.781  18.375  0.00  0.00    +0.000 A 
ATOM     11  C   UNL     1       1.710   7.825  19.670  0.00  0.00    +0.000 A 
ATOM     12  C   UNL     1       1.443   6.844  20.647  0.00  0.00    +0.000 A 
ATOM     13  C   UNL     1       0.891   7.500  21.734  0.00  0.00    +0.000 A 
ATOM     14  N   UNL     1       0.807   8.835  21.435  0.00  0.00    +0.000 N 
ATOM     15  C   UNL     1       1.302   9.042  20.176  0.00  0.00    +0.000 A 
ATOM     16  C   UNL     1       1.424  10.301  19.493  0.00  0.00    +0.000 A 
ATOM     17  O   UNL     1       1.065  11.366  19.989  0.00  0.00    +0.000 OA
ATOM     18  H   UNL     1       0.463   9.574  22.043  0.00  0.00    +0.000 HD
ENDBRANCH   1  10
BRANCH   3  19
ATOM     19  N   UNL     1       6.181   6.325  15.757  0.00  0.00    +0.000 N 
ATOM     20  H   UNL     1       5.964   6.965  14.990  0.00  0.00    +0.000 HD
BRANCH  19  21
ATOM     21  S   UNL     1       7.198   5.111  15.163  0.00  0.00    +0.000 S 
ATOM     22  C   UNL     1       6.031   4.052  14.341  0.00  0.00    +0.000 C 
ATOM     23  O   UNL     1       8.116   5.661  14.194  0.00  0.00    +0.000 OA
ATOM     24  O   UNL     1       7.680   4.413  16.338  0.00  0.00    +0.000 OA
ENDBRANCH  19  21
ENDBRANCH   3  19
BRANCH   6  25
ATOM     25  O   UNL     1       1.717   4.700  18.671  0.00  0.00    +0.000 OA
BRANCH  25  26
ATOM     26  C   UNL     1       1.933   3.498  19.395  0.00  0.00    +0.000 C 
ATOM     27  C   UNL     1       3.072   3.642  20.406  0.00  0.00    +0.000 C 
ATOM     28  C   UNL     1       2.689   2.723  21.560  0.00  0.00    +0.000 C 
ATOM     29  C   UNL     1       1.167   2.655  21.560  0.00  0.00    +0.000 C 
ATOM     30  C   UNL     1       0.699   3.308  20.270  0.00  0.00    +0.000 C 
ENDBRANCH  25  26
ENDBRANCH   6  25
TORSDOF 5
ENDMDL
MODEL 6
REMARK VINA RESULT:      -7.2      1.549      2.507
REMARK  Name = 
REMARK  7 active torsions:
REMARK  status: ('A' for Active; 'I' for Inactive)
REMARK    1  A    between atoms: C_1  and  N_2
REMARK    2  A    between atoms: C_4  and  C_5
REMARK    3  A    between atoms: C_7  and  N_8
REMARK    4  A    between atoms: N_8  and  S_9
REMARK    5  A    between atoms: S_9  and  C_10
REMARK    6  A    between atoms: C_15  and  O_16
REMARK    7  A    between atoms: O_16  and  C_17
REMARK                            x       y       z     vdW  Elec       q    Type
REMARK                         _______ _______ _______ _____ _____    ______ ____
ROOT
ATOM      1  C   UNL     1       3.403   6.165  19.303  0.00  0.00    +0.000 A 
ATOM      2  C   UNL     1       3.069   7.327  18.568  0.00  0.00    +0.000 A 
ATOM      3  C   UNL     1       1.956   8.105  18.893  0.00  0.00    +0.000 A 
ATOM      4  C   UNL     1       1.106   7.711  19.914  0.00  0.00    +0.000 A 
ATOM      5  C   UNL     1       1.411   6.565  20.645  0.00  0.00    +0.000 A 
ATOM      6  C   UNL     1       2.567   5.808  20.377  0.00  0.00    +0.000 A 
ENDROOT
BRANCH   1  10
ATOM      7  C   UNL     1       8.267   5.798  19.501  0.00  0.00    +0.000 C 
ATOM      8  N   UNL     1       7.033   5.324  18.905  0.00  0.00    +0.000 N 
ATOM      9  C   UNL     1       5.795   5.756  19.399  0.00  0.00    +0.000 A 
ATOM     10  C   UNL     1       4.610   5.442  18.810  0.00  0.00    +0.000 A 
ATOM     11  C   UNL     1       4.661   4.647  17.612  0.00  0.00    +0.000 A 
ATOM     12  C   UNL     1       3.673   4.177  16.723  0.00  0.00    +0.000 A 
ATOM     13  C   UNL     1       4.335   3.523  15.698  0.00  0.00    +0.000 A 
ATOM     14  N   UNL     1       5.681   3.575  15.951  0.00  0.00    +0.000 N 
ATOM     15  C   UNL     1       5.889   4.257  17.119  0.00  0.00    +0.000 A 
ATOM     16  C   UNL     1       7.155   4.561  17.727  0.00  0.00    +0.000 A 
ATOM     17  O   UNL     1       8.228   4.211  17.243  0.00  0.00    +0.000 OA
ATOM     18  H   UNL     1       6.425   3.200  15.368  0.00  0.00    +0.000 HD
ENDBRANCH   1  10
BRANCH   3  19
ATOM     19  N   UNL     1       1.716   9.318  18.184  0.00  0.00    +0.000 N 
ATOM     20  H   UNL     1       2.512   9.653  17.637  0.00  0.00    +0.000 HD
BRANCH  19  21
ATOM     21  S   UNL     1       1.061  10.630  19.027  0.00  0.00    +0.000 S 
ATOM     22  C   UNL     1      -0.616  10.618  18.437  0.00  0.00    +0.000 C 
ATOM     23  O   UNL     1       1.076  10.366  20.446  0.00  0.00    +0.000 OA
ATOM     24  O   UNL     1       1.716  11.798  18.475  0.00  0.00    +0.000 OA
ENDBRANCH  19  21
ENDBRANCH   3  19
BRANCH   6  25
ATOM     25  O   UNL     1       2.630   4.688  21.148  0.00  0.00    +0.000 OA
BRANCH  25  26
ATOM     26  C   UNL     1       1.932   3.517  20.751  0.00  0.00    +0.000 C 
ATOM     27  C   UNL     1       1.011   3.784  19.558  0.00  0.00    +0.000 C 
ATOM     28  C   UNL     1       0.991   2.474  18.780  0.00  0.00    +0.000 C 
ATOM     29  C   UNL     1       2.325   1.793  19.061  0.00  0.00    +0.000 C 
ATOM     30  C   UNL     1       2.985   2.572  20.186  0.00  0.00    +0.000 C 
ENDBRANCH  25  26
ENDBRANCH   6  25
TORSDOF 5
ENDMDL
MODEL 7
REMARK VINA RESULT:      -7.2      1.156      1.213
REMARK  Name = 
REMARK  7 active torsions:
REMARK  status: ('A' for Active; 'I' for Inactive)
REMARK    1  A    between atoms: C_1  and  N_2
REMARK    2  A    between atoms: C_4  and  C_5
REMARK    3  A    between atoms: C_7  and  N_8
REMARK    4  A    between atoms: N_8  and  S_9
REMARK    5  A    between atoms: S_9  and  C_10
REMARK    6  A    between atoms: C_15  and  O_16
REMARK    7  A    between atoms: O_16  and  C_17
REMARK                            x       y       z     vdW  Elec       q    Type
REMARK                         _______ _______ _______ _____ _____    ______ ____
ROOT
ATOM      1  C   UNL     1       3.529   6.945  18.211  0.00  0.00    +0.000 A 
ATOM      2  C   UNL     1       2.826   8.075  17.727  0.00  0.00    +0.000 A 
ATOM      3  C   UNL     1       1.741   8.614  18.421  0.00  0.00    +0.000 A 
ATOM      4  C   UNL     1       1.283   8.007  19.579  0.00  0.00    +0.000 A 
ATOM      5  C   UNL     1       1.956   6.889  20.068  0.00  0.00    +0.000 A 
ATOM      6  C   UNL     1       3.094   6.374  19.420  0.00  0.00    +0.000 A 
ENDROOT
BRANCH   1  10
ATOM      7  C   UNL     1       5.359   3.277  15.560  0.00  0.00    +0.000 C 
ATOM      8  N   UNL     1       5.542   4.623  16.065  0.00  0.00    +0.000 N 
ATOM      9  C   UNL     1       4.500   5.277  16.737  0.00  0.00    +0.000 A 
ATOM     10  C   UNL     1       4.648   6.488  17.337  0.00  0.00    +0.000 A 
ATOM     11  C   UNL     1       5.951   7.094  17.285  0.00  0.00    +0.000 A 
ATOM     12  C   UNL     1       6.483   8.286  17.817  0.00  0.00    +0.000 A 
ATOM     13  C   UNL     1       7.831   8.299  17.501  0.00  0.00    +0.000 A 
ATOM     14  N   UNL     1       8.119   7.164  16.789  0.00  0.00    +0.000 N 
ATOM     15  C   UNL     1       6.976   6.424  16.649  0.00  0.00    +0.000 A 
ATOM     16  C   UNL     1       6.847   5.151  15.995  0.00  0.00    +0.000 A 
ATOM     17  O   UNL     1       7.791   4.578  15.457  0.00  0.00    +0.000 OA
ATOM     18  H   UNL     1       9.029   6.881  16.434  0.00  0.00    +0.000 HD
ENDBRANCH   1  10
BRANCH   3  19
ATOM     19  N   UNL     1       1.126   9.808  17.942  0.00  0.00    +0.000 N 
ATOM     20  H   UNL     1       1.360  10.046  16.976  0.00  0.00    +0.000 HD
BRANCH  19  21
ATOM     21  S   UNL     1       1.247  11.210  18.879  0.00  0.00    +0.000 S 
ATOM     22  C   UNL     1      -0.267  12.040  18.459  0.00  0.00    +0.000 C 
ATOM     23  O   UNL     1       1.239  10.872  20.283  0.00  0.00    +0.000 OA
ATOM     24  O   UNL     1       2.341  11.961  18.296  0.00  0.00    +0.000 OA
ENDBRANCH  19  21
ENDBRANCH   3  19
BRANCH   6  25
ATOM     25  O   UNL     1       3.545   5.235  20.015  0.00  0.00    +0.000 OA
BRANCH  25  26
ATOM     26  C   UNL     1       2.815   4.026  19.868  0.00  0.00    +0.000 C 
ATOM     27  C   UNL     1       1.891   4.066  18.650  0.00  0.00    +0.000 C 
ATOM     28  C   UNL     1       1.832   2.625  18.156  0.00  0.00    +0.000 C 
ATOM     29  C   UNL     1       3.152   1.983  18.565  0.00  0.00    +0.000 C 
ATOM     30  C   UNL     1       3.840   2.958  19.505  0.00  0.00    +0.000 C 
ENDBRANCH  25  26
ENDBRANCH   6  25
TORSDOF 5
ENDMDL
MODEL 8
REMARK VINA RESULT:      -7.1      5.048      8.463
REMARK  Name = 
REMARK  7 active torsions:
REMARK  status: ('A' for Active; 'I' for Inactive)
REMARK    1  A    between atoms: C_1  and  N_2
REMARK    2  A    between atoms: C_4  and  C_5
REMARK    3  A    between atoms: C_7  and  N_8
REMARK    4  A    between atoms: N_8  and  S_9
REMARK    5  A    between atoms: S_9  and  C_10
REMARK    6  A    between atoms: C_15  and  O_16
REMARK    7  A    between atoms: O_16  and  C_17
REMARK                            x       y       z     vdW  Elec       q    Type
REMARK                         _______ _______ _______ _____ _____    ______ ____
ROOT
ATOM      1  C   UNL     1      -0.265  12.702  19.230  0.00  0.00    +0.000 A 
ATOM      2  C   UNL     1      -0.070  14.066  18.905  0.00  0.00    +0.000 A 
ATOM      3  C   UNL     1       1.114  14.733  19.226  0.00  0.00    +0.000 A 
ATOM      4  C   UNL     1       2.109  14.082  19.937  0.00  0.00    +0.000 A 
ATOM      5  C   UNL     1       1.934  12.742  20.274  0.00  0.00    +0.000 A 
ATOM      6  C   UNL     1       0.777  12.034  19.898  0.00  0.00    +0.000 A 
ENDROOT
BRANCH   1  10
ATOM      7  C   UNL     1      -2.993  10.931  15.589  0.00  0.00    +0.000 C 
ATOM      8  N   UNL     1      -2.927  11.317  16.985  0.00  0.00    +0.000 N 
ATOM      9  C   UNL     1      -1.702  11.668  17.567  0.00  0.00    +0.000 A 
ATOM     10  C   UNL     1      -1.593  12.152  18.833  0.00  0.00    +0.000 A 
ATOM     11  C   UNL     1      -2.810  12.324  19.579  0.00  0.00    +0.000 A 
ATOM     12  C   UNL     1      -3.092  12.830  20.865  0.00  0.00    +0.000 A 
ATOM     13  C   UNL     1      -4.469  12.821  21.006  0.00  0.00    +0.000 A 
ATOM     14  N   UNL     1      -5.018  12.316  19.857  0.00  0.00    +0.000 N 
ATOM     15  C   UNL     1      -4.013  12.007  18.981  0.00  0.00    +0.000 A 
ATOM     16  C   UNL     1      -4.158  11.481  17.652  0.00  0.00    +0.000 A 
ATOM     17  O   UNL     1      -5.250  11.230  17.149  0.00  0.00    +0.000 OA
ATOM     18  H   UNL     1      -6.008  12.204  19.653  0.00  0.00    +0.000 HD
ENDBRANCH   1  10
BRANCH   3  19
ATOM     19  N   UNL     1       1.299  16.079  18.794  0.00  0.00    +0.000 N 
ATOM     20  H   UNL     1       0.517  16.463  18.260  0.00  0.00    +0.000 HD
BRANCH  19  21
ATOM     21  S   UNL     1       2.735  16.479  17.995  0.00  0.00    +0.000 S 
ATOM     22  C   UNL     1       3.770  16.954  19.360  0.00  0.00    +0.000 C 
ATOM     23  O   UNL     1       3.289  15.311  17.353  0.00  0.00    +0.000 OA
ATOM     24  O   UNL     1       2.425  17.674  17.237  0.00  0.00    +0.000 OA
ENDBRANCH  19  21
ENDBRANCH   3  19
BRANCH   6  25
ATOM     25  O   UNL     1       0.773  10.768  20.397  0.00  0.00    +0.000 OA
BRANCH  25  26
ATOM     26  C   UNL     1       0.744   9.659  19.511  0.00  0.00    +0.000 C 
ATOM     27  C   UNL     1       1.610   9.901  18.272  0.00  0.00    +0.000 C 
ATOM     28  C   UNL     1       2.131   8.523  17.884  0.00  0.00    +0.000 C 
ATOM     29  C   UNL     1       2.187   7.713  19.173  0.00  0.00    +0.000 C 
ATOM     30  C   UNL     1       1.462   8.525  20.233  0.00  0.00    +0.000 C 
ENDBRANCH  25  26
ENDBRANCH   6  25
TORSDOF 5
ENDMDL
MODEL 9
REMARK VINA RESULT:      -7.1      6.336      8.734
REMARK  Name = 
REMARK  7 active torsions:
REMARK  status: ('A' for Active; 'I' for Inactive)
REMARK    1  A    between atoms: C_1  and  N_2
REMARK    2  A    between atoms: C_4  and  C_5
REMARK    3  A    between atoms: C_7  and  N_8
REMARK    4  A    between atoms: N_8  and  S_9
REMARK    5  A    between atoms: S_9  and  C_10
REMARK    6  A    between atoms: C_15  and  O_16
REMARK    7  A    between atoms: O_16  and  C_17
REMARK                            x       y       z     vdW  Elec       q    Type
REMARK                         _______ _______ _______ _____ _____    ______ ____
ROOT
ATOM      1  C   UNL     1      -0.421  12.726  18.942  0.00  0.00    +0.000 A 
ATOM      2  C   UNL     1      -0.303  14.115  18.697  0.00  0.00    +0.000 A 
ATOM      3  C   UNL     1       0.893  14.799  18.922  0.00  0.00    +0.000 A 
ATOM      4  C   UNL     1       1.984  14.137  19.459  0.00  0.00    +0.000 A 
ATOM      5  C   UNL     1       1.888  12.771  19.715  0.00  0.00    +0.000 A 
ATOM      6  C   UNL     1       0.713  12.050  19.429  0.00  0.00    +0.000 A 
ENDROOT
BRANCH   1  10
ATOM      7  C   UNL     1      -3.424  10.858  15.577  0.00  0.00    +0.000 C 
ATOM      8  N   UNL     1      -3.247  11.275  16.954  0.00  0.00    +0.000 N 
ATOM      9  C   UNL     1      -1.980  11.646  17.426  0.00  0.00    +0.000 A 
ATOM     10  C   UNL     1      -1.772  12.158  18.668  0.00  0.00    +0.000 A 
ATOM     11  C   UNL     1      -2.925  12.338  19.508  0.00  0.00    +0.000 A 
ATOM     12  C   UNL     1      -3.104  12.869  20.802  0.00  0.00    +0.000 A 
ATOM     13  C   UNL     1      -4.464  12.853  21.057  0.00  0.00    +0.000 A 
ATOM     14  N   UNL     1      -5.102  12.320  19.968  0.00  0.00    +0.000 N 
ATOM     15  C   UNL     1      -4.170  11.999  19.019  0.00  0.00    +0.000 A 
ATOM     16  C   UNL     1      -4.420  11.444  17.717  0.00  0.00    +0.000 A 
ATOM     17  O   UNL     1      -5.548  11.175  17.312  0.00  0.00    +0.000 OA
ATOM     18  H   UNL     1      -6.104  12.197  19.849  0.00  0.00    +0.000 HD
ENDBRANCH   1  10
BRANCH   3  19
ATOM     19  N   UNL     1       0.988  16.178  18.570  0.00  0.00    +0.000 N 
ATOM     20  H   UNL     1       1.930  16.486  18.321  0.00  0.00    +0.000 HD
BRANCH  19  21
ATOM     21  S   UNL     1       0.312  17.325  19.613  0.00  0.00    +0.000 S 
ATOM     22  C   UNL     1      -1.240  17.651  18.809  0.00  0.00    +0.000 C 
ATOM     23  O   UNL     1       0.071  16.738  20.909  0.00  0.00    +0.000 OA
ATOM     24  O   UNL     1       1.143  18.504  19.467  0.00  0.00    +0.000 OA
ENDBRANCH  19  21
ENDBRANCH   3  19
BRANCH   6  25
ATOM     25  O   UNL     1       0.803  10.753  19.832  0.00  0.00    +0.000 OA
BRANCH  25  26
ATOM     26  C   UNL     1       0.800  10.442  21.218  0.00  0.00    +0.000 C 
ATOM     27  C   UNL     1      -0.292  11.207  21.968  0.00  0.00    +0.000 C 
ATOM     28  C   UNL     1      -0.714  10.277  23.099  0.00  0.00    +0.000 C 
ATOM     29  C   UNL     1      -0.449   8.860  22.604  0.00  0.00    +0.000 C 
ATOM     30  C   UNL     1       0.355   8.988  21.321  0.00  0.00    +0.000 C 
ENDBRANCH  25  26
ENDBRANCH   6  25
TORSDOF 5
ENDMDL
