MODEL 1
REMARK VINA RESULT:      -8.0      0.000      0.000
REMARK  Name = 
REMARK  9 active torsions:
REMARK  status: ('A' for Active; 'I' for Inactive)
REMARK    1  A    between atoms: C_1  and  O_2
REMARK    2  A    between atoms: O_2  and  C_3
REMARK    3  A    between atoms: C_5  and  S_6
REMARK    4  A    between atoms: S_6  and  C_7
REMARK    5  A    between atoms: C_8  and  C_9
REMARK    6  A    between atoms: C_21  and  O_22
REMARK    7  A    between atoms: O_22  and  C_23
REMARK    8  A    between atoms: C_24  and  O_25
REMARK    9  A    between atoms: O_25  and  C_26
REMARK                            x       y       z     vdW  Elec       q    Type
REMARK                         _______ _______ _______ _____ _____    ______ ____
ROOT
ATOM      1  C   UNL     1       0.818  10.054  19.264  0.00  0.00    +0.000 A 
ATOM      2  C   UNL     1      -0.180  10.929  18.794  0.00  0.00    +0.000 A 
ATOM      3  N   UNL     1      -0.029  11.924  19.732  0.00  0.00    +0.000 N 
ATOM      4  C   UNL     1      -0.095  11.277  20.941  0.00  0.00    +0.000 A 
ATOM      5  C   UNL     1      -0.609  11.696  22.171  0.00  0.00    +0.000 A 
ATOM      6  C   UNL     1      -0.867  10.679  23.090  0.00  0.00    +0.000 A 
ATOM      7  C   UNL     1      -0.521   9.354  22.815  0.00  0.00    +0.000 A 
ATOM      8  C   UNL     1       0.158   9.003  21.630  0.00  0.00    +0.000 A 
ATOM      9  C   UNL     1       0.374   9.979  20.639  0.00  0.00    +0.000 A 
ATOM     10  H   UNL     1       0.039  12.933  19.567  0.00  0.00    +0.000 HD
ENDROOT
BRANCH   2  11
ATOM     11  C   UNL     1      -1.494  10.190  18.392  0.00  0.00    +0.000 C 
ATOM     12  C   UNL     1      -2.814  11.026  18.393  0.00  0.00    +0.000 C 
ATOM     13  C   UNL     1      -3.289  10.058  17.292  0.00  0.00    +0.000 C 
ATOM     14  C   UNL     1      -1.787   9.933  16.910  0.00  0.00    +0.000 C 
ENDBRANCH   2  11
BRANCH   1  15
ATOM     15  S   UNL     1       1.595   9.100  18.032  0.00  0.00    +0.000 S 
BRANCH  15  18
ATOM     16  C   UNL     1       2.783   5.677  19.853  0.00  0.00    +0.000 A 
ATOM     17  C   UNL     1       2.170   6.919  19.605  0.00  0.00    +0.000 A 
ATOM     18  C   UNL     1       2.560   7.728  18.554  0.00  0.00    +0.000 A 
ATOM     19  C   UNL     1       3.583   7.258  17.718  0.00  0.00    +0.000 A 
ATOM     20  C   UNL     1       4.246   6.046  17.969  0.00  0.00    +0.000 A 
ATOM     21  C   UNL     1       3.862   5.239  19.060  0.00  0.00    +0.000 A 
BRANCH  16  23
ATOM     22  C   UNL     1       1.205   4.091  20.602  0.00  0.00    +0.000 C 
ATOM     23  O   UNL     1       2.340   4.908  20.898  0.00  0.00    +0.000 OA
ENDBRANCH  16  23
BRANCH  20  24
ATOM     24  O   UNL     1       5.161   5.728  16.991  0.00  0.00    +0.000 OA
ATOM     25  C   UNL     1       6.380   6.466  16.976  0.00  0.00    +0.000 C 
ENDBRANCH  20  24
BRANCH  21  26
ATOM     26  O   UNL     1       4.597   4.102  19.247  0.00  0.00    +0.000 OA
ATOM     27  C   UNL     1       4.156   2.835  18.792  0.00  0.00    +0.000 C 
ENDBRANCH  21  26
ENDBRANCH  15  18
ENDBRANCH   1  15
TORSDOF 6
ENDMDL
MODEL 2
REMARK VINA RESULT:      -7.7      0.336      2.526
REMARK  Name = 
REMARK  9 active torsions:
REMARK  status: ('A' for Active; 'I' for Inactive)
REMARK    1  A    between atoms: C_1  and  O_2
REMARK    2  A    between atoms: O_2  and  C_3
REMARK    3  A    between atoms: C_5  and  S_6
REMARK    4  A    between atoms: S_6  and  C_7
REMARK    5  A    between atoms: C_8  and  C_9
REMARK    6  A    between atoms: C_21  and  O_22
REMARK    7  A    between atoms: O_22  and  C_23
REMARK    8  A    between atoms: C_24  and  O_25
REMARK    9  A    between atoms: O_25  and  C_26
REMARK                            x       y       z     vdW  Elec       q    Type
REMARK                         _______ _______ _______ _____ _____    ______ ____
ROOT
ATOM      1  C   UNL     1       0.896   9.987  19.159  0.00  0.00    +0.000 A 
ATOM      2  C   UNL     1      -0.132  10.879  18.794  0.00  0.00    +0.000 A 
ATOM      3  N   UNL     1       0.025  11.789  19.813  0.00  0.00    +0.000 N 
ATOM      4  C   UNL     1       0.005  11.037  20.960  0.00  0.00    +0.000 A 
ATOM      5  C   UNL     1      -0.483  11.334  22.235  0.00  0.00    +0.000 A 
ATOM      6  C   UNL     1      -0.697  10.234  23.066  0.00  0.00    +0.000 A 
ATOM      7  C   UNL     1      -0.333   8.947  22.665  0.00  0.00    +0.000 A 
ATOM      8  C   UNL     1       0.321   8.716  21.437  0.00  0.00    +0.000 A 
ATOM      9  C   UNL     1       0.490   9.781  20.532  0.00  0.00    +0.000 A 
ATOM     10  H   UNL     1       0.069  12.810  19.736  0.00  0.00    +0.000 HD
ENDROOT
BRANCH   2  11
ATOM     11  C   UNL     1      -1.442  10.149  18.361  0.00  0.00    +0.000 C 
ATOM     12  C   UNL     1      -2.773  10.962  18.443  0.00  0.00    +0.000 C 
ATOM     13  C   UNL     1      -3.253  10.068  17.283  0.00  0.00    +0.000 C 
ATOM     14  C   UNL     1      -1.756   9.994  16.869  0.00  0.00    +0.000 C 
ENDBRANCH   2  11
BRANCH   1  15
ATOM     15  S   UNL     1       1.657   9.163  17.827  0.00  0.00    +0.000 S 
BRANCH  15  18
ATOM     16  C   UNL     1       4.448   6.229  18.061  0.00  0.00    +0.000 A 
ATOM     17  C   UNL     1       3.674   7.307  17.594  0.00  0.00    +0.000 A 
ATOM     18  C   UNL     1       2.461   7.638  18.168  0.00  0.00    +0.000 A 
ATOM     19  C   UNL     1       2.028   6.870  19.258  0.00  0.00    +0.000 A 
ATOM     20  C   UNL     1       2.754   5.759  19.715  0.00  0.00    +0.000 A 
ATOM     21  C   UNL     1       3.978   5.410  19.107  0.00  0.00    +0.000 A 
BRANCH  16  23
ATOM     22  C   UNL     1       6.493   7.102  17.275  0.00  0.00    +0.000 C 
ATOM     23  O   UNL     1       5.653   5.962  17.465  0.00  0.00    +0.000 OA
ENDBRANCH  16  23
BRANCH  20  24
ATOM     24  O   UNL     1       2.203   5.190  20.841  0.00  0.00    +0.000 OA
ATOM     25  C   UNL     1       1.181   4.216  20.644  0.00  0.00    +0.000 C 
ENDBRANCH  20  24
BRANCH  21  26
ATOM     26  O   UNL     1       4.585   4.287  19.593  0.00  0.00    +0.000 OA
ATOM     27  C   UNL     1       4.321   2.999  19.066  0.00  0.00    +0.000 C 
ENDBRANCH  21  26
ENDBRANCH  15  18
ENDBRANCH   1  15
TORSDOF 6
ENDMDL
MODEL 3
REMARK VINA RESULT:      -7.6      3.270      7.472
REMARK  Name = 
REMARK  9 active torsions:
REMARK  status: ('A' for Active; 'I' for Inactive)
REMARK    1  A    between atoms: C_1  and  O_2
REMARK    2  A    between atoms: O_2  and  C_3
REMARK    3  A    between atoms: C_5  and  S_6
REMARK    4  A    between atoms: S_6  and  C_7
REMARK    5  A    between atoms: C_8  and  C_9
REMARK    6  A    between atoms: C_21  and  O_22
REMARK    7  A    between atoms: O_22  and  C_23
REMARK    8  A    between atoms: C_24  and  O_25
REMARK    9  A    between atoms: O_25  and  C_26
REMARK                            x       y       z     vdW  Elec       q    Type
REMARK                         _______ _______ _______ _____ _____    ______ ____
ROOT
ATOM      1  C   UNL     1       2.115   6.105  18.684  0.00  0.00    +0.000 A 
ATOM      2  C   UNL     1       2.462   5.233  17.634  0.00  0.00    +0.000 A 
ATOM      3  N   UNL     1       1.404   4.361  17.743  0.00  0.00    +0.000 N 
ATOM      4  C   UNL     1       1.392   3.990  19.064  0.00  0.00    +0.000 A 
ATOM      5  C   UNL     1       1.042   2.779  19.666  0.00  0.00    +0.000 A 
ATOM      6  C   UNL     1       1.497   2.606  20.973  0.00  0.00    +0.000 A 
ATOM      7  C   UNL     1       2.160   3.634  21.648  0.00  0.00    +0.000 A 
ATOM      8  C   UNL     1       2.336   4.904  21.061  0.00  0.00    +0.000 A 
ATOM      9  C   UNL     1       1.962   5.105  19.719  0.00  0.00    +0.000 A 
ATOM     10  H   UNL     1       0.807   4.007  16.990  0.00  0.00    +0.000 HD
ENDROOT
BRANCH   2  11
ATOM     11  C   UNL     1       3.984   4.887  17.610  0.00  0.00    +0.000 C 
ATOM     12  C   UNL     1       4.393   3.501  17.020  0.00  0.00    +0.000 C 
ATOM     13  C   UNL     1       5.715   4.189  16.628  0.00  0.00    +0.000 C 
ATOM     14  C   UNL     1       4.874   5.492  16.519  0.00  0.00    +0.000 C 
ENDBRANCH   2  11
BRANCH   1  15
ATOM     15  S   UNL     1       2.606   7.760  18.455  0.00  0.00    +0.000 S 
BRANCH  15  18
ATOM     16  C   UNL     1      -0.583  10.261  18.301  0.00  0.00    +0.000 A 
ATOM     17  C   UNL     1       0.515   9.467  17.924  0.00  0.00    +0.000 A 
ATOM     18  C   UNL     1       1.440   9.015  18.847  0.00  0.00    +0.000 A 
ATOM     19  C   UNL     1       1.237   9.359  20.191  0.00  0.00    +0.000 A 
ATOM     20  C   UNL     1       0.178  10.190  20.590  0.00  0.00    +0.000 A 
ATOM     21  C   UNL     1      -0.745  10.671  19.640  0.00  0.00    +0.000 A 
BRANCH  16  23
ATOM     22  C   UNL     1      -2.645   9.844  17.235  0.00  0.00    +0.000 C 
ATOM     23  O   UNL     1      -1.479  10.663  17.344  0.00  0.00    +0.000 OA
ENDBRANCH  16  23
BRANCH  20  24
ATOM     24  O   UNL     1       0.108  10.343  21.957  0.00  0.00    +0.000 OA
ATOM     25  C   UNL     1      -0.276   9.202  22.720  0.00  0.00    +0.000 C 
ENDBRANCH  20  24
BRANCH  21  26
ATOM     26  O   UNL     1      -1.711  11.509  20.119  0.00  0.00    +0.000 OA
ATOM     27  C   UNL     1      -1.538  12.915  20.161  0.00  0.00    +0.000 C 
ENDBRANCH  21  26
ENDBRANCH  15  18
ENDBRANCH   1  15
TORSDOF 6
ENDMDL
MODEL 4
REMARK VINA RESULT:      -7.6      3.457      7.208
REMARK  Name = 
REMARK  9 active torsions:
REMARK  status: ('A' for Active; 'I' for Inactive)
REMARK    1  A    between atoms: C_1  and  O_2
REMARK    2  A    between atoms: O_2  and  C_3
REMARK    3  A    between atoms: C_5  and  S_6
REMARK    4  A    between atoms: S_6  and  C_7
REMARK    5  A    between atoms: C_8  and  C_9
REMARK    6  A    between atoms: C_21  and  O_22
REMARK    7  A    between atoms: O_22  and  C_23
REMARK    8  A    between atoms: C_24  and  O_25
REMARK    9  A    between atoms: O_25  and  C_26
REMARK                            x       y       z     vdW  Elec       q    Type
REMARK                         _______ _______ _______ _____ _____    ______ ____
ROOT
ATOM      1  C   UNL     1       2.047   6.009  18.622  0.00  0.00    +0.000 A 
ATOM      2  C   UNL     1       2.436   5.117  17.604  0.00  0.00    +0.000 A 
ATOM      3  N   UNL     1       1.408   4.212  17.731  0.00  0.00    +0.000 N 
ATOM      4  C   UNL     1       1.395   3.883  19.063  0.00  0.00    +0.000 A 
ATOM      5  C   UNL     1       1.081   2.680  19.701  0.00  0.00    +0.000 A 
ATOM      6  C   UNL     1       1.528   2.566  21.018  0.00  0.00    +0.000 A 
ATOM      7  C   UNL     1       2.147   3.638  21.664  0.00  0.00    +0.000 A 
ATOM      8  C   UNL     1       2.284   4.894  21.038  0.00  0.00    +0.000 A 
ATOM      9  C   UNL     1       1.918   5.039  19.687  0.00  0.00    +0.000 A 
ATOM     10  H   UNL     1       0.831   3.813  16.984  0.00  0.00    +0.000 HD
ENDROOT
BRANCH   2  11
ATOM     11  C   UNL     1       3.968   4.825  17.605  0.00  0.00    +0.000 C 
ATOM     12  C   UNL     1       4.437   3.460  17.010  0.00  0.00    +0.000 C 
ATOM     13  C   UNL     1       5.741   4.197  16.650  0.00  0.00    +0.000 C 
ATOM     14  C   UNL     1       4.857   5.471  16.537  0.00  0.00    +0.000 C 
ENDBRANCH   2  11
BRANCH   1  15
ATOM     15  S   UNL     1       2.482   7.672  18.343  0.00  0.00    +0.000 S 
BRANCH  15  18
ATOM     16  C   UNL     1       0.946   9.919  21.350  0.00  0.00    +0.000 A 
ATOM     17  C   UNL     1       1.407   8.823  20.599  0.00  0.00    +0.000 A 
ATOM     18  C   UNL     1       1.597   8.903  19.232  0.00  0.00    +0.000 A 
ATOM     19  C   UNL     1       1.334  10.133  18.611  0.00  0.00    +0.000 A 
ATOM     20  C   UNL     1       0.827  11.229  19.327  0.00  0.00    +0.000 A 
ATOM     21  C   UNL     1       0.609  11.131  20.717  0.00  0.00    +0.000 A 
BRANCH  16  23
ATOM     22  C   UNL     1      -0.502   9.364  23.128  0.00  0.00    +0.000 C 
ATOM     23  O   UNL     1       0.797   9.786  22.707  0.00  0.00    +0.000 OA
ENDBRANCH  16  23
BRANCH  20  24
ATOM     24  O   UNL     1       0.711  12.362  18.553  0.00  0.00    +0.000 OA
ATOM     25  C   UNL     1       1.899  13.114  18.319  0.00  0.00    +0.000 C 
ENDBRANCH  20  24
BRANCH  21  26
ATOM     26  O   UNL     1       0.071  12.236  21.314  0.00  0.00    +0.000 OA
ATOM     27  C   UNL     1      -1.326  12.471  21.346  0.00  0.00    +0.000 C 
ENDBRANCH  21  26
ENDBRANCH  15  18
ENDBRANCH   1  15
TORSDOF 6
ENDMDL
MODEL 5
REMARK VINA RESULT:      -7.5      3.216      7.468
REMARK  Name = 
REMARK  9 active torsions:
REMARK  status: ('A' for Active; 'I' for Inactive)
REMARK    1  A    between atoms: C_1  and  O_2
REMARK    2  A    between atoms: O_2  and  C_3
REMARK    3  A    between atoms: C_5  and  S_6
REMARK    4  A    between atoms: S_6  and  C_7
REMARK    5  A    between atoms: C_8  and  C_9
REMARK    6  A    between atoms: C_21  and  O_22
REMARK    7  A    between atoms: O_22  and  C_23
REMARK    8  A    between atoms: C_24  and  O_25
REMARK    9  A    between atoms: O_25  and  C_26
REMARK                            x       y       z     vdW  Elec       q    Type
REMARK                         _______ _______ _______ _____ _____    ______ ____
ROOT
ATOM      1  C   UNL     1       2.502   6.236  18.310  0.00  0.00    +0.000 A 
ATOM      2  C   UNL     1       3.542   5.551  17.652  0.00  0.00    +0.000 A 
ATOM      3  N   UNL     1       2.880   4.370  17.412  0.00  0.00    +0.000 N 
ATOM      4  C   UNL     1       2.379   3.996  18.633  0.00  0.00    +0.000 A 
ATOM      5  C   UNL     1       2.184   2.728  19.188  0.00  0.00    +0.000 A 
ATOM      6  C   UNL     1       2.017   2.700  20.573  0.00  0.00    +0.000 A 
ATOM      7  C   UNL     1       1.942   3.881  21.314  0.00  0.00    +0.000 A 
ATOM      8  C   UNL     1       1.965   5.144  20.688  0.00  0.00    +0.000 A 
ATOM      9  C   UNL     1       2.208   5.228  19.304  0.00  0.00    +0.000 A 
ATOM     10  H   UNL     1       2.838   3.846  16.533  0.00  0.00    +0.000 HD
ENDROOT
BRANCH   2  11
ATOM     11  C   UNL     1       4.927   5.744  18.345  0.00  0.00    +0.000 C 
ATOM     12  C   UNL     1       5.870   4.501  18.418  0.00  0.00    +0.000 C 
ATOM     13  C   UNL     1       7.024   5.521  18.399  0.00  0.00    +0.000 C 
ATOM     14  C   UNL     1       6.064   6.423  17.573  0.00  0.00    +0.000 C 
ENDBRANCH   2  11
BRANCH   1  15
ATOM     15  S   UNL     1       2.504   7.963  18.083  0.00  0.00    +0.000 S 
BRANCH  15  18
ATOM     16  C   UNL     1       0.594  10.078  20.970  0.00  0.00    +0.000 A 
ATOM     17  C   UNL     1       1.390   9.118  20.318  0.00  0.00    +0.000 A 
ATOM     18  C   UNL     1       1.299   8.899  18.956  0.00  0.00    +0.000 A 
ATOM     19  C   UNL     1       0.394   9.687  18.230  0.00  0.00    +0.000 A 
ATOM     20  C   UNL     1      -0.447  10.618  18.861  0.00  0.00    +0.000 A 
ATOM     21  C   UNL     1      -0.369  10.816  20.254  0.00  0.00    +0.000 A 
BRANCH  16  23
ATOM     22  C   UNL     1      -0.148   9.500  23.133  0.00  0.00    +0.000 C 
ATOM     23  O   UNL     1       0.744  10.265  22.319  0.00  0.00    +0.000 OA
ENDBRANCH  16  23
BRANCH  20  24
ATOM     24  O   UNL     1      -1.202  11.342  17.966  0.00  0.00    +0.000 OA
ATOM     25  C   UNL     1      -2.132  10.619  17.164  0.00  0.00    +0.000 C 
ENDBRANCH  20  24
BRANCH  21  26
ATOM     26  O   UNL     1      -1.260  11.709  20.779  0.00  0.00    +0.000 OA
ATOM     27  C   UNL     1      -0.914  13.060  21.030  0.00  0.00    +0.000 C 
ENDBRANCH  21  26
ENDBRANCH  15  18
ENDBRANCH   1  15
TORSDOF 6
ENDMDL
MODEL 6
REMARK VINA RESULT:      -7.5      3.331      7.545
REMARK  Name = 
REMARK  9 active torsions:
REMARK  status: ('A' for Active; 'I' for Inactive)
REMARK    1  A    between atoms: C_1  and  O_2
REMARK    2  A    between atoms: O_2  and  C_3
REMARK    3  A    between atoms: C_5  and  S_6
REMARK    4  A    between atoms: S_6  and  C_7
REMARK    5  A    between atoms: C_8  and  C_9
REMARK    6  A    between atoms: C_21  and  O_22
REMARK    7  A    between atoms: O_22  and  C_23
REMARK    8  A    between atoms: C_24  and  O_25
REMARK    9  A    between atoms: O_25  and  C_26
REMARK                            x       y       z     vdW  Elec       q    Type
REMARK                         _______ _______ _______ _____ _____    ______ ____
ROOT
ATOM      1  C   UNL     1       2.085   6.104  18.700  0.00  0.00    +0.000 A 
ATOM      2  C   UNL     1       2.461   5.256  17.640  0.00  0.00    +0.000 A 
ATOM      3  N   UNL     1       1.430   4.351  17.736  0.00  0.00    +0.000 N 
ATOM      4  C   UNL     1       1.426   3.963  19.052  0.00  0.00    +0.000 A 
ATOM      5  C   UNL     1       1.111   2.735  19.639  0.00  0.00    +0.000 A 
ATOM      6  C   UNL     1       1.569   2.560  20.945  0.00  0.00    +0.000 A 
ATOM      7  C   UNL     1       2.198   3.599  21.633  0.00  0.00    +0.000 A 
ATOM      8  C   UNL     1       2.336   4.881  21.062  0.00  0.00    +0.000 A 
ATOM      9  C   UNL     1       1.960   5.088  19.722  0.00  0.00    +0.000 A 
ATOM     10  H   UNL     1       0.845   3.988  16.977  0.00  0.00    +0.000 HD
ENDROOT
BRANCH   2  11
ATOM     11  C   UNL     1       3.992   4.957  17.616  0.00  0.00    +0.000 C 
ATOM     12  C   UNL     1       4.445   3.592  17.009  0.00  0.00    +0.000 C 
ATOM     13  C   UNL     1       5.746   4.324  16.630  0.00  0.00    +0.000 C 
ATOM     14  C   UNL     1       4.866   5.603  16.535  0.00  0.00    +0.000 C 
ENDBRANCH   2  11
BRANCH   1  15
ATOM     15  S   UNL     1       2.526   7.776  18.492  0.00  0.00    +0.000 S 
BRANCH  15  18
ATOM     16  C   UNL     1      -0.074  10.848  18.996  0.00  0.00    +0.000 A 
ATOM     17  C   UNL     1       0.963  10.040  18.496  0.00  0.00    +0.000 A 
ATOM     18  C   UNL     1       1.485   8.988  19.225  0.00  0.00    +0.000 A 
ATOM     19  C   UNL     1       0.928   8.732  20.486  0.00  0.00    +0.000 A 
ATOM     20  C   UNL     1      -0.074   9.551  21.032  0.00  0.00    +0.000 A 
ATOM     21  C   UNL     1      -0.582  10.640  20.294  0.00  0.00    +0.000 A 
BRANCH  16  23
ATOM     22  C   UNL     1       0.057  13.134  18.428  0.00  0.00    +0.000 C 
ATOM     23  O   UNL     1      -0.565  11.864  18.219  0.00  0.00    +0.000 OA
ENDBRANCH  16  23
BRANCH  20  24
ATOM     24  O   UNL     1      -0.540   9.087  22.241  0.00  0.00    +0.000 OA
ATOM     25  C   UNL     1       0.232   9.397  23.398  0.00  0.00    +0.000 C 
ENDBRANCH  20  24
BRANCH  21  26
ATOM     26  O   UNL     1      -1.521  11.403  20.929  0.00  0.00    +0.000 OA
ATOM     27  C   UNL     1      -1.168  12.416  21.856  0.00  0.00    +0.000 C 
ENDBRANCH  21  26
ENDBRANCH  15  18
ENDBRANCH   1  15
TORSDOF 6
ENDMDL
MODEL 7
REMARK VINA RESULT:      -7.2      3.380      7.357
REMARK  Name = 
REMARK  9 active torsions:
REMARK  status: ('A' for Active; 'I' for Inactive)
REMARK    1  A    between atoms: C_1  and  O_2
REMARK    2  A    between atoms: O_2  and  C_3
REMARK    3  A    between atoms: C_5  and  S_6
REMARK    4  A    between atoms: S_6  and  C_7
REMARK    5  A    between atoms: C_8  and  C_9
REMARK    6  A    between atoms: C_21  and  O_22
REMARK    7  A    between atoms: O_22  and  C_23
REMARK    8  A    between atoms: C_24  and  O_25
REMARK    9  A    between atoms: O_25  and  C_26
REMARK                            x       y       z     vdW  Elec       q    Type
REMARK                         _______ _______ _______ _____ _____    ______ ____
ROOT
ATOM      1  C   UNL     1       2.598   6.309  18.295  0.00  0.00    +0.000 A 
ATOM      2  C   UNL     1       3.600   5.570  17.636  0.00  0.00    +0.000 A 
ATOM      3  N   UNL     1       2.868   4.436  17.373  0.00  0.00    +0.000 N 
ATOM      4  C   UNL     1       2.334   4.076  18.584  0.00  0.00    +0.000 A 
ATOM      5  C   UNL     1       2.056   2.815  19.119  0.00  0.00    +0.000 A 
ATOM      6  C   UNL     1       1.875   2.777  20.501  0.00  0.00    +0.000 A 
ATOM      7  C   UNL     1       1.866   3.950  21.259  0.00  0.00    +0.000 A 
ATOM      8  C   UNL     1       1.974   5.218  20.652  0.00  0.00    +0.000 A 
ATOM      9  C   UNL     1       2.233   5.307  19.272  0.00  0.00    +0.000 A 
ATOM     10  H   UNL     1       2.801   3.928  16.486  0.00  0.00    +0.000 HD
ENDROOT
BRANCH   2  11
ATOM     11  C   UNL     1       4.988   5.667  18.342  0.00  0.00    +0.000 C 
ATOM     12  C   UNL     1       5.901   4.400  18.302  0.00  0.00    +0.000 C 
ATOM     13  C   UNL     1       7.079   5.390  18.375  0.00  0.00    +0.000 C 
ATOM     14  C   UNL     1       6.142   6.386  17.635  0.00  0.00    +0.000 C 
ENDBRANCH   2  11
BRANCH   1  15
ATOM     15  S   UNL     1       2.710   8.035  18.094  0.00  0.00    +0.000 S 
BRANCH  15  18
ATOM     16  C   UNL     1       0.101   9.581  20.788  0.00  0.00    +0.000 A 
ATOM     17  C   UNL     1       0.887   8.675  20.053  0.00  0.00    +0.000 A 
ATOM     18  C   UNL     1       1.466   9.023  18.847  0.00  0.00    +0.000 A 
ATOM     19  C   UNL     1       1.262  10.330  18.382  0.00  0.00    +0.000 A 
ATOM     20  C   UNL     1       0.444  11.240  19.070  0.00  0.00    +0.000 A 
ATOM     21  C   UNL     1      -0.167  10.869  20.286  0.00  0.00    +0.000 A 
BRANCH  16  23
ATOM     22  C   UNL     1       0.407   9.422  23.122  0.00  0.00    +0.000 C 
ATOM     23  O   UNL     1      -0.430   9.185  21.988  0.00  0.00    +0.000 OA
ENDBRANCH  16  23
BRANCH  20  24
ATOM     24  O   UNL     1       0.437  12.490  18.493  0.00  0.00    +0.000 OA
ATOM     25  C   UNL     1       1.613  13.281  18.640  0.00  0.00    +0.000 C 
ENDBRANCH  20  24
BRANCH  21  26
ATOM     26  O   UNL     1      -0.980  11.808  20.854  0.00  0.00    +0.000 OA
ATOM     27  C   UNL     1      -0.512  12.719  21.833  0.00  0.00    +0.000 C 
ENDBRANCH  21  26
ENDBRANCH  15  18
ENDBRANCH   1  15
TORSDOF 6
ENDMDL
MODEL 8
REMARK VINA RESULT:      -7.2      3.335      7.438
REMARK  Name = 
REMARK  9 active torsions:
REMARK  status: ('A' for Active; 'I' for Inactive)
REMARK    1  A    between atoms: C_1  and  O_2
REMARK    2  A    between atoms: O_2  and  C_3
REMARK    3  A    between atoms: C_5  and  S_6
REMARK    4  A    between atoms: S_6  and  C_7
REMARK    5  A    between atoms: C_8  and  C_9
REMARK    6  A    between atoms: C_21  and  O_22
REMARK    7  A    between atoms: O_22  and  C_23
REMARK    8  A    between atoms: C_24  and  O_25
REMARK    9  A    between atoms: O_25  and  C_26
REMARK                            x       y       z     vdW  Elec       q    Type
REMARK                         _______ _______ _______ _____ _____    ______ ____
ROOT
ATOM      1  C   UNL     1       1.961   6.243  18.905  0.00  0.00    +0.000 A 
ATOM      2  C   UNL     1       2.399   5.535  17.769  0.00  0.00    +0.000 A 
ATOM      3  N   UNL     1       1.408   4.582  17.736  0.00  0.00    +0.000 N 
ATOM      4  C   UNL     1       1.393   4.051  19.000  0.00  0.00    +0.000 A 
ATOM      5  C   UNL     1       1.121   2.752  19.439  0.00  0.00    +0.000 A 
ATOM      6  C   UNL     1       1.556   2.452  20.730  0.00  0.00    +0.000 A 
ATOM      7  C   UNL     1       2.122   3.435  21.546  0.00  0.00    +0.000 A 
ATOM      8  C   UNL     1       2.215   4.777  21.124  0.00  0.00    +0.000 A 
ATOM      9  C   UNL     1       1.859   5.115  19.804  0.00  0.00    +0.000 A 
ATOM     10  H   UNL     1       0.858   4.281  16.926  0.00  0.00    +0.000 HD
ENDROOT
BRANCH   2  11
ATOM     11  C   UNL     1       3.943   5.307  17.754  0.00  0.00    +0.000 C 
ATOM     12  C   UNL     1       4.459   3.943  17.196  0.00  0.00    +0.000 C 
ATOM     13  C   UNL     1       5.725   4.721  16.790  0.00  0.00    +0.000 C 
ATOM     14  C   UNL     1       4.786   5.953  16.650  0.00  0.00    +0.000 C 
ENDBRANCH   2  11
BRANCH   1  15
ATOM     15  S   UNL     1       2.330   7.945  18.895  0.00  0.00    +0.000 S 
BRANCH  15  18
ATOM     16  C   UNL     1       0.160  10.545  21.126  0.00  0.00    +0.000 A 
ATOM     17  C   UNL     1       0.977   9.465  20.746  0.00  0.00    +0.000 A 
ATOM     18  C   UNL     1       1.074   9.052  19.430  0.00  0.00    +0.000 A 
ATOM     19  C   UNL     1       0.340   9.763  18.470  0.00  0.00    +0.000 A 
ATOM     20  C   UNL     1      -0.522  10.813  18.827  0.00  0.00    +0.000 A 
ATOM     21  C   UNL     1      -0.637  11.212  20.174  0.00  0.00    +0.000 A 
BRANCH  16  23
ATOM     22  C   UNL     1      -0.874  10.261  23.228  0.00  0.00    +0.000 C 
ATOM     23  O   UNL     1       0.120  10.923  22.443  0.00  0.00    +0.000 OA
ENDBRANCH  16  23
BRANCH  20  24
ATOM     24  O   UNL     1      -1.088  11.430  17.734  0.00  0.00    +0.000 OA
ATOM     25  C   UNL     1      -2.217  10.795  17.140  0.00  0.00    +0.000 C 
ENDBRANCH  20  24
BRANCH  21  26
ATOM     26  O   UNL     1      -1.535  12.211  20.425  0.00  0.00    +0.000 OA
ATOM     27  C   UNL     1      -1.138  13.564  20.564  0.00  0.00    +0.000 C 
ENDBRANCH  21  26
ENDBRANCH  15  18
ENDBRANCH   1  15
TORSDOF 6
ENDMDL
MODEL 9
REMARK VINA RESULT:      -7.2      3.314      7.385
REMARK  Name = 
REMARK  9 active torsions:
REMARK  status: ('A' for Active; 'I' for Inactive)
REMARK    1  A    between atoms: C_1  and  O_2
REMARK    2  A    between atoms: O_2  and  C_3
REMARK    3  A    between atoms: C_5  and  S_6
REMARK    4  A    between atoms: S_6  and  C_7
REMARK    5  A    between atoms: C_8  and  C_9
REMARK    6  A    between atoms: C_21  and  O_22
REMARK    7  A    between atoms: O_22  and  C_23
REMARK    8  A    between atoms: C_24  and  O_25
REMARK    9  A    between atoms: O_25  and  C_26
REMARK                            x       y       z     vdW  Elec       q    Type
REMARK                         _______ _______ _______ _____ _____    ______ ____
ROOT
ATOM      1  C   UNL     1       3.183   6.914  18.250  0.00  0.00    +0.000 A 
ATOM      2  C   UNL     1       2.931   5.822  19.103  0.00  0.00    +0.000 A 
ATOM      3  N   UNL     1       4.145   5.791  19.749  0.00  0.00    +0.000 N 
ATOM      4  C   UNL     1       5.075   5.766  18.741  0.00  0.00    +0.000 A 
ATOM      5  C   UNL     1       6.326   5.147  18.671  0.00  0.00    +0.000 A 
ATOM      6  C   UNL     1       6.850   4.997  17.387  0.00  0.00    +0.000 A 
ATOM      7  C   UNL     1       6.199   5.538  16.276  0.00  0.00    +0.000 A 
ATOM      8  C   UNL     1       5.027   6.311  16.414  0.00  0.00    +0.000 A 
ATOM      9  C   UNL     1       4.419   6.427  17.678  0.00  0.00    +0.000 A 
ATOM     10  H   UNL     1       4.314   5.722  20.757  0.00  0.00    +0.000 HD
ENDROOT
BRANCH   2  11
ATOM     11  C   UNL     1       2.204   4.644  18.382  0.00  0.00    +0.000 C 
ATOM     12  C   UNL     1       2.996   3.309  18.218  0.00  0.00    +0.000 C 
ATOM     13  C   UNL     1       1.617   2.622  18.256  0.00  0.00    +0.000 C 
ATOM     14  C   UNL     1       1.175   3.812  19.155  0.00  0.00    +0.000 C 
ENDBRANCH   2  11
BRANCH   1  15
ATOM     15  S   UNL     1       1.783   7.870  17.851  0.00  0.00    +0.000 S 
BRANCH  15  18
ATOM     16  C   UNL     1       1.128   9.963  21.262  0.00  0.00    +0.000 A 
ATOM     17  C   UNL     1       1.234   8.907  20.338  0.00  0.00    +0.000 A 
ATOM     18  C   UNL     1       1.314   9.134  18.977  0.00  0.00    +0.000 A 
ATOM     19  C   UNL     1       1.309  10.467  18.540  0.00  0.00    +0.000 A 
ATOM     20  C   UNL     1       1.155  11.538  19.435  0.00  0.00    +0.000 A 
ATOM     21  C   UNL     1       1.046  11.297  20.820  0.00  0.00    +0.000 A 
BRANCH  16  23
ATOM     22  C   UNL     1      -0.243   9.455  23.114  0.00  0.00    +0.000 C 
ATOM     23  O   UNL     1       1.073   9.676  22.602  0.00  0.00    +0.000 OA
ENDBRANCH  16  23
BRANCH  20  24
ATOM     24  O   UNL     1       1.255  12.765  18.817  0.00  0.00    +0.000 OA
ATOM     25  C   UNL     1       2.519  13.111  18.259  0.00  0.00    +0.000 C 
ENDBRANCH  20  24
BRANCH  21  26
ATOM     26  O   UNL     1       0.854  12.401  21.602  0.00  0.00    +0.000 OA
ATOM     27  C   UNL     1      -0.438  12.915  21.877  0.00  0.00    +0.000 C 
ENDBRANCH  21  26
ENDBRANCH  15  18
ENDBRANCH   1  15
TORSDOF 6
ENDMDL
