MODEL 1
REMARK VINA RESULT:      -8.4      0.000      0.000
REMARK  Name = 
REMARK  5 active torsions:
REMARK  status: ('A' for Active; 'I' for Inactive)
REMARK    1  A    between atoms: N_8  and  C_9
REMARK    2  A    between atoms: C_9  and  C_10
REMARK    3  A    between atoms: C_10  and  C_11
REMARK    4  A    between atoms: C_11  and  C_12
REMARK    5  A    between atoms: C_18  and  N_19
REMARK                            x       y       z     vdW  Elec       q    Type
REMARK                         _______ _______ _______ _____ _____    ______ ____
ROOT
ATOM      1  C   UNL     1       1.899   8.661  18.541  0.00  0.00    +0.000 C 
ENDROOT
BRANCH   1   2
ATOM      2  C   UNL     1       2.230   7.397  19.258  0.00  0.00    +0.000 A 
ATOM      3  C   UNL     1       1.690   6.951  20.445  0.00  0.00    +0.000 A 
ATOM      4  N   UNL     1       2.219   5.719  20.720  0.00  0.00    +0.000 N 
ATOM      5  C   UNL     1       3.103   5.352  19.734  0.00  0.00    +0.000 A 
ATOM      6  C   UNL     1       3.855   4.184  19.582  0.00  0.00    +0.000 A 
ATOM      7  C   UNL     1       4.695   4.091  18.466  0.00  0.00    +0.000 A 
ATOM      8  C   UNL     1       4.791   5.138  17.536  0.00  0.00    +0.000 A 
ATOM      9  C   UNL     1       4.015   6.294  17.706  0.00  0.00    +0.000 A 
ATOM     10  C   UNL     1       3.153   6.399  18.818  0.00  0.00    +0.000 A 
ATOM     11  H   UNL     1       1.990   5.157  21.526  0.00  0.00    +0.000 HD
BRANCH   8  12
ATOM     12  N   UNL     1       5.672   5.038  16.427  0.00  0.00    +0.000 N 
ATOM     13  C   UNL     1       5.536   4.262  15.304  0.00  0.00    +0.000 A 
ATOM     14  N   UNL     1       6.564   4.428  14.501  0.00  0.00    +0.000 NA
ATOM     15  N   UNL     1       7.406   5.330  15.088  0.00  0.00    +0.000 NA
ATOM     16  C   UNL     1       6.868   5.689  16.236  0.00  0.00    +0.000 A 
ENDBRANCH   8  12
ENDBRANCH   1   2
BRANCH   1  17
ATOM     17  C   UNL     1       1.297   9.694  19.498  0.00  0.00    +0.000 C 
BRANCH  17  18
ATOM     18  C   UNL     1      -0.202   9.885  19.257  0.00  0.00    +0.000 C 
BRANCH  18  26
ATOM     19  C   UNL     1      -7.233  11.809  19.446  0.00  0.00    +0.000 A 
ATOM     20  C   UNL     1      -6.244  12.673  19.831  0.00  0.00    +0.000 A 
ATOM     21  N   UNL     1      -4.961  12.557  19.446  0.00  0.00    +0.000 NA
ATOM     22  C   UNL     1      -4.645  11.530  18.637  0.00  0.00    +0.000 A 
ATOM     23  N   UNL     1      -3.328  11.383  18.220  0.00  0.00    +0.000 N 
ATOM     24  C   UNL     1      -2.962  10.010  17.860  0.00  0.00    +0.000 C 
ATOM     25  C   UNL     1      -1.564  10.001  17.208  0.00  0.00    +0.000 C 
ATOM     26  N   UNL     1      -0.500  10.637  18.025  0.00  0.00    +0.000 NA
ATOM     27  C   UNL     1      -0.946  12.018  18.340  0.00  0.00    +0.000 C 
ATOM     28  C   UNL     1      -2.335  12.112  19.016  0.00  0.00    +0.000 C 
ATOM     29  N   UNL     1      -5.559  10.646  18.203  0.00  0.00    +0.000 NA
ATOM     30  C   UNL     1      -6.830  10.802  18.608  0.00  0.00    +0.000 A 
ENDBRANCH  18  26
ENDBRANCH  17  18
ENDBRANCH   1  17
TORSDOF 5
ENDMDL
MODEL 2
REMARK VINA RESULT:      -8.4      7.097     10.669
REMARK  Name = 
REMARK  5 active torsions:
REMARK  status: ('A' for Active; 'I' for Inactive)
REMARK    1  A    between atoms: N_8  and  C_9
REMARK    2  A    between atoms: C_9  and  C_10
REMARK    3  A    between atoms: C_10  and  C_11
REMARK    4  A    between atoms: C_11  and  C_12
REMARK    5  A    between atoms: C_18  and  N_19
REMARK                            x       y       z     vdW  Elec       q    Type
REMARK                         _______ _______ _______ _____ _____    ______ ____
ROOT
ATOM      1  C   UNL     1       8.733   9.289  18.985  0.00  0.00    +0.000 C 
ENDROOT
BRANCH   1   2
ATOM      2  C   UNL     1       9.461  10.589  18.951  0.00  0.00    +0.000 A 
ATOM      3  C   UNL     1      10.196  11.101  17.904  0.00  0.00    +0.000 A 
ATOM      4  N   UNL     1      10.644  12.344  18.262  0.00  0.00    +0.000 N 
ATOM      5  C   UNL     1      10.218  12.653  19.532  0.00  0.00    +0.000 A 
ATOM      6  C   UNL     1      10.411  13.808  20.294  0.00  0.00    +0.000 A 
ATOM      7  C   UNL     1       9.863  13.838  21.582  0.00  0.00    +0.000 A 
ATOM      8  C   UNL     1       9.155  12.741  22.098  0.00  0.00    +0.000 A 
ATOM      9  C   UNL     1       8.965  11.599  21.306  0.00  0.00    +0.000 A 
ATOM     10  C   UNL     1       9.499  11.558  20.001  0.00  0.00    +0.000 A 
ATOM     11  H   UNL     1      11.200  12.950  17.678  0.00  0.00    +0.000 HD
BRANCH   8  12
ATOM     12  N   UNL     1       8.634  12.777  23.419  0.00  0.00    +0.000 N 
ATOM     13  C   UNL     1       8.225  11.724  24.197  0.00  0.00    +0.000 A 
ATOM     14  N   UNL     1       7.789  12.152  25.361  0.00  0.00    +0.000 NA
ATOM     15  N   UNL     1       7.907  13.513  25.372  0.00  0.00    +0.000 NA
ATOM     16  C   UNL     1       8.412  13.879  24.210  0.00  0.00    +0.000 A 
ENDBRANCH   8  12
ENDBRANCH   1   2
BRANCH   1  17
ATOM     17  C   UNL     1       8.297   8.867  17.579  0.00  0.00    +0.000 C 
BRANCH  17  18
ATOM     18  C   UNL     1       7.194   7.807  17.620  0.00  0.00    +0.000 C 
BRANCH  18  26
ATOM     19  C   UNL     1       1.735   3.202  19.085  0.00  0.00    +0.000 A 
ATOM     20  C   UNL     1       2.048   3.554  17.802  0.00  0.00    +0.000 A 
ATOM     21  N   UNL     1       3.246   4.038  17.432  0.00  0.00    +0.000 NA
ATOM     22  C   UNL     1       4.182   4.179  18.389  0.00  0.00    +0.000 A 
ATOM     23  N   UNL     1       5.431   4.676  18.039  0.00  0.00    +0.000 N 
ATOM     24  C   UNL     1       6.150   5.322  19.142  0.00  0.00    +0.000 C 
ATOM     25  C   UNL     1       7.596   5.633  18.705  0.00  0.00    +0.000 C 
ATOM     26  N   UNL     1       7.704   6.434  17.460  0.00  0.00    +0.000 NA
ATOM     27  C   UNL     1       6.957   5.710  16.399  0.00  0.00    +0.000 C 
ATOM     28  C   UNL     1       5.489   5.378  16.753  0.00  0.00    +0.000 C 
ATOM     29  N   UNL     1       3.958   3.843  19.671  0.00  0.00    +0.000 NA
ATOM     30  C   UNL     1       2.749   3.359  19.994  0.00  0.00    +0.000 A 
ENDBRANCH  18  26
ENDBRANCH  17  18
ENDBRANCH   1  17
TORSDOF 5
ENDMDL
MODEL 3
REMARK VINA RESULT:      -8.4      1.473      2.013
REMARK  Name = 
REMARK  5 active torsions:
REMARK  status: ('A' for Active; 'I' for Inactive)
REMARK    1  A    between atoms: N_8  and  C_9
REMARK    2  A    between atoms: C_9  and  C_10
REMARK    3  A    between atoms: C_10  and  C_11
REMARK    4  A    between atoms: C_11  and  C_12
REMARK    5  A    between atoms: C_18  and  N_19
REMARK                            x       y       z     vdW  Elec       q    Type
REMARK                         _______ _______ _______ _____ _____    ______ ____
ROOT
ATOM      1  C   UNL     1       1.890   6.704  20.711  0.00  0.00    +0.000 C 
ENDROOT
BRANCH   1   2
ATOM      2  C   UNL     1       1.873   5.351  20.087  0.00  0.00    +0.000 A 
ATOM      3  C   UNL     1       0.975   4.335  20.334  0.00  0.00    +0.000 A 
ATOM      4  N   UNL     1       1.276   3.287  19.507  0.00  0.00    +0.000 N 
ATOM      5  C   UNL     1       2.362   3.597  18.725  0.00  0.00    +0.000 A 
ATOM      6  C   UNL     1       3.004   2.852  17.731  0.00  0.00    +0.000 A 
ATOM      7  C   UNL     1       4.112   3.428  17.100  0.00  0.00    +0.000 A 
ATOM      8  C   UNL     1       4.576   4.704  17.459  0.00  0.00    +0.000 A 
ATOM      9  C   UNL     1       3.905   5.434  18.451  0.00  0.00    +0.000 A 
ATOM     10  C   UNL     1       2.777   4.874  19.088  0.00  0.00    +0.000 A 
ATOM     11  H   UNL     1       0.771   2.414  19.471  0.00  0.00    +0.000 HD
BRANCH   8  12
ATOM     12  N   UNL     1       5.721   5.258  16.830  0.00  0.00    +0.000 N 
ATOM     13  C   UNL     1       6.228   4.970  15.588  0.00  0.00    +0.000 A 
ATOM     14  N   UNL     1       7.312   5.677  15.357  0.00  0.00    +0.000 NA
ATOM     15  N   UNL     1       7.540   6.457  16.456  0.00  0.00    +0.000 NA
ATOM     16  C   UNL     1       6.588   6.201  17.330  0.00  0.00    +0.000 A 
ENDBRANCH   8  12
ENDBRANCH   1   2
BRANCH   1  17
ATOM     17  C   UNL     1       1.858   7.801  19.644  0.00  0.00    +0.000 C 
BRANCH  17  18
ATOM     18  C   UNL     1       1.114   9.046  20.131  0.00  0.00    +0.000 C 
BRANCH  18  26
ATOM     19  C   UNL     1      -5.341  12.220  18.933  0.00  0.00    +0.000 A 
ATOM     20  C   UNL     1      -4.496  12.665  19.913  0.00  0.00    +0.000 A 
ATOM     21  N   UNL     1      -3.173  12.423  19.923  0.00  0.00    +0.000 NA
ATOM     22  C   UNL     1      -2.665  11.703  18.908  0.00  0.00    +0.000 A 
ATOM     23  N   UNL     1      -1.302  11.437  18.888  0.00  0.00    +0.000 N 
ATOM     24  C   UNL     1      -0.935  10.232  18.136  0.00  0.00    +0.000 C 
ATOM     25  C   UNL     1       0.599  10.158  17.994  0.00  0.00    +0.000 C 
ATOM     26  N   UNL     1       1.340  10.227  19.278  0.00  0.00    +0.000 NA
ATOM     27  C   UNL     1       0.916  11.471  19.970  0.00  0.00    +0.000 C 
ATOM     28  C   UNL     1      -0.611  11.613  20.170  0.00  0.00    +0.000 C 
ATOM     29  N   UNL     1      -3.425  11.241  17.900  0.00  0.00    +0.000 NA
ATOM     30  C   UNL     1      -4.739  11.509  17.927  0.00  0.00    +0.000 A 
ENDBRANCH  18  26
ENDBRANCH  17  18
ENDBRANCH   1  17
TORSDOF 5
ENDMDL
MODEL 4
REMARK VINA RESULT:      -8.4      1.732      2.622
REMARK  Name = 
REMARK  5 active torsions:
REMARK  status: ('A' for Active; 'I' for Inactive)
REMARK    1  A    between atoms: N_8  and  C_9
REMARK    2  A    between atoms: C_9  and  C_10
REMARK    3  A    between atoms: C_10  and  C_11
REMARK    4  A    between atoms: C_11  and  C_12
REMARK    5  A    between atoms: C_18  and  N_19
REMARK                            x       y       z     vdW  Elec       q    Type
REMARK                         _______ _______ _______ _____ _____    ______ ____
ROOT
ATOM      1  C   UNL     1       1.928   6.088  20.899  0.00  0.00    +0.000 C 
ENDROOT
BRANCH   1   2
ATOM      2  C   UNL     1       1.714   4.807  20.167  0.00  0.00    +0.000 A 
ATOM      3  C   UNL     1       0.635   3.958  20.278  0.00  0.00    +0.000 A 
ATOM      4  N   UNL     1       0.803   2.933  19.387  0.00  0.00    +0.000 N 
ATOM      5  C   UNL     1       1.979   3.094  18.696  0.00  0.00    +0.000 A 
ATOM      6  C   UNL     1       2.547   2.316  17.683  0.00  0.00    +0.000 A 
ATOM      7  C   UNL     1       3.783   2.722  17.165  0.00  0.00    +0.000 A 
ATOM      8  C   UNL     1       4.439   3.864  17.653  0.00  0.00    +0.000 A 
ATOM      9  C   UNL     1       3.840   4.633  18.662  0.00  0.00    +0.000 A 
ATOM     10  C   UNL     1       2.588   4.245  19.185  0.00  0.00    +0.000 A 
ATOM     11  H   UNL     1       0.155   2.172  19.251  0.00  0.00    +0.000 HD
BRANCH   8  12
ATOM     12  N   UNL     1       5.706   4.242  17.138  0.00  0.00    +0.000 N 
ATOM     13  C   UNL     1       6.119   4.256  15.829  0.00  0.00    +0.000 A 
ATOM     14  N   UNL     1       7.368   4.656  15.744  0.00  0.00    +0.000 NA
ATOM     15  N   UNL     1       7.807   4.918  17.011  0.00  0.00    +0.000 NA
ATOM     16  C   UNL     1       6.810   4.668  17.837  0.00  0.00    +0.000 A 
ENDBRANCH   8  12
ENDBRANCH   1   2
BRANCH   1  17
ATOM     17  C   UNL     1       2.050   7.264  19.926  0.00  0.00    +0.000 C 
BRANCH  17  18
ATOM     18  C   UNL     1       1.053   8.378  20.253  0.00  0.00    +0.000 C 
BRANCH  18  26
ATOM     19  C   UNL     1      -4.686  11.467  16.985  0.00  0.00    +0.000 A 
ATOM     20  C   UNL     1      -4.354  11.764  18.278  0.00  0.00    +0.000 A 
ATOM     21  N   UNL     1      -3.128  11.575  18.795  0.00  0.00    +0.000 NA
ATOM     22  C   UNL     1      -2.183  11.063  17.985  0.00  0.00    +0.000 A 
ATOM     23  N   UNL     1      -0.905  10.857  18.489  0.00  0.00    +0.000 N 
ATOM     24  C   UNL     1      -0.144   9.817  17.788  0.00  0.00    +0.000 C 
ATOM     25  C   UNL     1       1.318   9.826  18.279  0.00  0.00    +0.000 C 
ATOM     26  N   UNL     1       1.474   9.697  19.749  0.00  0.00    +0.000 NA
ATOM     27  C   UNL     1       0.681  10.784  20.379  0.00  0.00    +0.000 C 
ATOM     28  C   UNL     1      -0.806  10.831  19.952  0.00  0.00    +0.000 C 
ATOM     29  N   UNL     1      -2.425  10.757  16.699  0.00  0.00    +0.000 NA
ATOM     30  C   UNL     1      -3.662  10.967  16.223  0.00  0.00    +0.000 A 
ENDBRANCH  18  26
ENDBRANCH  17  18
ENDBRANCH   1  17
TORSDOF 5
ENDMDL
MODEL 5
REMARK VINA RESULT:      -8.2      3.399      4.876
REMARK  Name = 
REMARK  5 active torsions:
REMARK  status: ('A' for Active; 'I' for Inactive)
REMARK    1  A    between atoms: N_8  and  C_9
REMARK    2  A    between atoms: C_9  and  C_10
REMARK    3  A    between atoms: C_10  and  C_11
REMARK    4  A    between atoms: C_11  and  C_12
REMARK    5  A    between atoms: C_18  and  N_19
REMARK                            x       y       z     vdW  Elec       q    Type
REMARK                         _______ _______ _______ _____ _____    ______ ____
ROOT
ATOM      1  C   UNL     1       1.837   6.333  20.878  0.00  0.00    +0.000 C 
ENDROOT
BRANCH   1   2
ATOM      2  C   UNL     1       1.812   5.103  20.036  0.00  0.00    +0.000 A 
ATOM      3  C   UNL     1       0.888   4.082  20.087  0.00  0.00    +0.000 A 
ATOM      4  N   UNL     1       1.193   3.179  19.104  0.00  0.00    +0.000 N 
ATOM      5  C   UNL     1       2.307   3.590  18.412  0.00  0.00    +0.000 A 
ATOM      6  C   UNL     1       2.962   3.007  17.325  0.00  0.00    +0.000 A 
ATOM      7  C   UNL     1       4.099   3.653  16.827  0.00  0.00    +0.000 A 
ATOM      8  C   UNL     1       4.576   4.840  17.406  0.00  0.00    +0.000 A 
ATOM      9  C   UNL     1       3.891   5.410  18.489  0.00  0.00    +0.000 A 
ATOM     10  C   UNL     1       2.735   4.779  18.994  0.00  0.00    +0.000 A 
ATOM     11  H   UNL     1       0.673   2.337  18.910  0.00  0.00    +0.000 HD
BRANCH   8  12
ATOM     12  N   UNL     1       5.750   5.464  16.907  0.00  0.00    +0.000 N 
ATOM     13  C   UNL     1       6.594   5.017  15.922  0.00  0.00    +0.000 A 
ATOM     14  N   UNL     1       7.584   5.864  15.744  0.00  0.00    +0.000 NA
ATOM     15  N   UNL     1       7.407   6.899  16.618  0.00  0.00    +0.000 NA
ATOM     16  C   UNL     1       6.311   6.653  17.309  0.00  0.00    +0.000 A 
ENDBRANCH   8  12
ENDBRANCH   1   2
BRANCH   1  17
ATOM     17  C   UNL     1       1.823   7.594  20.009  0.00  0.00    +0.000 C 
BRANCH  17  18
ATOM     18  C   UNL     1       1.320   8.813  20.785  0.00  0.00    +0.000 C 
BRANCH  18  26
ATOM     19  C   UNL     1       3.368  15.585  19.022  0.00  0.00    +0.000 A 
ATOM     20  C   UNL     1       3.397  14.569  18.108  0.00  0.00    +0.000 A 
ATOM     21  N   UNL     1       2.672  13.442  18.222  0.00  0.00    +0.000 NA
ATOM     22  C   UNL     1       1.878  13.320  19.301  0.00  0.00    +0.000 A 
ATOM     23  N   UNL     1       1.115  12.169  19.448  0.00  0.00    +0.000 N 
ATOM     24  C   UNL     1       0.759  11.857  20.836  0.00  0.00    +0.000 C 
ATOM     25  C   UNL     1      -0.260  10.700  20.862  0.00  0.00    +0.000 C 
ATOM     26  N   UNL     1       0.175   9.479  20.139  0.00  0.00    +0.000 NA
ATOM     27  C   UNL     1       0.510   9.881  18.748  0.00  0.00    +0.000 C 
ATOM     28  C   UNL     1       1.544  11.025  18.636  0.00  0.00    +0.000 C 
ATOM     29  N   UNL     1       1.783  14.279  20.238  0.00  0.00    +0.000 NA
ATOM     30  C   UNL     1       2.520  15.389  20.082  0.00  0.00    +0.000 A 
ENDBRANCH  18  26
ENDBRANCH  17  18
ENDBRANCH   1  17
TORSDOF 5
ENDMDL
MODEL 6
REMARK VINA RESULT:      -8.1      1.320      1.687
REMARK  Name = 
REMARK  5 active torsions:
REMARK  status: ('A' for Active; 'I' for Inactive)
REMARK    1  A    between atoms: N_8  and  C_9
REMARK    2  A    between atoms: C_9  and  C_10
REMARK    3  A    between atoms: C_10  and  C_11
REMARK    4  A    between atoms: C_11  and  C_12
REMARK    5  A    between atoms: C_18  and  N_19
REMARK                            x       y       z     vdW  Elec       q    Type
REMARK                         _______ _______ _______ _____ _____    ______ ____
ROOT
ATOM      1  C   UNL     1       1.871   8.843  18.537  0.00  0.00    +0.000 C 
ENDROOT
BRANCH   1   2
ATOM      2  C   UNL     1       2.165   7.576  19.265  0.00  0.00    +0.000 A 
ATOM      3  C   UNL     1       1.574   7.131  20.428  0.00  0.00    +0.000 A 
ATOM      4  N   UNL     1       2.085   5.897  20.723  0.00  0.00    +0.000 N 
ATOM      5  C   UNL     1       3.007   5.526  19.774  0.00  0.00    +0.000 A 
ATOM      6  C   UNL     1       3.759   4.355  19.652  0.00  0.00    +0.000 A 
ATOM      7  C   UNL     1       4.645   4.259  18.572  0.00  0.00    +0.000 A 
ATOM      8  C   UNL     1       4.786   5.307  17.649  0.00  0.00    +0.000 A 
ATOM      9  C   UNL     1       4.009   6.467  17.788  0.00  0.00    +0.000 A 
ATOM     10  C   UNL     1       3.101   6.574  18.863  0.00  0.00    +0.000 A 
ATOM     11  H   UNL     1       1.819   5.335  21.517  0.00  0.00    +0.000 HD
BRANCH   8  12
ATOM     12  N   UNL     1       5.712   5.204  16.578  0.00  0.00    +0.000 N 
ATOM     13  C   UNL     1       7.013   4.771  16.622  0.00  0.00    +0.000 A 
ATOM     14  N   UNL     1       7.560   4.829  15.428  0.00  0.00    +0.000 NA
ATOM     15  N   UNL     1       6.615   5.306  14.563  0.00  0.00    +0.000 NA
ATOM     16  C   UNL     1       5.516   5.527  15.256  0.00  0.00    +0.000 A 
ENDBRANCH   8  12
ENDBRANCH   1   2
BRANCH   1  17
ATOM     17  C   UNL     1       1.037   9.793  19.402  0.00  0.00    +0.000 C 
BRANCH  17  18
ATOM     18  C   UNL     1      -0.303  10.130  18.745  0.00  0.00    +0.000 C 
BRANCH  18  26
ATOM     19  C   UNL     1      -6.054  12.817  22.333  0.00  0.00    +0.000 A 
ATOM     20  C   UNL     1      -4.780  12.967  22.809  0.00  0.00    +0.000 A 
ATOM     21  N   UNL     1      -3.682  12.880  22.039  0.00  0.00    +0.000 NA
ATOM     22  C   UNL     1      -3.859  12.630  20.729  0.00  0.00    +0.000 A 
ATOM     23  N   UNL     1      -2.744  12.536  19.906  0.00  0.00    +0.000 N 
ATOM     24  C   UNL     1      -2.954  11.728  18.700  0.00  0.00    +0.000 C 
ATOM     25  C   UNL     1      -1.739  11.872  17.762  0.00  0.00    +0.000 C 
ATOM     26  N   UNL     1      -0.433  11.555  18.392  0.00  0.00    +0.000 NA
ATOM     27  C   UNL     1      -0.298  12.415  19.595  0.00  0.00    +0.000 C 
ATOM     28  C   UNL     1      -1.471  12.312  20.599  0.00  0.00    +0.000 C 
ATOM     29  N   UNL     1      -5.077  12.483  20.181  0.00  0.00    +0.000 NA
ATOM     30  C   UNL     1      -6.147  12.583  20.986  0.00  0.00    +0.000 A 
ENDBRANCH  18  26
ENDBRANCH  17  18
ENDBRANCH   1  17
TORSDOF 5
ENDMDL
MODEL 7
REMARK VINA RESULT:      -8.1      2.900      3.435
REMARK  Name = 
REMARK  5 active torsions:
REMARK  status: ('A' for Active; 'I' for Inactive)
REMARK    1  A    between atoms: N_8  and  C_9
REMARK    2  A    between atoms: C_9  and  C_10
REMARK    3  A    between atoms: C_10  and  C_11
REMARK    4  A    between atoms: C_11  and  C_12
REMARK    5  A    between atoms: C_18  and  N_19
REMARK                            x       y       z     vdW  Elec       q    Type
REMARK                         _______ _______ _______ _____ _____    ______ ____
ROOT
ATOM      1  C   UNL     1       2.085   7.009  20.197  0.00  0.00    +0.000 C 
ENDROOT
BRANCH   1   2
ATOM      2  C   UNL     1       2.022   5.570  19.812  0.00  0.00    +0.000 A 
ATOM      3  C   UNL     1       1.111   4.633  20.252  0.00  0.00    +0.000 A 
ATOM      4  N   UNL     1       1.366   3.453  19.607  0.00  0.00    +0.000 N 
ATOM      5  C   UNL     1       2.434   3.599  18.756  0.00  0.00    +0.000 A 
ATOM      6  C   UNL     1       3.031   2.681  17.887  0.00  0.00    +0.000 A 
ATOM      7  C   UNL     1       4.132   3.114  17.138  0.00  0.00    +0.000 A 
ATOM      8  C   UNL     1       4.631   4.420  17.263  0.00  0.00    +0.000 A 
ATOM      9  C   UNL     1       4.006   5.324  18.134  0.00  0.00    +0.000 A 
ATOM     10  C   UNL     1       2.886   4.909  18.885  0.00  0.00    +0.000 A 
ATOM     11  H   UNL     1       0.842   2.600  19.733  0.00  0.00    +0.000 HD
BRANCH   8  12
ATOM     12  N   UNL     1       5.769   4.830  16.520  0.00  0.00    +0.000 N 
ATOM     13  C   UNL     1       6.507   5.977  16.665  0.00  0.00    +0.000 A 
ATOM     14  N   UNL     1       7.482   6.013  15.783  0.00  0.00    +0.000 NA
ATOM     15  N   UNL     1       7.403   4.874  15.032  0.00  0.00    +0.000 NA
ATOM     16  C   UNL     1       6.379   4.174  15.477  0.00  0.00    +0.000 A 
ENDBRANCH   8  12
ENDBRANCH   1   2
BRANCH   1  17
ATOM     17  C   UNL     1       0.995   7.354  21.215  0.00  0.00    +0.000 C 
BRANCH  17  18
ATOM     18  C   UNL     1       0.434   8.760  20.992  0.00  0.00    +0.000 C 
BRANCH  18  26
ATOM     19  C   UNL     1      -4.665  13.700  22.653  0.00  0.00    +0.000 A 
ATOM     20  C   UNL     1      -4.363  12.671  23.502  0.00  0.00    +0.000 A 
ATOM     21  N   UNL     1      -3.201  11.995  23.470  0.00  0.00    +0.000 NA
ATOM     22  C   UNL     1      -2.293  12.361  22.548  0.00  0.00    +0.000 A 
ATOM     23  N   UNL     1      -1.082  11.683  22.490  0.00  0.00    +0.000 N 
ATOM     24  C   UNL     1      -0.432  11.726  21.176  0.00  0.00    +0.000 C 
ATOM     25  C   UNL     1       0.991  11.141  21.284  0.00  0.00    +0.000 C 
ATOM     26  N   UNL     1       1.053   9.775  21.862  0.00  0.00    +0.000 NA
ATOM     27  C   UNL     1       0.381   9.821  23.186  0.00  0.00    +0.000 C 
ATOM     28  C   UNL     1      -1.062  10.379  23.161  0.00  0.00    +0.000 C 
ATOM     29  N   UNL     1      -2.507  13.370  21.686  0.00  0.00    +0.000 NA
ATOM     30  C   UNL     1      -3.679  14.021  21.756  0.00  0.00    +0.000 A 
ENDBRANCH  18  26
ENDBRANCH  17  18
ENDBRANCH   1  17
TORSDOF 5
ENDMDL
MODEL 8
REMARK VINA RESULT:      -8.1      6.530     10.479
REMARK  Name = 
REMARK  5 active torsions:
REMARK  status: ('A' for Active; 'I' for Inactive)
REMARK    1  A    between atoms: N_8  and  C_9
REMARK    2  A    between atoms: C_9  and  C_10
REMARK    3  A    between atoms: C_10  and  C_11
REMARK    4  A    between atoms: C_11  and  C_12
REMARK    5  A    between atoms: C_18  and  N_19
REMARK                            x       y       z     vdW  Elec       q    Type
REMARK                         _______ _______ _______ _____ _____    ______ ____
ROOT
ATOM      1  C   UNL     1       8.870   9.065  19.032  0.00  0.00    +0.000 C 
ENDROOT
BRANCH   1   2
ATOM      2  C   UNL     1       9.397  10.454  18.904  0.00  0.00    +0.000 A 
ATOM      3  C   UNL     1       9.978  11.021  17.790  0.00  0.00    +0.000 A 
ATOM      4  N   UNL     1      10.262  12.329  18.074  0.00  0.00    +0.000 N 
ATOM      5  C   UNL     1       9.883  12.628  19.360  0.00  0.00    +0.000 A 
ATOM      6  C   UNL     1       9.956  13.830  20.069  0.00  0.00    +0.000 A 
ATOM      7  C   UNL     1       9.498  13.835  21.391  0.00  0.00    +0.000 A 
ATOM      8  C   UNL     1       8.994  12.672  21.994  0.00  0.00    +0.000 A 
ATOM      9  C   UNL     1       8.920  11.482  21.255  0.00  0.00    +0.000 A 
ATOM     10  C   UNL     1       9.365  11.462  19.916  0.00  0.00    +0.000 A 
ATOM     11  H   UNL     1      10.684  12.983  17.431  0.00  0.00    +0.000 HD
BRANCH   8  12
ATOM     12  N   UNL     1       8.564  12.689  23.346  0.00  0.00    +0.000 N 
ATOM     13  C   UNL     1       8.540  13.751  24.215  0.00  0.00    +0.000 A 
ATOM     14  N   UNL     1       8.087  13.376  25.390  0.00  0.00    +0.000 NA
ATOM     15  N   UNL     1       7.797  12.043  25.316  0.00  0.00    +0.000 NA
ATOM     16  C   UNL     1       8.084  11.640  24.094  0.00  0.00    +0.000 A 
ENDBRANCH   8  12
ENDBRANCH   1   2
BRANCH   1  17
ATOM     17  C   UNL     1       8.049   8.673  17.801  0.00  0.00    +0.000 C 
BRANCH  17  18
ATOM     18  C   UNL     1       7.402   7.297  17.964  0.00  0.00    +0.000 C 
BRANCH  18  26
ATOM     19  C   UNL     1       1.724   2.814  18.877  0.00  0.00    +0.000 A 
ATOM     20  C   UNL     1       1.570   4.063  18.341  0.00  0.00    +0.000 A 
ATOM     21  N   UNL     1       2.570   4.759  17.772  0.00  0.00    +0.000 NA
ATOM     22  C   UNL     1       3.785   4.183  17.734  0.00  0.00    +0.000 A 
ATOM     23  N   UNL     1       4.839   4.876  17.151  0.00  0.00    +0.000 N 
ATOM     24  C   UNL     1       6.163   4.479  17.642  0.00  0.00    +0.000 C 
ATOM     25  C   UNL     1       7.255   5.143  16.779  0.00  0.00    +0.000 C 
ATOM     26  N   UNL     1       7.147   6.620  16.680  0.00  0.00    +0.000 NA
ATOM     27  C   UNL     1       5.787   6.934  16.174  0.00  0.00    +0.000 C 
ATOM     28  C   UNL     1       4.631   6.320  16.998  0.00  0.00    +0.000 C 
ATOM     29  N   UNL     1       4.017   2.954  18.225  0.00  0.00    +0.000 NA
ATOM     30  C   UNL     1       2.989   2.292  18.780  0.00  0.00    +0.000 A 
ENDBRANCH  18  26
ENDBRANCH  17  18
ENDBRANCH   1  17
TORSDOF 5
ENDMDL
MODEL 9
REMARK VINA RESULT:      -8.0      1.391      2.100
REMARK  Name = 
REMARK  5 active torsions:
REMARK  status: ('A' for Active; 'I' for Inactive)
REMARK    1  A    between atoms: N_8  and  C_9
REMARK    2  A    between atoms: C_9  and  C_10
REMARK    3  A    between atoms: C_10  and  C_11
REMARK    4  A    between atoms: C_11  and  C_12
REMARK    5  A    between atoms: C_18  and  N_19
REMARK                            x       y       z     vdW  Elec       q    Type
REMARK                         _______ _______ _______ _____ _____    ______ ____
ROOT
ATOM      1  C   UNL     1       1.720   7.396  19.695  0.00  0.00    +0.000 C 
ENDROOT
BRANCH   1   2
ATOM      2  C   UNL     1       2.079   5.965  19.911  0.00  0.00    +0.000 A 
ATOM      3  C   UNL     1       1.520   5.099  20.826  0.00  0.00    +0.000 A 
ATOM      4  N   UNL     1       2.090   3.867  20.652  0.00  0.00    +0.000 N 
ATOM      5  C   UNL     1       3.020   3.912  19.641  0.00  0.00    +0.000 A 
ATOM      6  C   UNL     1       3.824   2.903  19.105  0.00  0.00    +0.000 A 
ATOM      7  C   UNL     1       4.702   3.250  18.072  0.00  0.00    +0.000 A 
ATOM      8  C   UNL     1       4.786   4.569  17.598  0.00  0.00    +0.000 A 
ATOM      9  C   UNL     1       3.958   5.560  18.146  0.00  0.00    +0.000 A 
ATOM     10  C   UNL     1       3.057   5.224  19.178  0.00  0.00    +0.000 A 
ATOM     11  H   UNL     1       1.858   3.041  21.184  0.00  0.00    +0.000 HD
BRANCH   8  12
ATOM     12  N   UNL     1       5.706   4.908  16.571  0.00  0.00    +0.000 N 
ATOM     13  C   UNL     1       7.077   4.852  16.609  0.00  0.00    +0.000 A 
ATOM     14  N   UNL     1       7.587   5.258  15.468  0.00  0.00    +0.000 NA
ATOM     15  N   UNL     1       6.548   5.592  14.645  0.00  0.00    +0.000 NA
ATOM     16  C   UNL     1       5.430   5.380  15.310  0.00  0.00    +0.000 A 
ENDBRANCH   8  12
ENDBRANCH   1   2
BRANCH   1  17
ATOM     17  C   UNL     1       1.677   8.158  21.022  0.00  0.00    +0.000 C 
BRANCH  17  18
ATOM     18  C   UNL     1       0.517   9.154  21.068  0.00  0.00    +0.000 C 
BRANCH  18  26
ATOM     19  C   UNL     1      -4.988  11.660  16.996  0.00  0.00    +0.000 A 
ATOM     20  C   UNL     1      -4.855  12.010  18.311  0.00  0.00    +0.000 A 
ATOM     21  N   UNL     1      -3.695  11.940  18.988  0.00  0.00    +0.000 NA
ATOM     22  C   UNL     1      -2.612  11.499  18.322  0.00  0.00    +0.000 A 
ATOM     23  N   UNL     1      -1.399  11.416  18.993  0.00  0.00    +0.000 N 
ATOM     24  C   UNL     1      -0.466  10.435  18.427  0.00  0.00    +0.000 C 
ATOM     25  C   UNL     1       0.913  10.583  19.102  0.00  0.00    +0.000 C 
ATOM     26  N   UNL     1       0.886  10.496  20.584  0.00  0.00    +0.000 NA
ATOM     27  C   UNL     1      -0.073  11.519  21.072  0.00  0.00    +0.000 C 
ATOM     28  C   UNL     1      -1.490  11.427  20.457  0.00  0.00    +0.000 C 
ATOM     29  N   UNL     1      -2.656  11.148  17.026  0.00  0.00    +0.000 NA
ATOM     30  C   UNL     1      -3.834  11.238  16.388  0.00  0.00    +0.000 A 
ENDBRANCH  18  26
ENDBRANCH  17  18
ENDBRANCH   1  17
TORSDOF 5
ENDMDL
