MODEL 1
REMARK VINA RESULT:      -8.8      0.000      0.000
REMARK  Name = 
REMARK  5 active torsions:
REMARK  status: ('A' for Active; 'I' for Inactive)
REMARK    1  A    between atoms: C_2  and  C_3
REMARK    2  A    between atoms: C_3  and  N_4
REMARK    3  A    between atoms: C_8  and  C_9
REMARK    4  A    between atoms: N_18  and  N_19
REMARK    5  A    between atoms: C_20  and  C_21
REMARK                            x       y       z     vdW  Elec       q    Type
REMARK                         _______ _______ _______ _____ _____    ______ ____
ROOT
ATOM      1  N   UNL     1       6.424   5.665  16.287  0.00  0.00    +0.000 N 
ATOM      2  N   UNL     1       7.213   5.675  15.197  0.00  0.00    +0.000 NA
ATOM      3  N   UNL     1       7.078   4.481  14.649  0.00  0.00    +0.000 NA
ATOM      4  N   UNL     1       6.184   3.722  15.351  0.00  0.00    +0.000 NA
ATOM      5  C   UNL     1       5.778   4.448  16.379  0.00  0.00    +0.000 A 
ENDROOT
BRANCH   5   6
ATOM      6  C   UNL     1       4.758   4.042  17.352  0.00  0.00    +0.000 A 
ATOM      7  C   UNL     1       5.149   3.781  18.690  0.00  0.00    +0.000 A 
ATOM      8  C   UNL     1       4.229   3.342  19.651  0.00  0.00    +0.000 A 
ATOM      9  C   UNL     1       2.925   3.161  19.251  0.00  0.00    +0.000 A 
ATOM     10  C   UNL     1       2.528   3.440  17.969  0.00  0.00    +0.000 A 
ATOM     11  C   UNL     1       3.406   3.906  17.014  0.00  0.00    +0.000 A 
ATOM     12  O   UNL     1       1.207   3.198  17.762  0.00  0.00    +0.000 OA
ATOM     13  C   UNL     1       0.824   2.688  19.056  0.00  0.00    +0.000 C 
ATOM     14  O   UNL     1       1.898   2.711  20.020  0.00  0.00    +0.000 OA
ENDBRANCH   5   6
BRANCH   1  15
ATOM     15  C   UNL     1       6.216   6.863  17.071  0.00  0.00    +0.000 C 
BRANCH  15  17
ATOM     16  O   UNL     1       8.006   6.568  18.614  0.00  0.00    +0.000 OA
ATOM     17  C   UNL     1       7.403   7.339  17.866  0.00  0.00    +0.000 C 
ATOM     18  N   UNL     1       7.649   8.700  17.763  0.00  0.00    +0.000 N 
ATOM     19  H   UNL     1       7.246   9.226  16.989  0.00  0.00    +0.000 HD
BRANCH  18  20
ATOM     20  N   UNL     1       8.706   9.235  18.432  0.00  0.00    +0.000 NA
ATOM     21  C   UNL     1       8.989  10.463  18.139  0.00  0.00    +0.000 C 
BRANCH  21  22
ATOM     22  C   UNL     1      10.099  11.129  18.750  0.00  0.00    +0.000 A 
ATOM     23  C   UNL     1      11.264  11.657  18.232  0.00  0.00    +0.000 A 
ATOM     24  C   UNL     1      11.987  12.185  19.327  0.00  0.00    +0.000 A 
ATOM     25  C   UNL     1      11.218  11.950  20.442  0.00  0.00    +0.000 A 
ATOM     26  O   UNL     1      10.067  11.315  20.102  0.00  0.00    +0.000 OA
ENDBRANCH  21  22
ENDBRANCH  18  20
ENDBRANCH  15  17
ENDBRANCH   1  15
TORSDOF 5
ENDMDL
MODEL 2
REMARK VINA RESULT:      -8.6      0.985      1.296
REMARK  Name = 
REMARK  5 active torsions:
REMARK  status: ('A' for Active; 'I' for Inactive)
REMARK    1  A    between atoms: C_2  and  C_3
REMARK    2  A    between atoms: C_3  and  N_4
REMARK    3  A    between atoms: C_8  and  C_9
REMARK    4  A    between atoms: N_18  and  N_19
REMARK    5  A    between atoms: C_20  and  C_21
REMARK                            x       y       z     vdW  Elec       q    Type
REMARK                         _______ _______ _______ _____ _____    ______ ____
ROOT
ATOM      1  N   UNL     1       6.496   5.797  16.425  0.00  0.00    +0.000 N 
ATOM      2  N   UNL     1       7.471   5.703  15.502  0.00  0.00    +0.000 NA
ATOM      3  N   UNL     1       7.265   4.554  14.884  0.00  0.00    +0.000 NA
ATOM      4  N   UNL     1       6.150   3.931  15.372  0.00  0.00    +0.000 NA
ATOM      5  C   UNL     1       5.669   4.695  16.340  0.00  0.00    +0.000 A 
ENDROOT
BRANCH   5   6
ATOM      6  C   UNL     1       4.434   4.436  17.087  0.00  0.00    +0.000 A 
ATOM      7  C   UNL     1       3.613   5.532  17.458  0.00  0.00    +0.000 A 
ATOM      8  C   UNL     1       2.447   5.352  18.216  0.00  0.00    +0.000 A 
ATOM      9  C   UNL     1       2.126   4.070  18.599  0.00  0.00    +0.000 A 
ATOM     10  C   UNL     1       2.894   2.999  18.219  0.00  0.00    +0.000 A 
ATOM     11  C   UNL     1       4.026   3.146  17.447  0.00  0.00    +0.000 A 
ATOM     12  O   UNL     1       2.422   1.818  18.694  0.00  0.00    +0.000 OA
ATOM     13  C   UNL     1       1.286   2.272  19.459  0.00  0.00    +0.000 C 
ATOM     14  O   UNL     1       1.064   3.696  19.359  0.00  0.00    +0.000 OA
ENDBRANCH   5   6
BRANCH   1  15
ATOM     15  C   UNL     1       6.324   7.001  17.211  0.00  0.00    +0.000 C 
BRANCH  15  17
ATOM     16  O   UNL     1       8.130   6.705  18.734  0.00  0.00    +0.000 OA
ATOM     17  C   UNL     1       7.540   7.466  17.968  0.00  0.00    +0.000 C 
ATOM     18  N   UNL     1       7.827   8.814  17.809  0.00  0.00    +0.000 N 
ATOM     19  H   UNL     1       7.428   9.323  17.023  0.00  0.00    +0.000 HD
BRANCH  18  20
ATOM     20  N   UNL     1       8.913   9.338  18.440  0.00  0.00    +0.000 NA
ATOM     21  C   UNL     1       9.078  10.614  18.300  0.00  0.00    +0.000 C 
BRANCH  21  22
ATOM     22  C   UNL     1      10.201  11.280  18.888  0.00  0.00    +0.000 A 
ATOM     23  C   UNL     1      10.485  11.647  20.187  0.00  0.00    +0.000 A 
ATOM     24  C   UNL     1      11.748  12.284  20.156  0.00  0.00    +0.000 A 
ATOM     25  C   UNL     1      12.155  12.261  18.843  0.00  0.00    +0.000 A 
ATOM     26  O   UNL     1      11.227  11.648  18.066  0.00  0.00    +0.000 OA
ENDBRANCH  21  22
ENDBRANCH  18  20
ENDBRANCH  15  17
ENDBRANCH   1  15
TORSDOF 5
ENDMDL
MODEL 3
REMARK VINA RESULT:      -8.6      1.430      1.645
REMARK  Name = 
REMARK  5 active torsions:
REMARK  status: ('A' for Active; 'I' for Inactive)
REMARK    1  A    between atoms: C_2  and  C_3
REMARK    2  A    between atoms: C_3  and  N_4
REMARK    3  A    between atoms: C_8  and  C_9
REMARK    4  A    between atoms: N_18  and  N_19
REMARK    5  A    between atoms: C_20  and  C_21
REMARK                            x       y       z     vdW  Elec       q    Type
REMARK                         _______ _______ _______ _____ _____    ______ ____
ROOT
ATOM      1  N   UNL     1       6.845   4.767  16.253  0.00  0.00    +0.000 N 
ATOM      2  N   UNL     1       7.545   5.042  15.136  0.00  0.00    +0.000 NA
ATOM      3  N   UNL     1       6.656   5.080  14.160  0.00  0.00    +0.000 NA
ATOM      4  N   UNL     1       5.394   4.872  14.643  0.00  0.00    +0.000 NA
ATOM      5  C   UNL     1       5.503   4.666  15.945  0.00  0.00    +0.000 A 
ENDROOT
BRANCH   5   6
ATOM      6  C   UNL     1       4.380   4.474  16.869  0.00  0.00    +0.000 A 
ATOM      7  C   UNL     1       3.713   5.613  17.387  0.00  0.00    +0.000 A 
ATOM      8  C   UNL     1       2.666   5.493  18.312  0.00  0.00    +0.000 A 
ATOM      9  C   UNL     1       2.310   4.226  18.712  0.00  0.00    +0.000 A 
ATOM     10  C   UNL     1       2.925   3.116  18.194  0.00  0.00    +0.000 A 
ATOM     11  C   UNL     1       3.933   3.205  17.259  0.00  0.00    +0.000 A 
ATOM     12  O   UNL     1       2.441   1.956  18.710  0.00  0.00    +0.000 OA
ATOM     13  C   UNL     1       1.475   2.466  19.652  0.00  0.00    +0.000 C 
ATOM     14  O   UNL     1       1.350   3.905  19.619  0.00  0.00    +0.000 OA
ENDBRANCH   5   6
BRANCH   1  15
ATOM     15  C   UNL     1       7.479   4.780  17.554  0.00  0.00    +0.000 C 
BRANCH  15  17
ATOM     16  O   UNL     1       7.642   6.213  19.449  0.00  0.00    +0.000 OA
ATOM     17  C   UNL     1       7.572   6.126  18.223  0.00  0.00    +0.000 C 
ATOM     18  N   UNL     1       7.451   7.202  17.355  0.00  0.00    +0.000 N 
ATOM     19  H   UNL     1       7.595   7.060  16.357  0.00  0.00    +0.000 HD
BRANCH  18  20
ATOM     20  N   UNL     1       7.533   8.466  17.852  0.00  0.00    +0.000 NA
ATOM     21  C   UNL     1       8.731   8.938  17.981  0.00  0.00    +0.000 C 
BRANCH  21  22
ATOM     22  C   UNL     1       8.953  10.244  18.523  0.00  0.00    +0.000 A 
ATOM     23  C   UNL     1       8.939  11.500  17.952  0.00  0.00    +0.000 A 
ATOM     24  C   UNL     1       9.238  12.415  18.989  0.00  0.00    +0.000 A 
ATOM     25  C   UNL     1       9.410  11.661  20.125  0.00  0.00    +0.000 A 
ATOM     26  O   UNL     1       9.233  10.343  19.855  0.00  0.00    +0.000 OA
ENDBRANCH  21  22
ENDBRANCH  18  20
ENDBRANCH  15  17
ENDBRANCH   1  15
TORSDOF 5
ENDMDL
MODEL 4
REMARK VINA RESULT:      -8.5      0.950      1.433
REMARK  Name = 
REMARK  5 active torsions:
REMARK  status: ('A' for Active; 'I' for Inactive)
REMARK    1  A    between atoms: C_2  and  C_3
REMARK    2  A    between atoms: C_3  and  N_4
REMARK    3  A    between atoms: C_8  and  C_9
REMARK    4  A    between atoms: N_18  and  N_19
REMARK    5  A    between atoms: C_20  and  C_21
REMARK                            x       y       z     vdW  Elec       q    Type
REMARK                         _______ _______ _______ _____ _____    ______ ____
ROOT
ATOM      1  N   UNL     1       6.308   5.611  16.495  0.00  0.00    +0.000 N 
ATOM      2  N   UNL     1       7.111   5.436  15.429  0.00  0.00    +0.000 NA
ATOM      3  N   UNL     1       6.865   4.213  14.996  0.00  0.00    +0.000 NA
ATOM      4  N   UNL     1       5.889   3.618  15.746  0.00  0.00    +0.000 NA
ATOM      5  C   UNL     1       5.543   4.479  16.689  0.00  0.00    +0.000 A 
ENDROOT
BRANCH   5   6
ATOM      6  C   UNL     1       4.473   4.272  17.671  0.00  0.00    +0.000 A 
ATOM      7  C   UNL     1       3.258   4.989  17.525  0.00  0.00    +0.000 A 
ATOM      8  C   UNL     1       2.220   4.872  18.460  0.00  0.00    +0.000 A 
ATOM      9  C   UNL     1       2.422   4.040  19.537  0.00  0.00    +0.000 A 
ATOM     10  C   UNL     1       3.579   3.317  19.673  0.00  0.00    +0.000 A 
ATOM     11  C   UNL     1       4.600   3.389  18.751  0.00  0.00    +0.000 A 
ATOM     12  O   UNL     1       3.596   2.556  20.798  0.00  0.00    +0.000 OA
ATOM     13  C   UNL     1       2.328   2.918  21.383  0.00  0.00    +0.000 C 
ATOM     14  O   UNL     1       1.556   3.820  20.561  0.00  0.00    +0.000 OA
ENDBRANCH   5   6
BRANCH   1  15
ATOM     15  C   UNL     1       6.209   6.896  17.154  0.00  0.00    +0.000 C 
BRANCH  15  17
ATOM     16  O   UNL     1       8.019   6.574  18.667  0.00  0.00    +0.000 OA
ATOM     17  C   UNL     1       7.436   7.343  17.903  0.00  0.00    +0.000 C 
ATOM     18  N   UNL     1       7.745   8.686  17.740  0.00  0.00    +0.000 N 
ATOM     19  H   UNL     1       7.348   9.201  16.956  0.00  0.00    +0.000 HD
BRANCH  18  20
ATOM     20  N   UNL     1       8.842   9.194  18.364  0.00  0.00    +0.000 NA
ATOM     21  C   UNL     1       8.835  10.474  18.553  0.00  0.00    +0.000 C 
BRANCH  21  22
ATOM     22  C   UNL     1       9.946  11.133  19.169  0.00  0.00    +0.000 A 
ATOM     23  C   UNL     1      11.230  11.392  18.732  0.00  0.00    +0.000 A 
ATOM     24  C   UNL     1      11.881  12.074  19.786  0.00  0.00    +0.000 A 
ATOM     25  C   UNL     1      10.955  12.194  20.794  0.00  0.00    +0.000 A 
ATOM     26  O   UNL     1       9.776  11.632  20.428  0.00  0.00    +0.000 OA
ENDBRANCH  21  22
ENDBRANCH  18  20
ENDBRANCH  15  17
ENDBRANCH   1  15
TORSDOF 5
ENDMDL
MODEL 5
REMARK VINA RESULT:      -8.3      1.675      2.044
REMARK  Name = 
REMARK  5 active torsions:
REMARK  status: ('A' for Active; 'I' for Inactive)
REMARK    1  A    between atoms: C_2  and  C_3
REMARK    2  A    between atoms: C_3  and  N_4
REMARK    3  A    between atoms: C_8  and  C_9
REMARK    4  A    between atoms: N_18  and  N_19
REMARK    5  A    between atoms: C_20  and  C_21
REMARK                            x       y       z     vdW  Elec       q    Type
REMARK                         _______ _______ _______ _____ _____    ______ ____
ROOT
ATOM      1  N   UNL     1       6.909   4.996  16.961  0.00  0.00    +0.000 N 
ATOM      2  N   UNL     1       7.550   4.766  15.800  0.00  0.00    +0.000 NA
ATOM      3  N   UNL     1       6.731   4.016  15.085  0.00  0.00    +0.000 NA
ATOM      4  N   UNL     1       5.560   3.796  15.757  0.00  0.00    +0.000 NA
ATOM      5  C   UNL     1       5.666   4.396  16.932  0.00  0.00    +0.000 A 
ENDROOT
BRANCH   5   6
ATOM      6  C   UNL     1       4.605   4.473  17.941  0.00  0.00    +0.000 A 
ATOM      7  C   UNL     1       3.768   5.617  17.973  0.00  0.00    +0.000 A 
ATOM      8  C   UNL     1       2.771   5.769  18.946  0.00  0.00    +0.000 A 
ATOM      9  C   UNL     1       2.634   4.771  19.883  0.00  0.00    +0.000 A 
ATOM     10  C   UNL     1       3.415   3.645  19.843  0.00  0.00    +0.000 A 
ATOM     11  C   UNL     1       4.380   3.455  18.877  0.00  0.00    +0.000 A 
ATOM     12  O   UNL     1       3.137   2.775  20.848  0.00  0.00    +0.000 OA
ATOM     13  C   UNL     1       2.115   3.505  21.558  0.00  0.00    +0.000 C 
ATOM     14  O   UNL     1       1.755   4.750  20.919  0.00  0.00    +0.000 OA
ENDBRANCH   5   6
BRANCH   1  15
ATOM     15  C   UNL     1       7.455   5.902  17.949  0.00  0.00    +0.000 C 
BRANCH  15  17
ATOM     16  O   UNL     1       6.683   7.756  16.670  0.00  0.00    +0.000 OA
ATOM     17  C   UNL     1       7.384   7.366  17.604  0.00  0.00    +0.000 C 
ATOM     18  N   UNL     1       8.248   8.166  18.337  0.00  0.00    +0.000 N 
ATOM     19  H   UNL     1       8.640   7.815  19.208  0.00  0.00    +0.000 HD
BRANCH  18  20
ATOM     20  N   UNL     1       8.257   9.509  18.114  0.00  0.00    +0.000 NA
ATOM     21  C   UNL     1       9.392  10.099  18.305  0.00  0.00    +0.000 C 
BRANCH  21  22
ATOM     22  C   UNL     1       9.524  11.514  18.136  0.00  0.00    +0.000 A 
ATOM     23  C   UNL     1       8.593  12.531  18.072  0.00  0.00    +0.000 A 
ATOM     24  C   UNL     1       9.322  13.729  17.887  0.00  0.00    +0.000 A 
ATOM     25  C   UNL     1      10.647  13.370  17.855  0.00  0.00    +0.000 A 
ATOM     26  O   UNL     1      10.782  12.029  18.012  0.00  0.00    +0.000 OA
ENDBRANCH  21  22
ENDBRANCH  18  20
ENDBRANCH  15  17
ENDBRANCH   1  15
TORSDOF 5
ENDMDL
MODEL 6
REMARK VINA RESULT:      -8.3      4.923      6.567
REMARK  Name = 
REMARK  5 active torsions:
REMARK  status: ('A' for Active; 'I' for Inactive)
REMARK    1  A    between atoms: C_2  and  C_3
REMARK    2  A    between atoms: C_3  and  N_4
REMARK    3  A    between atoms: C_8  and  C_9
REMARK    4  A    between atoms: N_18  and  N_19
REMARK    5  A    between atoms: C_20  and  C_21
REMARK                            x       y       z     vdW  Elec       q    Type
REMARK                         _______ _______ _______ _____ _____    ______ ____
ROOT
ATOM      1  N   UNL     1       3.550   3.302  19.216  0.00  0.00    +0.000 N 
ATOM      2  N   UNL     1       3.337   2.025  18.849  0.00  0.00    +0.000 NA
ATOM      3  N   UNL     1       2.098   1.989  18.392  0.00  0.00    +0.000 NA
ATOM      4  N   UNL     1       1.530   3.231  18.425  0.00  0.00    +0.000 NA
ATOM      5  C   UNL     1       2.424   4.055  18.947  0.00  0.00    +0.000 A 
ENDROOT
BRANCH   5   6
ATOM      6  C   UNL     1       2.253   5.504  19.099  0.00  0.00    +0.000 A 
ATOM      7  C   UNL     1       1.843   6.020  20.355  0.00  0.00    +0.000 A 
ATOM      8  C   UNL     1       1.615   7.390  20.546  0.00  0.00    +0.000 A 
ATOM      9  C   UNL     1       1.792   8.224  19.467  0.00  0.00    +0.000 A 
ATOM     10  C   UNL     1       2.219   7.741  18.256  0.00  0.00    +0.000 A 
ATOM     11  C   UNL     1       2.483   6.405  18.051  0.00  0.00    +0.000 A 
ATOM     12  O   UNL     1       2.334   8.712  17.313  0.00  0.00    +0.000 OA
ATOM     13  C   UNL     1       1.885   9.863  18.058  0.00  0.00    +0.000 C 
ATOM     14  O   UNL     1       1.589   9.567  19.441  0.00  0.00    +0.000 OA
ENDBRANCH   5   6
BRANCH   1  15
ATOM     15  C   UNL     1       4.858   3.749  19.646  0.00  0.00    +0.000 C 
BRANCH  15  17
ATOM     16  O   UNL     1       6.545   5.230  18.852  0.00  0.00    +0.000 OA
ATOM     17  C   UNL     1       5.726   4.354  18.574  0.00  0.00    +0.000 C 
ATOM     18  N   UNL     1       5.427   3.924  17.289  0.00  0.00    +0.000 N 
ATOM     19  H   UNL     1       4.889   3.069  17.159  0.00  0.00    +0.000 HD
BRANCH  18  20
ATOM     20  N   UNL     1       6.160   4.398  16.246  0.00  0.00    +0.000 NA
ATOM     21  C   UNL     1       5.864   3.905  15.086  0.00  0.00    +0.000 C 
BRANCH  21  22
ATOM     22  C   UNL     1       6.584   4.299  13.913  0.00  0.00    +0.000 A 
ATOM     23  C   UNL     1       6.519   3.879  12.600  0.00  0.00    +0.000 A 
ATOM     24  C   UNL     1       7.484   4.631  11.891  0.00  0.00    +0.000 A 
ATOM     25  C   UNL     1       8.073   5.463  12.813  0.00  0.00    +0.000 A 
ATOM     26  O   UNL     1       7.530   5.274  14.042  0.00  0.00    +0.000 OA
ENDBRANCH  21  22
ENDBRANCH  18  20
ENDBRANCH  15  17
ENDBRANCH   1  15
TORSDOF 5
ENDMDL
MODEL 7
REMARK VINA RESULT:      -8.2      1.085      1.509
REMARK  Name = 
REMARK  5 active torsions:
REMARK  status: ('A' for Active; 'I' for Inactive)
REMARK    1  A    between atoms: C_2  and  C_3
REMARK    2  A    between atoms: C_3  and  N_4
REMARK    3  A    between atoms: C_8  and  C_9
REMARK    4  A    between atoms: N_18  and  N_19
REMARK    5  A    between atoms: C_20  and  C_21
REMARK                            x       y       z     vdW  Elec       q    Type
REMARK                         _______ _______ _______ _____ _____    ______ ____
ROOT
ATOM      1  N   UNL     1       6.565   5.852  16.467  0.00  0.00    +0.000 N 
ATOM      2  N   UNL     1       7.510   5.697  15.523  0.00  0.00    +0.000 NA
ATOM      3  N   UNL     1       7.316   4.492  15.019  0.00  0.00    +0.000 NA
ATOM      4  N   UNL     1       6.235   3.890  15.601  0.00  0.00    +0.000 NA
ATOM      5  C   UNL     1       5.766   4.726  16.512  0.00  0.00    +0.000 A 
ENDROOT
BRANCH   5   6
ATOM      6  C   UNL     1       4.563   4.507  17.323  0.00  0.00    +0.000 A 
ATOM      7  C   UNL     1       3.490   3.761  16.773  0.00  0.00    +0.000 A 
ATOM      8  C   UNL     1       2.297   3.562  17.481  0.00  0.00    +0.000 A 
ATOM      9  C   UNL     1       2.194   4.125  18.731  0.00  0.00    +0.000 A 
ATOM     10  C   UNL     1       3.237   4.821  19.287  0.00  0.00    +0.000 A 
ATOM     11  C   UNL     1       4.433   5.002  18.626  0.00  0.00    +0.000 A 
ATOM     12  O   UNL     1       2.949   5.303  20.524  0.00  0.00    +0.000 OA
ATOM     13  C   UNL     1       1.581   4.868  20.668  0.00  0.00    +0.000 C 
ATOM     14  O   UNL     1       1.114   4.074  19.555  0.00  0.00    +0.000 OA
ENDBRANCH   5   6
BRANCH   1  15
ATOM     15  C   UNL     1       6.385   7.118  17.147  0.00  0.00    +0.000 C 
BRANCH  15  17
ATOM     16  O   UNL     1       8.172   6.862  18.700  0.00  0.00    +0.000 OA
ATOM     17  C   UNL     1       7.572   7.613  17.930  0.00  0.00    +0.000 C 
ATOM     18  N   UNL     1       7.822   8.970  17.789  0.00  0.00    +0.000 N 
ATOM     19  H   UNL     1       7.421   9.475  17.000  0.00  0.00    +0.000 HD
BRANCH  18  20
ATOM     20  N   UNL     1       8.879   9.521  18.445  0.00  0.00    +0.000 NA
ATOM     21  C   UNL     1       8.966  10.810  18.380  0.00  0.00    +0.000 C 
BRANCH  21  22
ATOM     22  C   UNL     1      10.052  11.507  19.000  0.00  0.00    +0.000 A 
ATOM     23  C   UNL     1      11.421  11.357  18.912  0.00  0.00    +0.000 A 
ATOM     24  C   UNL     1      11.986  12.334  19.764  0.00  0.00    +0.000 A 
ATOM     25  C   UNL     1      10.929  13.020  20.314  0.00  0.00    +0.000 A 
ATOM     26  O   UNL     1       9.751  12.530  19.852  0.00  0.00    +0.000 OA
ENDBRANCH  21  22
ENDBRANCH  18  20
ENDBRANCH  15  17
ENDBRANCH   1  15
TORSDOF 5
ENDMDL
MODEL 8
REMARK VINA RESULT:      -8.2      1.641      2.024
REMARK  Name = 
REMARK  5 active torsions:
REMARK  status: ('A' for Active; 'I' for Inactive)
REMARK    1  A    between atoms: C_2  and  C_3
REMARK    2  A    between atoms: C_3  and  N_4
REMARK    3  A    between atoms: C_8  and  C_9
REMARK    4  A    between atoms: N_18  and  N_19
REMARK    5  A    between atoms: C_20  and  C_21
REMARK                            x       y       z     vdW  Elec       q    Type
REMARK                         _______ _______ _______ _____ _____    ______ ____
ROOT
ATOM      1  N   UNL     1       6.852   5.510  16.854  0.00  0.00    +0.000 N 
ATOM      2  N   UNL     1       7.485   5.415  15.670  0.00  0.00    +0.000 NA
ATOM      3  N   UNL     1       6.613   4.865  14.844  0.00  0.00    +0.000 NA
ATOM      4  N   UNL     1       5.420   4.643  15.473  0.00  0.00    +0.000 NA
ATOM      5  C   UNL     1       5.562   5.033  16.729  0.00  0.00    +0.000 A 
ENDROOT
BRANCH   5   6
ATOM      6  C   UNL     1       4.499   5.038  17.740  0.00  0.00    +0.000 A 
ATOM      7  C   UNL     1       3.628   6.154  17.816  0.00  0.00    +0.000 A 
ATOM      8  C   UNL     1       2.626   6.238  18.793  0.00  0.00    +0.000 A 
ATOM      9  C   UNL     1       2.520   5.200  19.689  0.00  0.00    +0.000 A 
ATOM     10  C   UNL     1       3.335   4.101  19.607  0.00  0.00    +0.000 A 
ATOM     11  C   UNL     1       4.305   3.978  18.635  0.00  0.00    +0.000 A 
ATOM     12  O   UNL     1       3.083   3.184  20.577  0.00  0.00    +0.000 OA
ATOM     13  C   UNL     1       2.040   3.854  21.313  0.00  0.00    +0.000 C 
ATOM     14  O   UNL     1       1.642   5.112  20.723  0.00  0.00    +0.000 OA
ENDBRANCH   5   6
BRANCH   1  15
ATOM     15  C   UNL     1       7.462   6.193  17.975  0.00  0.00    +0.000 C 
BRANCH  15  17
ATOM     16  O   UNL     1       7.025   8.295  16.944  0.00  0.00    +0.000 OA
ATOM     17  C   UNL     1       7.639   7.680  17.816  0.00  0.00    +0.000 C 
ATOM     18  N   UNL     1       8.614   8.228  18.637  0.00  0.00    +0.000 N 
ATOM     19  H   UNL     1       8.932   7.710  19.454  0.00  0.00    +0.000 HD
BRANCH  18  20
ATOM     20  N   UNL     1       8.849   9.567  18.584  0.00  0.00    +0.000 NA
ATOM     21  C   UNL     1       9.330  10.093  19.664  0.00  0.00    +0.000 C 
BRANCH  21  22
ATOM     22  C   UNL     1       9.589  11.498  19.746  0.00  0.00    +0.000 A 
ATOM     23  C   UNL     1      10.333  12.254  20.629  0.00  0.00    +0.000 A 
ATOM     24  C   UNL     1      10.211  13.599  20.207  0.00  0.00    +0.000 A 
ATOM     25  C   UNL     1       9.406  13.578  19.093  0.00  0.00    +0.000 A 
ATOM     26  O   UNL     1       9.029  12.308  18.801  0.00  0.00    +0.000 OA
ENDBRANCH  21  22
ENDBRANCH  18  20
ENDBRANCH  15  17
ENDBRANCH   1  15
TORSDOF 5
ENDMDL
MODEL 9
REMARK VINA RESULT:      -8.1      4.715      6.782
REMARK  Name = 
REMARK  5 active torsions:
REMARK  status: ('A' for Active; 'I' for Inactive)
REMARK    1  A    between atoms: C_2  and  C_3
REMARK    2  A    between atoms: C_3  and  N_4
REMARK    3  A    between atoms: C_8  and  C_9
REMARK    4  A    between atoms: N_18  and  N_19
REMARK    5  A    between atoms: C_20  and  C_21
REMARK                            x       y       z     vdW  Elec       q    Type
REMARK                         _______ _______ _______ _____ _____    ______ ____
ROOT
ATOM      1  N   UNL     1       3.978   4.103  19.528  0.00  0.00    +0.000 N 
ATOM      2  N   UNL     1       3.947   2.765  19.392  0.00  0.00    +0.000 NA
ATOM      3  N   UNL     1       2.673   2.452  19.240  0.00  0.00    +0.000 NA
ATOM      4  N   UNL     1       1.893   3.575  19.236  0.00  0.00    +0.000 NA
ATOM      5  C   UNL     1       2.697   4.609  19.425  0.00  0.00    +0.000 A 
ENDROOT
BRANCH   5   6
ATOM      6  C   UNL     1       2.282   6.016  19.417  0.00  0.00    +0.000 A 
ATOM      7  C   UNL     1       2.432   6.770  18.226  0.00  0.00    +0.000 A 
ATOM      8  C   UNL     1       2.101   8.131  18.172  0.00  0.00    +0.000 A 
ATOM      9  C   UNL     1       1.631   8.719  19.323  0.00  0.00    +0.000 A 
ATOM     10  C   UNL     1       1.451   7.993  20.473  0.00  0.00    +0.000 A 
ATOM     11  C   UNL     1       1.737   6.647  20.542  0.00  0.00    +0.000 A 
ATOM     12  O   UNL     1       0.982   8.745  21.503  0.00  0.00    +0.000 OA
ATOM     13  C   UNL     1       0.929  10.045  20.881  0.00  0.00    +0.000 C 
ATOM     14  O   UNL     1       1.290  10.025  19.483  0.00  0.00    +0.000 OA
ENDBRANCH   5   6
BRANCH   1  15
ATOM     15  C   UNL     1       5.233   4.821  19.583  0.00  0.00    +0.000 C 
BRANCH  15  17
ATOM     16  O   UNL     1       5.899   6.332  17.868  0.00  0.00    +0.000 OA
ATOM     17  C   UNL     1       5.849   5.164  18.253  0.00  0.00    +0.000 C 
ATOM     18  N   UNL     1       6.220   4.062  17.496  0.00  0.00    +0.000 N 
ATOM     19  H   UNL     1       6.333   3.157  17.949  0.00  0.00    +0.000 HD
BRANCH  18  20
ATOM     20  N   UNL     1       6.799   4.258  16.280  0.00  0.00    +0.000 NA
ATOM     21  C   UNL     1       6.021   4.097  15.259  0.00  0.00    +0.000 C 
BRANCH  21  22
ATOM     22  C   UNL     1       6.518   4.242  13.925  0.00  0.00    +0.000 A 
ATOM     23  C   UNL     1       6.267   3.545  12.760  0.00  0.00    +0.000 A 
ATOM     24  C   UNL     1       7.059   4.147  11.755  0.00  0.00    +0.000 A 
ATOM     25  C   UNL     1       7.737   5.174  12.366  0.00  0.00    +0.000 A 
ATOM     26  O   UNL     1       7.411   5.245  13.681  0.00  0.00    +0.000 OA
ENDBRANCH  21  22
ENDBRANCH  18  20
ENDBRANCH  15  17
ENDBRANCH   1  15
TORSDOF 5
ENDMDL
