MODEL 1
REMARK VINA RESULT:      -7.8      0.000      0.000
REMARK  Name = 
REMARK  7 active torsions:
REMARK  status: ('A' for Active; 'I' for Inactive)
REMARK    1  A    between atoms: C_1  and  O_2
REMARK    2  A    between atoms: O_2  and  C_3
REMARK    3  A    between atoms: C_9  and  O_10
REMARK    4  A    between atoms: O_10  and  C_11
REMARK    5  A    between atoms: C_14  and  C_15
REMARK    6  A    between atoms: C_15  and  O_17
REMARK    7  A    between atoms: C_20  and  C_21
REMARK                            x       y       z     vdW  Elec       q    Type
REMARK                         _______ _______ _______ _____ _____    ______ ____
ROOT
ATOM      1  C   UNL     1       2.959   4.122  19.646  0.00  0.00    +0.000 A 
ATOM      2  C   UNL     1       3.147   4.441  18.300  0.00  0.00    +0.000 A 
ATOM      3  C   UNL     1       2.874   5.731  17.845  0.00  0.00    +0.000 A 
ATOM      4  C   UNL     1       2.402   6.695  18.738  0.00  0.00    +0.000 A 
ATOM      5  C   UNL     1       2.225   8.085  18.308  0.00  0.00    +0.000 A 
ATOM      6  O   UNL     1       2.668   8.443  17.223  0.00  0.00    +0.000 OA
ATOM      7  C   UNL     1       1.530   9.000  19.262  0.00  0.00    +0.000 A 
ATOM      8  C   UNL     1       1.315   8.546  20.511  0.00  0.00    +0.000 A 
ATOM      9  O   UNL     1       1.640   7.267  20.957  0.00  0.00    +0.000 OA
ATOM     10  C   UNL     1       2.143   6.365  20.060  0.00  0.00    +0.000 A 
ATOM     11  C   UNL     1       2.421   5.076  20.518  0.00  0.00    +0.000 A 
ENDROOT
BRANCH   8  12
ATOM     12  C   UNL     1       0.692   9.413  21.562  0.00  0.00    +0.000 C 
ATOM     13  F   UNL     1       1.177  10.681  21.541  0.00  0.00    +0.000 F 
ATOM     14  F   UNL     1      -0.655   9.516  21.406  0.00  0.00    +0.000 F 
ATOM     15  F   UNL     1       0.913   8.941  22.815  0.00  0.00    +0.000 F 
ENDBRANCH   8  12
BRANCH   1  17
ATOM     16  C   UNL     1       2.556   2.615  21.416  0.00  0.00    +0.000 C 
ATOM     17  O   UNL     1       3.243   2.902  20.199  0.00  0.00    +0.000 OA
ENDBRANCH   1  17
BRANCH   7  18
ATOM     18  O   UNL     1       1.209  10.315  18.921  0.00  0.00    +0.000 OA
BRANCH  18  19
ATOM     19  C   UNL     1      -0.076  10.650  18.557  0.00  0.00    +0.000 A 
ATOM     20  C   UNL     1      -0.710  11.822  18.967  0.00  0.00    +0.000 A 
ATOM     21  C   UNL     1      -2.028  12.076  18.582  0.00  0.00    +0.000 A 
ATOM     22  C   UNL     1      -2.705  11.187  17.737  0.00  0.00    +0.000 A 
ATOM     23  C   UNL     1      -2.041  10.051  17.260  0.00  0.00    +0.000 A 
ATOM     24  C   UNL     1      -0.730   9.780  17.679  0.00  0.00    +0.000 A 
BRANCH  22  25
ATOM     25  C   UNL     1      -4.095  11.547  17.344  0.00  0.00    +0.000 C 
ATOM     26  O   UNL     1      -4.619  11.133  16.325  0.00  0.00    +0.000 OA
BRANCH  25  27
ATOM     27  O   UNL     1      -4.715  12.394  18.191  0.00  0.00    +0.000 OA
ATOM     28  H   UNL     1      -4.153  13.094  18.567  0.00  0.00    +0.000 HD
ENDBRANCH  25  27
ENDBRANCH  22  25
ENDBRANCH  18  19
ENDBRANCH   7  18
TORSDOF 6
ENDMDL
MODEL 2
REMARK VINA RESULT:      -7.7      0.728      1.416
REMARK  Name = 
REMARK  7 active torsions:
REMARK  status: ('A' for Active; 'I' for Inactive)
REMARK    1  A    between atoms: C_1  and  O_2
REMARK    2  A    between atoms: O_2  and  C_3
REMARK    3  A    between atoms: C_9  and  O_10
REMARK    4  A    between atoms: O_10  and  C_11
REMARK    5  A    between atoms: C_14  and  C_15
REMARK    6  A    between atoms: C_15  and  O_17
REMARK    7  A    between atoms: C_20  and  C_21
REMARK                            x       y       z     vdW  Elec       q    Type
REMARK                         _______ _______ _______ _____ _____    ______ ____
ROOT
ATOM      1  C   UNL     1       3.302   4.358  19.395  0.00  0.00    +0.000 A 
ATOM      2  C   UNL     1       3.381   4.737  18.054  0.00  0.00    +0.000 A 
ATOM      3  C   UNL     1       2.959   6.009  17.664  0.00  0.00    +0.000 A 
ATOM      4  C   UNL     1       2.450   6.893  18.617  0.00  0.00    +0.000 A 
ATOM      5  C   UNL     1       2.116   8.272  18.251  0.00  0.00    +0.000 A 
ATOM      6  O   UNL     1       2.459   8.707  17.158  0.00  0.00    +0.000 OA
ATOM      7  C   UNL     1       1.393   9.083  19.275  0.00  0.00    +0.000 A 
ATOM      8  C   UNL     1       1.295   8.569  20.516  0.00  0.00    +0.000 A 
ATOM      9  O   UNL     1       1.766   7.315  20.895  0.00  0.00    +0.000 OA
ATOM     10  C   UNL     1       2.300   6.496  19.938  0.00  0.00    +0.000 A 
ATOM     11  C   UNL     1       2.727   5.226  20.331  0.00  0.00    +0.000 A 
ENDROOT
BRANCH   8  12
ATOM     12  C   UNL     1       0.653   9.337  21.631  0.00  0.00    +0.000 C 
ATOM     13  F   UNL     1      -0.702   9.355  21.535  0.00  0.00    +0.000 F 
ATOM     14  F   UNL     1       0.943   8.807  22.849  0.00  0.00    +0.000 F 
ATOM     15  F   UNL     1       1.050  10.635  21.655  0.00  0.00    +0.000 F 
ENDBRANCH   8  12
BRANCH   1  17
ATOM     16  C   UNL     1       3.636   2.061  18.973  0.00  0.00    +0.000 C 
ATOM     17  O   UNL     1       3.733   3.154  19.885  0.00  0.00    +0.000 OA
ENDBRANCH   1  17
BRANCH   7  18
ATOM     18  O   UNL     1       0.928  10.371  19.002  0.00  0.00    +0.000 OA
BRANCH  18  19
ATOM     19  C   UNL     1      -0.382  10.579  18.631  0.00  0.00    +0.000 A 
ATOM     20  C   UNL     1      -1.062   9.765  17.726  0.00  0.00    +0.000 A 
ATOM     21  C   UNL     1      -2.381  10.060  17.375  0.00  0.00    +0.000 A 
ATOM     22  C   UNL     1      -3.050  11.138  17.968  0.00  0.00    +0.000 A 
ATOM     23  C   UNL     1      -2.393  11.906  18.937  0.00  0.00    +0.000 A 
ATOM     24  C   UNL     1      -1.056  11.630  19.259  0.00  0.00    +0.000 A 
BRANCH  22  25
ATOM     25  C   UNL     1      -4.465  11.364  17.567  0.00  0.00    +0.000 C 
ATOM     26  O   UNL     1      -5.390  10.710  18.015  0.00  0.00    +0.000 OA
BRANCH  25  27
ATOM     27  O   UNL     1      -4.637  12.331  16.642  0.00  0.00    +0.000 OA
ATOM     28  H   UNL     1      -4.135  12.213  15.817  0.00  0.00    +0.000 HD
ENDBRANCH  25  27
ENDBRANCH  22  25
ENDBRANCH  18  19
ENDBRANCH   7  18
TORSDOF 6
ENDMDL
MODEL 3
REMARK VINA RESULT:      -7.6      0.921      1.282
REMARK  Name = 
REMARK  7 active torsions:
REMARK  status: ('A' for Active; 'I' for Inactive)
REMARK    1  A    between atoms: C_1  and  O_2
REMARK    2  A    between atoms: O_2  and  C_3
REMARK    3  A    between atoms: C_9  and  O_10
REMARK    4  A    between atoms: O_10  and  C_11
REMARK    5  A    between atoms: C_14  and  C_15
REMARK    6  A    between atoms: C_15  and  O_17
REMARK    7  A    between atoms: C_20  and  C_21
REMARK                            x       y       z     vdW  Elec       q    Type
REMARK                         _______ _______ _______ _____ _____    ______ ____
ROOT
ATOM      1  C   UNL     1       3.404   4.806  19.309  0.00  0.00    +0.000 A 
ATOM      2  C   UNL     1       3.458   5.231  17.980  0.00  0.00    +0.000 A 
ATOM      3  C   UNL     1       2.954   6.483  17.627  0.00  0.00    +0.000 A 
ATOM      4  C   UNL     1       2.388   7.303  18.606  0.00  0.00    +0.000 A 
ATOM      5  C   UNL     1       1.965   8.668  18.280  0.00  0.00    +0.000 A 
ATOM      6  O   UNL     1       2.278   9.157  17.202  0.00  0.00    +0.000 OA
ATOM      7  C   UNL     1       1.190   9.398  19.327  0.00  0.00    +0.000 A 
ATOM      8  C   UNL     1       1.125   8.842  20.552  0.00  0.00    +0.000 A 
ATOM      9  O   UNL     1       1.677   7.610  20.893  0.00  0.00    +0.000 OA
ATOM     10  C   UNL     1       2.265   6.857  19.914  0.00  0.00    +0.000 A 
ATOM     11  C   UNL     1       2.773   5.606  20.269  0.00  0.00    +0.000 A 
ENDROOT
BRANCH   8  12
ATOM     12  C   UNL     1       0.435   9.532  21.688  0.00  0.00    +0.000 C 
ATOM     13  F   UNL     1      -0.918   9.446  21.601  0.00  0.00    +0.000 F 
ATOM     14  F   UNL     1       0.776   9.000  22.892  0.00  0.00    +0.000 F 
ATOM     15  F   UNL     1       0.730  10.856  21.739  0.00  0.00    +0.000 F 
ENDBRANCH   8  12
BRANCH   1  17
ATOM     16  C   UNL     1       3.829   2.534  18.840  0.00  0.00    +0.000 C 
ATOM     17  O   UNL     1       3.912   3.620  19.763  0.00  0.00    +0.000 OA
ENDBRANCH   1  17
BRANCH   7  18
ATOM     18  O   UNL     1       0.642  10.661  19.092  0.00  0.00    +0.000 OA
BRANCH  18  19
ATOM     19  C   UNL     1      -0.687  10.796  18.760  0.00  0.00    +0.000 A 
ATOM     20  C   UNL     1      -1.522  11.768  19.311  0.00  0.00    +0.000 A 
ATOM     21  C   UNL     1      -2.869  11.821  18.947  0.00  0.00    +0.000 A 
ATOM     22  C   UNL     1      -3.381  10.939  17.987  0.00  0.00    +0.000 A 
ATOM     23  C   UNL     1      -2.524  10.016  17.375  0.00  0.00    +0.000 A 
ATOM     24  C   UNL     1      -1.181   9.941  17.770  0.00  0.00    +0.000 A 
BRANCH  22  25
ATOM     25  C   UNL     1      -4.818  11.083  17.629  0.00  0.00    +0.000 C 
ATOM     26  O   UNL     1      -5.719  10.885  18.425  0.00  0.00    +0.000 OA
BRANCH  25  27
ATOM     27  O   UNL     1      -5.044  11.419  16.342  0.00  0.00    +0.000 OA
ATOM     28  H   UNL     1      -4.253  11.670  15.832  0.00  0.00    +0.000 HD
ENDBRANCH  25  27
ENDBRANCH  22  25
ENDBRANCH  18  19
ENDBRANCH   7  18
TORSDOF 6
ENDMDL
MODEL 4
REMARK VINA RESULT:      -7.6      4.067      5.880
REMARK  Name = 
REMARK  7 active torsions:
REMARK  status: ('A' for Active; 'I' for Inactive)
REMARK    1  A    between atoms: C_1  and  O_2
REMARK    2  A    between atoms: O_2  and  C_3
REMARK    3  A    between atoms: C_9  and  O_10
REMARK    4  A    between atoms: O_10  and  C_11
REMARK    5  A    between atoms: C_14  and  C_15
REMARK    6  A    between atoms: C_15  and  O_17
REMARK    7  A    between atoms: C_20  and  C_21
REMARK                            x       y       z     vdW  Elec       q    Type
REMARK                         _______ _______ _______ _____ _____    ______ ____
ROOT
ATOM      1  C   UNL     1       6.396   3.999  13.787  0.00  0.00    +0.000 A 
ATOM      2  C   UNL     1       7.081   5.140  14.209  0.00  0.00    +0.000 A 
ATOM      3  C   UNL     1       6.701   5.785  15.386  0.00  0.00    +0.000 A 
ATOM      4  C   UNL     1       5.629   5.292  16.132  0.00  0.00    +0.000 A 
ATOM      5  C   UNL     1       5.292   5.881  17.431  0.00  0.00    +0.000 A 
ATOM      6  O   UNL     1       6.062   6.679  17.951  0.00  0.00    +0.000 OA
ATOM      7  C   UNL     1       4.016   5.429  18.062  0.00  0.00    +0.000 A 
ATOM      8  C   UNL     1       3.389   4.374  17.508  0.00  0.00    +0.000 A 
ATOM      9  O   UNL     1       3.814   3.714  16.358  0.00  0.00    +0.000 OA
ATOM     10  C   UNL     1       4.898   4.203  15.680  0.00  0.00    +0.000 A 
ATOM     11  C   UNL     1       5.280   3.553  14.505  0.00  0.00    +0.000 A 
ENDROOT
BRANCH   8  12
ATOM     12  C   UNL     1       2.144   3.800  18.111  0.00  0.00    +0.000 C 
ATOM     13  F   UNL     1       2.232   3.673  19.460  0.00  0.00    +0.000 F 
ATOM     14  F   UNL     1       1.055   4.577  17.870  0.00  0.00    +0.000 F 
ATOM     15  F   UNL     1       1.865   2.561  17.630  0.00  0.00    +0.000 F 
ENDBRANCH   8  12
BRANCH   1  17
ATOM     16  C   UNL     1       5.613   2.867  11.872  0.00  0.00    +0.000 C 
ATOM     17  O   UNL     1       6.720   3.268  12.676  0.00  0.00    +0.000 OA
ENDBRANCH   1  17
BRANCH   7  18
ATOM     18  O   UNL     1       3.537   5.998  19.245  0.00  0.00    +0.000 OA
BRANCH  18  19
ATOM     19  C   UNL     1       2.733   7.114  19.209  0.00  0.00    +0.000 A 
ATOM     20  C   UNL     1       2.566   7.905  18.072  0.00  0.00    +0.000 A 
ATOM     21  C   UNL     1       1.758   9.042  18.124  0.00  0.00    +0.000 A 
ATOM     22  C   UNL     1       1.065   9.370  19.296  0.00  0.00    +0.000 A 
ATOM     23  C   UNL     1       1.169   8.531  20.413  0.00  0.00    +0.000 A 
ATOM     24  C   UNL     1       2.011   7.410  20.369  0.00  0.00    +0.000 A 
BRANCH  22  25
ATOM     25  C   UNL     1       0.197  10.578  19.259  0.00  0.00    +0.000 C 
ATOM     26  O   UNL     1      -0.397  10.992  20.239  0.00  0.00    +0.000 OA
BRANCH  25  27
ATOM     27  O   UNL     1       0.097  11.158  18.046  0.00  0.00    +0.000 OA
ATOM     28  H   UNL     1       0.943  11.381  17.618  0.00  0.00    +0.000 HD
ENDBRANCH  25  27
ENDBRANCH  22  25
ENDBRANCH  18  19
ENDBRANCH   7  18
TORSDOF 6
ENDMDL
MODEL 5
REMARK VINA RESULT:      -7.5      1.121      1.728
REMARK  Name = 
REMARK  7 active torsions:
REMARK  status: ('A' for Active; 'I' for Inactive)
REMARK    1  A    between atoms: C_1  and  O_2
REMARK    2  A    between atoms: O_2  and  C_3
REMARK    3  A    between atoms: C_9  and  O_10
REMARK    4  A    between atoms: O_10  and  C_11
REMARK    5  A    between atoms: C_14  and  C_15
REMARK    6  A    between atoms: C_15  and  O_17
REMARK    7  A    between atoms: C_20  and  C_21
REMARK                            x       y       z     vdW  Elec       q    Type
REMARK                         _______ _______ _______ _____ _____    ______ ____
ROOT
ATOM      1  C   UNL     1       4.012   5.303  18.635  0.00  0.00    +0.000 A 
ATOM      2  C   UNL     1       4.090   6.028  17.444  0.00  0.00    +0.000 A 
ATOM      3  C   UNL     1       3.425   7.248  17.326  0.00  0.00    +0.000 A 
ATOM      4  C   UNL     1       2.673   7.733  18.398  0.00  0.00    +0.000 A 
ATOM      5  C   UNL     1       2.067   9.067  18.339  0.00  0.00    +0.000 A 
ATOM      6  O   UNL     1       2.374   9.831  17.433  0.00  0.00    +0.000 OA
ATOM      7  C   UNL     1       1.119   9.423  19.437  0.00  0.00    +0.000 A 
ATOM      8  C   UNL     1       1.058   8.594  20.496  0.00  0.00    +0.000 A 
ATOM      9  O   UNL     1       1.769   7.402  20.613  0.00  0.00    +0.000 OA
ATOM     10  C   UNL     1       2.531   6.983  19.556  0.00  0.00    +0.000 A 
ATOM     11  C   UNL     1       3.201   5.765  19.678  0.00  0.00    +0.000 A 
ENDROOT
BRANCH   8  12
ATOM     12  C   UNL     1       0.193   8.901  21.680  0.00  0.00    +0.000 C 
ATOM     13  F   UNL     1       0.857   8.761  22.857  0.00  0.00    +0.000 F 
ATOM     14  F   UNL     1      -0.274  10.178  21.654  0.00  0.00    +0.000 F 
ATOM     15  F   UNL     1      -0.888   8.083  21.752  0.00  0.00    +0.000 F 
ENDBRANCH   8  12
BRANCH   1  17
ATOM     16  C   UNL     1       4.008   3.233  19.767  0.00  0.00    +0.000 C 
ATOM     17  O   UNL     1       4.666   4.123  18.866  0.00  0.00    +0.000 OA
ENDBRANCH   1  17
BRANCH   7  18
ATOM     18  O   UNL     1       0.400  10.620  19.431  0.00  0.00    +0.000 OA
BRANCH  18  19
ATOM     19  C   UNL     1      -0.764  10.733  18.705  0.00  0.00    +0.000 A 
ATOM     20  C   UNL     1      -1.093   9.889  17.644  0.00  0.00    +0.000 A 
ATOM     21  C   UNL     1      -2.278  10.089  16.934  0.00  0.00    +0.000 A 
ATOM     22  C   UNL     1      -3.173  11.098  17.313  0.00  0.00    +0.000 A 
ATOM     23  C   UNL     1      -2.880  11.893  18.428  0.00  0.00    +0.000 A 
ATOM     24  C   UNL     1      -1.671  11.715  19.115  0.00  0.00    +0.000 A 
BRANCH  22  25
ATOM     25  C   UNL     1      -4.431  11.223  16.527  0.00  0.00    +0.000 C 
ATOM     26  O   UNL     1      -5.387  11.872  16.914  0.00  0.00    +0.000 OA
BRANCH  25  27
ATOM     27  O   UNL     1      -4.438  10.534  15.367  0.00  0.00    +0.000 OA
ATOM     28  H   UNL     1      -5.317  10.261  15.050  0.00  0.00    +0.000 HD
ENDBRANCH  25  27
ENDBRANCH  22  25
ENDBRANCH  18  19
ENDBRANCH   7  18
TORSDOF 6
ENDMDL
MODEL 6
REMARK VINA RESULT:      -7.3      1.009      1.570
REMARK  Name = 
REMARK  7 active torsions:
REMARK  status: ('A' for Active; 'I' for Inactive)
REMARK    1  A    between atoms: C_1  and  O_2
REMARK    2  A    between atoms: O_2  and  C_3
REMARK    3  A    between atoms: C_9  and  O_10
REMARK    4  A    between atoms: O_10  and  C_11
REMARK    5  A    between atoms: C_14  and  C_15
REMARK    6  A    between atoms: C_15  and  O_17
REMARK    7  A    between atoms: C_20  and  C_21
REMARK                            x       y       z     vdW  Elec       q    Type
REMARK                         _______ _______ _______ _____ _____    ______ ____
ROOT
ATOM      1  C   UNL     1       3.286   5.101  19.323  0.00  0.00    +0.000 A 
ATOM      2  C   UNL     1       3.318   5.567  18.007  0.00  0.00    +0.000 A 
ATOM      3  C   UNL     1       2.804   6.827  17.701  0.00  0.00    +0.000 A 
ATOM      4  C   UNL     1       2.249   7.613  18.713  0.00  0.00    +0.000 A 
ATOM      5  C   UNL     1       1.815   8.986  18.436  0.00  0.00    +0.000 A 
ATOM      6  O   UNL     1       2.110   9.510  17.369  0.00  0.00    +0.000 OA
ATOM      7  C   UNL     1       1.053   9.679  19.517  0.00  0.00    +0.000 A 
ATOM      8  C   UNL     1       1.009   9.085  20.725  0.00  0.00    +0.000 A 
ATOM      9  O   UNL     1       1.572   7.846  21.020  0.00  0.00    +0.000 OA
ATOM     10  C   UNL     1       2.147   7.126  20.008  0.00  0.00    +0.000 A 
ATOM     11  C   UNL     1       2.666   5.868  20.317  0.00  0.00    +0.000 A 
ENDROOT
BRANCH   8  12
ATOM     12  C   UNL     1       0.333   9.736  21.892  0.00  0.00    +0.000 C 
ATOM     13  F   UNL     1       0.748   9.227  23.081  0.00  0.00    +0.000 F 
ATOM     14  F   UNL     1       0.576  11.074  21.943  0.00  0.00    +0.000 F 
ATOM     15  F   UNL     1      -1.015   9.577  21.858  0.00  0.00    +0.000 F 
ENDBRANCH   8  12
BRANCH   1  17
ATOM     16  C   UNL     1       2.873   2.825  19.785  0.00  0.00    +0.000 C 
ATOM     17  O   UNL     1       3.807   3.903  19.732  0.00  0.00    +0.000 OA
ENDBRANCH   1  17
BRANCH   7  18
ATOM     18  O   UNL     1       0.495  10.946  19.330  0.00  0.00    +0.000 OA
BRANCH  18  19
ATOM     19  C   UNL     1      -0.836  11.085  19.007  0.00  0.00    +0.000 A 
ATOM     20  C   UNL     1      -1.495  10.259  18.096  0.00  0.00    +0.000 A 
ATOM     21  C   UNL     1      -2.840  10.484  17.797  0.00  0.00    +0.000 A 
ATOM     22  C   UNL     1      -3.554  11.500  18.445  0.00  0.00    +0.000 A 
ATOM     23  C   UNL     1      -2.912  12.276  19.418  0.00  0.00    +0.000 A 
ATOM     24  C   UNL     1      -1.551  12.073  19.690  0.00  0.00    +0.000 A 
BRANCH  22  25
ATOM     25  C   UNL     1      -4.992  11.652  18.095  0.00  0.00    +0.000 C 
ATOM     26  O   UNL     1      -5.759  10.707  18.040  0.00  0.00    +0.000 OA
BRANCH  25  27
ATOM     27  O   UNL     1      -5.369  12.915  17.812  0.00  0.00    +0.000 OA
ATOM     28  H   UNL     1      -4.646  13.526  17.587  0.00  0.00    +0.000 HD
ENDBRANCH  25  27
ENDBRANCH  22  25
ENDBRANCH  18  19
ENDBRANCH   7  18
TORSDOF 6
ENDMDL
MODEL 7
REMARK VINA RESULT:      -7.2      4.283      6.181
REMARK  Name = 
REMARK  7 active torsions:
REMARK  status: ('A' for Active; 'I' for Inactive)
REMARK    1  A    between atoms: C_1  and  O_2
REMARK    2  A    between atoms: O_2  and  C_3
REMARK    3  A    between atoms: C_9  and  O_10
REMARK    4  A    between atoms: O_10  and  C_11
REMARK    5  A    between atoms: C_14  and  C_15
REMARK    6  A    between atoms: C_15  and  O_17
REMARK    7  A    between atoms: C_20  and  C_21
REMARK                            x       y       z     vdW  Elec       q    Type
REMARK                         _______ _______ _______ _____ _____    ______ ____
ROOT
ATOM      1  C   UNL     1       6.553   4.104  13.399  0.00  0.00    +0.000 A 
ATOM      2  C   UNL     1       7.313   5.165  13.896  0.00  0.00    +0.000 A 
ATOM      3  C   UNL     1       6.996   5.730  15.131  0.00  0.00    +0.000 A 
ATOM      4  C   UNL     1       5.910   5.239  15.860  0.00  0.00    +0.000 A 
ATOM      5  C   UNL     1       5.634   5.736  17.211  0.00  0.00    +0.000 A 
ATOM      6  O   UNL     1       6.460   6.442  17.776  0.00  0.00    +0.000 OA
ATOM      7  C   UNL     1       4.346   5.308  17.833  0.00  0.00    +0.000 A 
ATOM      8  C   UNL     1       3.647   4.341  17.209  0.00  0.00    +0.000 A 
ATOM      9  O   UNL     1       4.009   3.756  15.998  0.00  0.00    +0.000 OA
ATOM     10  C   UNL     1       5.107   4.236  15.337  0.00  0.00    +0.000 A 
ATOM     11  C   UNL     1       5.427   3.665  14.104  0.00  0.00    +0.000 A 
ENDROOT
BRANCH   8  12
ATOM     12  C   UNL     1       2.381   3.792  17.792  0.00  0.00    +0.000 C 
ATOM     13  F   UNL     1       2.030   2.602  17.239  0.00  0.00    +0.000 F 
ATOM     14  F   UNL     1       2.486   3.575  19.130  0.00  0.00    +0.000 F 
ATOM     15  F   UNL     1       1.326   4.625  17.605  0.00  0.00    +0.000 F 
ENDBRANCH   8  12
BRANCH   1  17
ATOM     16  C   UNL     1       5.801   2.536  11.805  0.00  0.00    +0.000 C 
ATOM     17  O   UNL     1       6.812   3.452  12.224  0.00  0.00    +0.000 OA
ENDBRANCH   1  17
BRANCH   7  18
ATOM     18  O   UNL     1       3.924   5.802  19.069  0.00  0.00    +0.000 OA
BRANCH  18  19
ATOM     19  C   UNL     1       3.052   6.865  19.138  0.00  0.00    +0.000 A 
ATOM     20  C   UNL     1       2.226   7.111  20.235  0.00  0.00    +0.000 A 
ATOM     21  C   UNL     1       1.344   8.193  20.215  0.00  0.00    +0.000 A 
ATOM     22  C   UNL     1       1.318   9.071  19.124  0.00  0.00    +0.000 A 
ATOM     23  C   UNL     1       2.204   8.869  18.058  0.00  0.00    +0.000 A 
ATOM     24  C   UNL     1       3.063   7.760  18.064  0.00  0.00    +0.000 A 
BRANCH  22  25
ATOM     25  C   UNL     1       0.374  10.219  19.196  0.00  0.00    +0.000 C 
ATOM     26  O   UNL     1      -0.321  10.440  20.172  0.00  0.00    +0.000 OA
BRANCH  25  27
ATOM     27  O   UNL     1       0.327  10.976  18.080  0.00  0.00    +0.000 OA
ATOM     28  H   UNL     1       0.269  10.482  17.243  0.00  0.00    +0.000 HD
ENDBRANCH  25  27
ENDBRANCH  22  25
ENDBRANCH  18  19
ENDBRANCH   7  18
TORSDOF 6
ENDMDL
MODEL 8
REMARK VINA RESULT:      -7.2      3.951      5.714
REMARK  Name = 
REMARK  7 active torsions:
REMARK  status: ('A' for Active; 'I' for Inactive)
REMARK    1  A    between atoms: C_1  and  O_2
REMARK    2  A    between atoms: O_2  and  C_3
REMARK    3  A    between atoms: C_9  and  O_10
REMARK    4  A    between atoms: O_10  and  C_11
REMARK    5  A    between atoms: C_14  and  C_15
REMARK    6  A    between atoms: C_15  and  O_17
REMARK    7  A    between atoms: C_20  and  C_21
REMARK                            x       y       z     vdW  Elec       q    Type
REMARK                         _______ _______ _______ _____ _____    ______ ____
ROOT
ATOM      1  C   UNL     1       6.342   3.980  14.076  0.00  0.00    +0.000 A 
ATOM      2  C   UNL     1       6.991   5.148  14.483  0.00  0.00    +0.000 A 
ATOM      3  C   UNL     1       6.588   5.797  15.651  0.00  0.00    +0.000 A 
ATOM      4  C   UNL     1       5.530   5.280  16.401  0.00  0.00    +0.000 A 
ATOM      5  C   UNL     1       5.171   5.876  17.691  0.00  0.00    +0.000 A 
ATOM      6  O   UNL     1       5.915   6.705  18.202  0.00  0.00    +0.000 OA
ATOM      7  C   UNL     1       3.909   5.394  18.326  0.00  0.00    +0.000 A 
ATOM      8  C   UNL     1       3.317   4.312  17.785  0.00  0.00    +0.000 A 
ATOM      9  O   UNL     1       3.764   3.651  16.644  0.00  0.00    +0.000 OA
ATOM     10  C   UNL     1       4.834   4.163  15.963  0.00  0.00    +0.000 A 
ATOM     11  C   UNL     1       5.239   3.509  14.798  0.00  0.00    +0.000 A 
ENDROOT
BRANCH   8  12
ATOM     12  C   UNL     1       2.088   3.708  18.393  0.00  0.00    +0.000 C 
ATOM     13  F   UNL     1       0.998   4.508  18.261  0.00  0.00    +0.000 F 
ATOM     14  F   UNL     1       1.763   2.520  17.814  0.00  0.00    +0.000 F 
ATOM     15  F   UNL     1       2.233   3.477  19.723  0.00  0.00    +0.000 F 
ENDBRANCH   8  12
BRANCH   1  17
ATOM     16  C   UNL     1       5.708   3.196  11.943  0.00  0.00    +0.000 C 
ATOM     17  O   UNL     1       6.692   3.245  12.976  0.00  0.00    +0.000 OA
ENDBRANCH   1  17
BRANCH   7  18
ATOM     18  O   UNL     1       3.409   5.963  19.500  0.00  0.00    +0.000 OA
BRANCH  18  19
ATOM     19  C   UNL     1       2.609   7.081  19.449  0.00  0.00    +0.000 A 
ATOM     20  C   UNL     1       1.885   7.558  20.542  0.00  0.00    +0.000 A 
ATOM     21  C   UNL     1       1.069   8.682  20.403  0.00  0.00    +0.000 A 
ATOM     22  C   UNL     1       1.010   9.373  19.186  0.00  0.00    +0.000 A 
ATOM     23  C   UNL     1       1.800   8.941  18.113  0.00  0.00    +0.000 A 
ATOM     24  C   UNL     1       2.589   7.790  18.244  0.00  0.00    +0.000 A 
BRANCH  22  25
ATOM     25  C   UNL     1       0.144  10.581  19.130  0.00  0.00    +0.000 C 
ATOM     26  O   UNL     1      -1.012  10.545  18.745  0.00  0.00    +0.000 OA
BRANCH  25  27
ATOM     27  O   UNL     1       0.751  11.724  19.509  0.00  0.00    +0.000 OA
ATOM     28  H   UNL     1       1.592  11.920  19.059  0.00  0.00    +0.000 HD
ENDBRANCH  25  27
ENDBRANCH  22  25
ENDBRANCH  18  19
ENDBRANCH   7  18
TORSDOF 6
ENDMDL
MODEL 9
REMARK VINA RESULT:      -7.2      3.936      5.822
REMARK  Name = 
REMARK  7 active torsions:
REMARK  status: ('A' for Active; 'I' for Inactive)
REMARK    1  A    between atoms: C_1  and  O_2
REMARK    2  A    between atoms: O_2  and  C_3
REMARK    3  A    between atoms: C_9  and  O_10
REMARK    4  A    between atoms: O_10  and  C_11
REMARK    5  A    between atoms: C_14  and  C_15
REMARK    6  A    between atoms: C_15  and  O_17
REMARK    7  A    between atoms: C_20  and  C_21
REMARK                            x       y       z     vdW  Elec       q    Type
REMARK                         _______ _______ _______ _____ _____    ______ ____
ROOT
ATOM      1  C   UNL     1       6.648   4.217  14.544  0.00  0.00    +0.000 A 
ATOM      2  C   UNL     1       7.345   5.182  15.275  0.00  0.00    +0.000 A 
ATOM      3  C   UNL     1       6.819   5.662  16.474  0.00  0.00    +0.000 A 
ATOM      4  C   UNL     1       5.591   5.182  16.934  0.00  0.00    +0.000 A 
ATOM      5  C   UNL     1       5.080   5.582  18.248  0.00  0.00    +0.000 A 
ATOM      6  O   UNL     1       5.812   6.184  19.024  0.00  0.00    +0.000 OA
ATOM      7  C   UNL     1       3.677   5.186  18.572  0.00  0.00    +0.000 A 
ATOM      8  C   UNL     1       3.069   4.320  17.738  0.00  0.00    +0.000 A 
ATOM      9  O   UNL     1       3.633   3.817  16.569  0.00  0.00    +0.000 OA
ATOM     10  C   UNL     1       4.859   4.279  16.177  0.00  0.00    +0.000 A 
ATOM     11  C   UNL     1       5.387   3.794  14.979  0.00  0.00    +0.000 A 
ENDROOT
BRANCH   8  12
ATOM     12  C   UNL     1       1.690   3.805  18.016  0.00  0.00    +0.000 C 
ATOM     13  F   UNL     1       0.745   4.424  17.261  0.00  0.00    +0.000 F 
ATOM     14  F   UNL     1       1.578   2.476  17.754  0.00  0.00    +0.000 F 
ATOM     15  F   UNL     1       1.324   3.989  19.310  0.00  0.00    +0.000 F 
ENDBRANCH   8  12
BRANCH   1  17
ATOM     16  C   UNL     1       6.098   3.405  12.399  0.00  0.00    +0.000 C 
ATOM     17  O   UNL     1       7.101   3.650  13.384  0.00  0.00    +0.000 OA
ENDBRANCH   1  17
BRANCH   7  18
ATOM     18  O   UNL     1       3.045   5.601  19.746  0.00  0.00    +0.000 OA
BRANCH  18  19
ATOM     19  C   UNL     1       2.377   6.803  19.794  0.00  0.00    +0.000 A 
ATOM     20  C   UNL     1       2.319   7.693  18.721  0.00  0.00    +0.000 A 
ATOM     21  C   UNL     1       1.647   8.909  18.858  0.00  0.00    +0.000 A 
ATOM     22  C   UNL     1       0.982   9.225  20.050  0.00  0.00    +0.000 A 
ATOM     23  C   UNL     1       0.973   8.296  21.098  0.00  0.00    +0.000 A 
ATOM     24  C   UNL     1       1.680   7.092  20.971  0.00  0.00    +0.000 A 
BRANCH  22  25
ATOM     25  C   UNL     1       0.261  10.525  20.103  0.00  0.00    +0.000 C 
ATOM     26  O   UNL     1       0.591  11.430  20.850  0.00  0.00    +0.000 OA
BRANCH  25  27
ATOM     27  O   UNL     1      -0.806  10.609  19.282  0.00  0.00    +0.000 OA
ATOM     28  H   UNL     1      -1.625  10.205  19.620  0.00  0.00    +0.000 HD
ENDBRANCH  25  27
ENDBRANCH  22  25
ENDBRANCH  18  19
ENDBRANCH   7  18
TORSDOF 6
ENDMDL
