MODEL 1
REMARK VINA RESULT:      -8.8      0.000      0.000
REMARK  Name = 
REMARK  9 active torsions:
REMARK  status: ('A' for Active; 'I' for Inactive)
REMARK    1  A    between atoms: C_1  and  C_2
REMARK    2  A    between atoms: C_2  and  C_3
REMARK    3  A    between atoms: C_2  and  C_4
REMARK    4  A    between atoms: C_4  and  C_5
REMARK    5  A    between atoms: C_4  and  C_11
REMARK    6  A    between atoms: N_7  and  C_8
REMARK    7  A    between atoms: C_8  and  C_9
REMARK    8  A    between atoms: C_9  and  O_10
REMARK    9  A    between atoms: C_14  and  C_15
REMARK                            x       y       z     vdW  Elec       q    Type
REMARK                         _______ _______ _______ _____ _____    ______ ____
ROOT
ATOM      1  C   UNL     1       3.566   5.284  19.116  0.00  0.00    +0.000 A 
ATOM      2  C   UNL     1       3.563   6.339  18.282  0.00  0.00    +0.000 A 
ATOM      3  C   UNL     1       2.812   7.544  18.561  0.00  0.00    +0.000 A 
ATOM      4  C   UNL     1       1.980   7.587  19.613  0.00  0.00    +0.000 A 
ATOM      5  N   UNL     1       1.896   6.499  20.449  0.00  0.00    +0.000 N 
ATOM      6  C   UNL     1       2.668   5.364  20.329  0.00  0.00    +0.000 A 
ATOM      7  O   UNL     1       2.638   4.473  21.159  0.00  0.00    +0.000 OA
ATOM      8  H   UNL     1       1.274   6.537  21.247  0.00  0.00    +0.000 HD
ENDROOT
BRANCH   4   9
ATOM      9  C   UNL     1       1.194   8.787  19.914  0.00  0.00    +0.000 A 
ATOM     10  C   UNL     1       0.915   9.728  18.916  0.00  0.00    +0.000 A 
ATOM     11  C   UNL     1       0.151  10.862  19.208  0.00  0.00    +0.000 A 
ATOM     12  C   UNL     1      -0.347  11.078  20.503  0.00  0.00    +0.000 A 
ATOM     13  C   UNL     1      -1.131  12.205  20.811  0.00  0.00    +0.000 A 
ATOM     14  C   UNL     1      -1.629  12.401  22.103  0.00  0.00    +0.000 A 
ATOM     15  C   UNL     1      -1.350  11.474  23.102  0.00  0.00    +0.000 A 
ATOM     16  C   UNL     1      -0.573  10.359  22.806  0.00  0.00    +0.000 A 
ATOM     17  F   UNL     1      -0.325   9.475  23.787  0.00  0.00    +0.000 F 
ATOM     18  C   UNL     1      -0.058  10.139  21.518  0.00  0.00    +0.000 A 
ATOM     19  C   UNL     1       0.718   9.008  21.211  0.00  0.00    +0.000 A 
ENDBRANCH   4   9
BRANCH   1  20
ATOM     20  C   UNL     1       4.313   3.974  18.874  0.00  0.00    +0.000 C 
BRANCH  20  21
ATOM     21  C   UNL     1       5.712   4.322  18.310  0.00  0.00    +0.000 C 
ATOM     22  O   UNL     1       6.610   4.804  18.984  0.00  0.00    +0.000 OA
ATOM     23  N   UNL     1       5.920   4.035  16.957  0.00  0.00    +0.000 N 
ATOM     24  H   UNL     1       5.276   3.420  16.474  0.00  0.00    +0.000 HD
BRANCH  23  25
ATOM     25  C   UNL     1       7.209   4.339  16.324  0.00  0.00    +0.000 C 
BRANCH  25  26
ATOM     26  C   UNL     1       7.033   4.961  14.937  0.00  0.00    +0.000 C 
BRANCH  26  27
ATOM     27  O   UNL     1       5.947   5.887  14.940  0.00  0.00    +0.000 OA
ATOM     28  H   UNL     1       5.312   5.580  14.270  0.00  0.00    +0.000 HD
ENDBRANCH  26  27
ENDBRANCH  25  26
ENDBRANCH  23  25
ENDBRANCH  20  21
BRANCH  20  30
ATOM     29  C   UNL     1       3.294   1.593  18.502  0.00  0.00    +0.000 C 
ATOM     30  C   UNL     1       3.488   3.010  17.938  0.00  0.00    +0.000 C 
ATOM     31  C   UNL     1       2.079   3.554  17.630  0.00  0.00    +0.000 C 
ENDBRANCH  20  30
ENDBRANCH   1  20
TORSDOF 7
ENDMDL
MODEL 2
REMARK VINA RESULT:      -8.7      1.197      1.198
REMARK  Name = 
REMARK  9 active torsions:
REMARK  status: ('A' for Active; 'I' for Inactive)
REMARK    1  A    between atoms: C_1  and  C_2
REMARK    2  A    between atoms: C_2  and  C_3
REMARK    3  A    between atoms: C_2  and  C_4
REMARK    4  A    between atoms: C_4  and  C_5
REMARK    5  A    between atoms: C_4  and  C_11
REMARK    6  A    between atoms: N_7  and  C_8
REMARK    7  A    between atoms: C_8  and  C_9
REMARK    8  A    between atoms: C_9  and  O_10
REMARK    9  A    between atoms: C_14  and  C_15
REMARK                            x       y       z     vdW  Elec       q    Type
REMARK                         _______ _______ _______ _____ _____    ______ ____
ROOT
ATOM      1  C   UNL     1       3.390   5.418  19.251  0.00  0.00    +0.000 A 
ATOM      2  C   UNL     1       3.381   6.457  18.397  0.00  0.00    +0.000 A 
ATOM      3  C   UNL     1       2.627   7.664  18.654  0.00  0.00    +0.000 A 
ATOM      4  C   UNL     1       1.798   7.725  19.708  0.00  0.00    +0.000 A 
ATOM      5  N   UNL     1       1.721   6.653  20.566  0.00  0.00    +0.000 N 
ATOM      6  C   UNL     1       2.496   5.518  20.465  0.00  0.00    +0.000 A 
ATOM      7  O   UNL     1       2.472   4.644  21.313  0.00  0.00    +0.000 OA
ATOM      8  H   UNL     1       1.102   6.705  21.366  0.00  0.00    +0.000 HD
ENDROOT
BRANCH   4   9
ATOM      9  C   UNL     1       1.010   8.928  19.989  0.00  0.00    +0.000 A 
ATOM     10  C   UNL     1       0.714   9.842  18.971  0.00  0.00    +0.000 A 
ATOM     11  C   UNL     1      -0.053  10.980  19.244  0.00  0.00    +0.000 A 
ATOM     12  C   UNL     1      -0.537  11.225  20.539  0.00  0.00    +0.000 A 
ATOM     13  C   UNL     1      -1.324  12.355  20.828  0.00  0.00    +0.000 A 
ATOM     14  C   UNL     1      -1.807  12.581  22.120  0.00  0.00    +0.000 A 
ATOM     15  C   UNL     1      -1.511  11.681  23.139  0.00  0.00    +0.000 A 
ATOM     16  C   UNL     1      -0.731  10.563  22.861  0.00  0.00    +0.000 A 
ATOM     17  F   UNL     1      -0.467   9.706  23.862  0.00  0.00    +0.000 F 
ATOM     18  C   UNL     1      -0.231  10.313  21.574  0.00  0.00    +0.000 A 
ATOM     19  C   UNL     1       0.548   9.179  21.286  0.00  0.00    +0.000 A 
ENDBRANCH   4   9
BRANCH   1  20
ATOM     20  C   UNL     1       4.140   4.106  19.033  0.00  0.00    +0.000 C 
BRANCH  20  21
ATOM     21  C   UNL     1       5.513   4.443  18.401  0.00  0.00    +0.000 C 
ATOM     22  O   UNL     1       5.809   4.171  17.246  0.00  0.00    +0.000 OA
ATOM     23  N   UNL     1       6.424   5.111  19.225  0.00  0.00    +0.000 N 
ATOM     24  H   UNL     1       6.096   5.549  20.077  0.00  0.00    +0.000 HD
BRANCH  23  25
ATOM     25  C   UNL     1       7.757   5.465  18.722  0.00  0.00    +0.000 C 
BRANCH  25  26
ATOM     26  C   UNL     1       7.767   6.837  18.044  0.00  0.00    +0.000 C 
BRANCH  26  27
ATOM     27  O   UNL     1       7.579   6.700  16.636  0.00  0.00    +0.000 OA
ATOM     28  H   UNL     1       7.160   7.521  16.325  0.00  0.00    +0.000 HD
ENDBRANCH  26  27
ENDBRANCH  25  26
ENDBRANCH  23  25
ENDBRANCH  20  21
BRANCH  20  30
ATOM     29  C   UNL     1       2.617   1.979  18.978  0.00  0.00    +0.000 C 
ATOM     30  C   UNL     1       3.290   3.098  18.168  0.00  0.00    +0.000 C 
ATOM     31  C   UNL     1       2.167   3.802  17.380  0.00  0.00    +0.000 C 
ENDBRANCH  20  30
ENDBRANCH   1  20
TORSDOF 7
ENDMDL
MODEL 3
REMARK VINA RESULT:      -8.7      1.378      1.926
REMARK  Name = 
REMARK  9 active torsions:
REMARK  status: ('A' for Active; 'I' for Inactive)
REMARK    1  A    between atoms: C_1  and  C_2
REMARK    2  A    between atoms: C_2  and  C_3
REMARK    3  A    between atoms: C_2  and  C_4
REMARK    4  A    between atoms: C_4  and  C_5
REMARK    5  A    between atoms: C_4  and  C_11
REMARK    6  A    between atoms: N_7  and  C_8
REMARK    7  A    between atoms: C_8  and  C_9
REMARK    8  A    between atoms: C_9  and  O_10
REMARK    9  A    between atoms: C_14  and  C_15
REMARK                            x       y       z     vdW  Elec       q    Type
REMARK                         _______ _______ _______ _____ _____    ______ ____
ROOT
ATOM      1  C   UNL     1       3.165   5.260  19.512  0.00  0.00    +0.000 A 
ATOM      2  C   UNL     1       3.111   6.399  18.800  0.00  0.00    +0.000 A 
ATOM      3  C   UNL     1       2.401   7.571  19.266  0.00  0.00    +0.000 A 
ATOM      4  C   UNL     1       1.654   7.504  20.379  0.00  0.00    +0.000 A 
ATOM      5  N   UNL     1       1.621   6.331  21.097  0.00  0.00    +0.000 N 
ATOM      6  C   UNL     1       2.366   5.212  20.794  0.00  0.00    +0.000 A 
ATOM      7  O   UNL     1       2.388   4.236  21.522  0.00  0.00    +0.000 OA
ATOM      8  H   UNL     1       1.064   6.285  21.941  0.00  0.00    +0.000 HD
ENDROOT
BRANCH   4   9
ATOM      9  C   UNL     1       0.911   8.667  20.870  0.00  0.00    +0.000 A 
ATOM     10  C   UNL     1       0.675   8.838  22.239  0.00  0.00    +0.000 A 
ATOM     11  C   UNL     1      -0.021   9.959  22.701  0.00  0.00    +0.000 A 
ATOM     12  C   UNL     1      -0.496  10.930  21.804  0.00  0.00    +0.000 A 
ATOM     13  C   UNL     1      -1.184  12.072  22.252  0.00  0.00    +0.000 A 
ATOM     14  C   UNL     1      -1.642  13.034  21.348  0.00  0.00    +0.000 A 
ATOM     15  C   UNL     1      -1.418  12.868  19.985  0.00  0.00    +0.000 A 
ATOM     16  C   UNL     1      -0.742  11.739  19.534  0.00  0.00    +0.000 A 
ATOM     17  F   UNL     1      -0.532  11.607  18.213  0.00  0.00    +0.000 F 
ATOM     18  C   UNL     1      -0.273  10.756  20.420  0.00  0.00    +0.000 A 
ATOM     19  C   UNL     1       0.421   9.620  19.970  0.00  0.00    +0.000 A 
ENDBRANCH   4   9
BRANCH   1  20
ATOM     20  C   UNL     1       3.872   3.980  19.072  0.00  0.00    +0.000 C 
BRANCH  20  21
ATOM     21  C   UNL     1       5.306   4.359  18.629  0.00  0.00    +0.000 C 
ATOM     22  O   UNL     1       6.165   4.765  19.398  0.00  0.00    +0.000 OA
ATOM     23  N   UNL     1       5.597   4.193  17.271  0.00  0.00    +0.000 N 
ATOM     24  H   UNL     1       4.980   3.632  16.695  0.00  0.00    +0.000 HD
BRANCH  23  25
ATOM     25  C   UNL     1       6.926   4.535  16.750  0.00  0.00    +0.000 C 
BRANCH  25  26
ATOM     26  C   UNL     1       6.961   4.520  15.220  0.00  0.00    +0.000 C 
BRANCH  26  27
ATOM     27  O   UNL     1       7.807   5.560  14.730  0.00  0.00    +0.000 OA
ATOM     28  H   UNL     1       7.240   6.178  14.238  0.00  0.00    +0.000 HD
ENDBRANCH  26  27
ENDBRANCH  25  26
ENDBRANCH  23  25
ENDBRANCH  20  21
BRANCH  20  30
ATOM     29  C   UNL     1       3.182   1.699  17.992  0.00  0.00    +0.000 C 
ATOM     30  C   UNL     1       3.055   3.230  17.952  0.00  0.00    +0.000 C 
ATOM     31  C   UNL     1       1.546   3.545  18.016  0.00  0.00    +0.000 C 
ENDBRANCH  20  30
ENDBRANCH   1  20
TORSDOF 7
ENDMDL
MODEL 4
REMARK VINA RESULT:      -8.5      1.299      1.777
REMARK  Name = 
REMARK  9 active torsions:
REMARK  status: ('A' for Active; 'I' for Inactive)
REMARK    1  A    between atoms: C_1  and  C_2
REMARK    2  A    between atoms: C_2  and  C_3
REMARK    3  A    between atoms: C_2  and  C_4
REMARK    4  A    between atoms: C_4  and  C_5
REMARK    5  A    between atoms: C_4  and  C_11
REMARK    6  A    between atoms: N_7  and  C_8
REMARK    7  A    between atoms: C_8  and  C_9
REMARK    8  A    between atoms: C_9  and  O_10
REMARK    9  A    between atoms: C_14  and  C_15
REMARK                            x       y       z     vdW  Elec       q    Type
REMARK                         _______ _______ _______ _____ _____    ______ ____
ROOT
ATOM      1  C   UNL     1       2.928   5.724  18.940  0.00  0.00    +0.000 A 
ATOM      2  C   UNL     1       2.810   6.719  18.043  0.00  0.00    +0.000 A 
ATOM      3  C   UNL     1       2.235   8.003  18.381  0.00  0.00    +0.000 A 
ATOM      4  C   UNL     1       1.674   8.190  19.586  0.00  0.00    +0.000 A 
ATOM      5  N   UNL     1       1.706   7.170  20.508  0.00  0.00    +0.000 N 
ATOM      6  C   UNL     1       2.344   5.964  20.313  0.00  0.00    +0.000 A 
ATOM      7  O   UNL     1       2.441   5.135  21.200  0.00  0.00    +0.000 OA
ATOM      8  H   UNL     1       1.291   7.316  21.420  0.00  0.00    +0.000 HD
ENDROOT
BRANCH   4   9
ATOM      9  C   UNL     1       1.070   9.472  19.955  0.00  0.00    +0.000 A 
ATOM     10  C   UNL     1       1.164  10.578  19.101  0.00  0.00    +0.000 A 
ATOM     11  C   UNL     1       0.572  11.795  19.453  0.00  0.00    +0.000 A 
ATOM     12  C   UNL     1      -0.124  11.931  20.665  0.00  0.00    +0.000 A 
ATOM     13  C   UNL     1      -0.741  13.142  21.029  0.00  0.00    +0.000 A 
ATOM     14  C   UNL     1      -1.439  13.258  22.234  0.00  0.00    +0.000 A 
ATOM     15  C   UNL     1      -1.530  12.166  23.091  0.00  0.00    +0.000 A 
ATOM     16  C   UNL     1      -0.921  10.966  22.740  0.00  0.00    +0.000 A 
ATOM     17  F   UNL     1      -1.031   9.925  23.583  0.00  0.00    +0.000 F 
ATOM     18  C   UNL     1      -0.212  10.822  21.538  0.00  0.00    +0.000 A 
ATOM     19  C   UNL     1       0.397   9.608  21.174  0.00  0.00    +0.000 A 
ENDBRANCH   4   9
BRANCH   1  20
ATOM     20  C   UNL     1       3.499   4.339  18.648  0.00  0.00    +0.000 C 
BRANCH  20  21
ATOM     21  C   UNL     1       4.897   4.527  18.009  0.00  0.00    +0.000 C 
ATOM     22  O   UNL     1       5.076   4.666  16.807  0.00  0.00    +0.000 OA
ATOM     23  N   UNL     1       5.981   4.551  18.891  0.00  0.00    +0.000 N 
ATOM     24  H   UNL     1       5.814   4.685  19.881  0.00  0.00    +0.000 HD
BRANCH  23  25
ATOM     25  C   UNL     1       7.348   4.713  18.382  0.00  0.00    +0.000 C 
BRANCH  25  26
ATOM     26  C   UNL     1       8.116   5.799  19.140  0.00  0.00    +0.000 C 
BRANCH  26  27
ATOM     27  O   UNL     1       8.145   5.506  20.537  0.00  0.00    +0.000 OA
ATOM     28  H   UNL     1       7.242   5.250  20.791  0.00  0.00    +0.000 HD
ENDBRANCH  26  27
ENDBRANCH  25  26
ENDBRANCH  23  25
ENDBRANCH  20  21
BRANCH  20  30
ATOM     29  C   UNL     1       2.903   2.011  17.613  0.00  0.00    +0.000 C 
ATOM     30  C   UNL     1       2.517   3.492  17.752  0.00  0.00    +0.000 C 
ATOM     31  C   UNL     1       1.069   3.517  18.282  0.00  0.00    +0.000 C 
ENDBRANCH  20  30
ENDBRANCH   1  20
TORSDOF 7
ENDMDL
MODEL 5
REMARK VINA RESULT:      -8.5      1.739      2.205
REMARK  Name = 
REMARK  9 active torsions:
REMARK  status: ('A' for Active; 'I' for Inactive)
REMARK    1  A    between atoms: C_1  and  C_2
REMARK    2  A    between atoms: C_2  and  C_3
REMARK    3  A    between atoms: C_2  and  C_4
REMARK    4  A    between atoms: C_4  and  C_5
REMARK    5  A    between atoms: C_4  and  C_11
REMARK    6  A    between atoms: N_7  and  C_8
REMARK    7  A    between atoms: C_8  and  C_9
REMARK    8  A    between atoms: C_9  and  O_10
REMARK    9  A    between atoms: C_14  and  C_15
REMARK                            x       y       z     vdW  Elec       q    Type
REMARK                         _______ _______ _______ _____ _____    ______ ____
ROOT
ATOM      1  C   UNL     1       3.176   5.485  19.230  0.00  0.00    +0.000 A 
ATOM      2  C   UNL     1       3.062   6.648  18.565  0.00  0.00    +0.000 A 
ATOM      3  C   UNL     1       2.360   7.788  19.114  0.00  0.00    +0.000 A 
ATOM      4  C   UNL     1       1.680   7.666  20.265  0.00  0.00    +0.000 A 
ATOM      5  N   UNL     1       1.708   6.468  20.939  0.00  0.00    +0.000 N 
ATOM      6  C   UNL     1       2.453   5.374  20.552  0.00  0.00    +0.000 A 
ATOM      7  O   UNL     1       2.534   4.373  21.242  0.00  0.00    +0.000 OA
ATOM      8  H   UNL     1       1.202   6.381  21.812  0.00  0.00    +0.000 HD
ENDROOT
BRANCH   4   9
ATOM      9  C   UNL     1       0.948   8.797  20.841  0.00  0.00    +0.000 A 
ATOM     10  C   UNL     1       0.649   8.832  22.208  0.00  0.00    +0.000 A 
ATOM     11  C   UNL     1      -0.038   9.923  22.753  0.00  0.00    +0.000 A 
ATOM     12  C   UNL     1      -0.438  10.997  21.942  0.00  0.00    +0.000 A 
ATOM     13  C   UNL     1      -1.114  12.109  22.476  0.00  0.00    +0.000 A 
ATOM     14  C   UNL     1      -1.498  13.175  21.658  0.00  0.00    +0.000 A 
ATOM     15  C   UNL     1      -1.211  13.144  20.297  0.00  0.00    +0.000 A 
ATOM     16  C   UNL     1      -0.546  12.046  19.761  0.00  0.00    +0.000 A 
ATOM     17  F   UNL     1      -0.274  12.045  18.445  0.00  0.00    +0.000 F 
ATOM     18  C   UNL     1      -0.151  10.961  20.559  0.00  0.00    +0.000 A 
ATOM     19  C   UNL     1       0.531   9.854  20.025  0.00  0.00    +0.000 A 
ENDBRANCH   4   9
BRANCH   1  20
ATOM     20  C   UNL     1       3.877   4.235  18.703  0.00  0.00    +0.000 C 
BRANCH  20  21
ATOM     21  C   UNL     1       5.250   4.667  18.131  0.00  0.00    +0.000 C 
ATOM     22  O   UNL     1       5.495   4.720  16.934  0.00  0.00    +0.000 OA
ATOM     23  N   UNL     1       6.225   5.024  19.068  0.00  0.00    +0.000 N 
ATOM     24  H   UNL     1       5.949   5.216  20.024  0.00  0.00    +0.000 HD
BRANCH  23  25
ATOM     25  C   UNL     1       7.562   5.436  18.626  0.00  0.00    +0.000 C 
BRANCH  25  26
ATOM     26  C   UNL     1       7.568   6.867  18.083  0.00  0.00    +0.000 C 
BRANCH  26  27
ATOM     27  O   UNL     1       7.635   6.859  16.657  0.00  0.00    +0.000 OA
ATOM     28  H   UNL     1       7.759   5.933  16.385  0.00  0.00    +0.000 HD
ENDBRANCH  26  27
ENDBRANCH  25  26
ENDBRANCH  23  25
ENDBRANCH  20  21
BRANCH  20  30
ATOM     29  C   UNL     1       2.986   1.945  17.805  0.00  0.00    +0.000 C 
ATOM     30  C   UNL     1       2.980   3.474  17.653  0.00  0.00    +0.000 C 
ATOM     31  C   UNL     1       1.503   3.913  17.716  0.00  0.00    +0.000 C 
ENDBRANCH  20  30
ENDBRANCH   1  20
TORSDOF 7
ENDMDL
MODEL 6
REMARK VINA RESULT:      -8.5      1.039      1.312
REMARK  Name = 
REMARK  9 active torsions:
REMARK  status: ('A' for Active; 'I' for Inactive)
REMARK    1  A    between atoms: C_1  and  C_2
REMARK    2  A    between atoms: C_2  and  C_3
REMARK    3  A    between atoms: C_2  and  C_4
REMARK    4  A    between atoms: C_4  and  C_5
REMARK    5  A    between atoms: C_4  and  C_11
REMARK    6  A    between atoms: N_7  and  C_8
REMARK    7  A    between atoms: C_8  and  C_9
REMARK    8  A    between atoms: C_9  and  O_10
REMARK    9  A    between atoms: C_14  and  C_15
REMARK                            x       y       z     vdW  Elec       q    Type
REMARK                         _______ _______ _______ _____ _____    ______ ____
ROOT
ATOM      1  C   UNL     1       3.292   5.068  19.352  0.00  0.00    +0.000 A 
ATOM      2  C   UNL     1       2.625   5.285  20.499  0.00  0.00    +0.000 A 
ATOM      3  C   UNL     1       1.861   6.491  20.735  0.00  0.00    +0.000 A 
ATOM      4  C   UNL     1       1.909   7.498  19.850  0.00  0.00    +0.000 A 
ATOM      5  N   UNL     1       2.643   7.347  18.697  0.00  0.00    +0.000 N 
ATOM      6  C   UNL     1       3.295   6.187  18.336  0.00  0.00    +0.000 A 
ATOM      7  O   UNL     1       3.838   6.063  17.253  0.00  0.00    +0.000 OA
ATOM      8  H   UNL     1       2.671   8.104  18.026  0.00  0.00    +0.000 HD
ENDROOT
BRANCH   4   9
ATOM      9  C   UNL     1       1.159   8.738  20.065  0.00  0.00    +0.000 A 
ATOM     10  C   UNL     1       0.942   9.634  19.011  0.00  0.00    +0.000 A 
ATOM     11  C   UNL     1       0.211  10.808  19.221  0.00  0.00    +0.000 A 
ATOM     12  C   UNL     1      -0.315  11.110  20.487  0.00  0.00    +0.000 A 
ATOM     13  C   UNL     1      -1.066  12.278  20.713  0.00  0.00    +0.000 A 
ATOM     14  C   UNL     1      -1.591  12.559  21.977  0.00  0.00    +0.000 A 
ATOM     15  C   UNL     1      -1.374  11.678  23.031  0.00  0.00    +0.000 A 
ATOM     16  C   UNL     1      -0.629  10.523  22.817  0.00  0.00    +0.000 A 
ATOM     17  F   UNL     1      -0.440   9.685  23.850  0.00  0.00    +0.000 F 
ATOM     18  C   UNL     1      -0.088  10.217  21.558  0.00  0.00    +0.000 A 
ATOM     19  C   UNL     1       0.656   9.045  21.334  0.00  0.00    +0.000 A 
ENDBRANCH   4   9
BRANCH   1  20
ATOM     20  C   UNL     1       4.138   3.834  19.045  0.00  0.00    +0.000 C 
BRANCH  20  21
ATOM     21  C   UNL     1       5.505   4.318  18.504  0.00  0.00    +0.000 C 
ATOM     22  O   UNL     1       6.321   4.926  19.181  0.00  0.00    +0.000 OA
ATOM     23  N   UNL     1       5.787   4.005  17.170  0.00  0.00    +0.000 N 
ATOM     24  H   UNL     1       5.233   3.302  16.697  0.00  0.00    +0.000 HD
BRANCH  23  25
ATOM     25  C   UNL     1       7.053   4.430  16.560  0.00  0.00    +0.000 C 
BRANCH  25  26
ATOM     26  C   UNL     1       6.916   4.647  15.052  0.00  0.00    +0.000 C 
BRANCH  26  27
ATOM     27  O   UNL     1       7.925   5.540  14.582  0.00  0.00    +0.000 OA
ATOM     28  H   UNL     1       7.898   6.325  15.157  0.00  0.00    +0.000 HD
ENDBRANCH  26  27
ENDBRANCH  25  26
ENDBRANCH  23  25
ENDBRANCH  20  21
BRANCH  20  30
ATOM     29  C   UNL     1       3.611   1.367  18.352  0.00  0.00    +0.000 C 
ATOM     30  C   UNL     1       3.390   2.859  18.057  0.00  0.00    +0.000 C 
ATOM     31  C   UNL     1       1.864   3.082  18.055  0.00  0.00    +0.000 C 
ENDBRANCH  20  30
ENDBRANCH   1  20
TORSDOF 7
ENDMDL
MODEL 7
REMARK VINA RESULT:      -8.3      1.878      3.386
REMARK  Name = 
REMARK  9 active torsions:
REMARK  status: ('A' for Active; 'I' for Inactive)
REMARK    1  A    between atoms: C_1  and  C_2
REMARK    2  A    between atoms: C_2  and  C_3
REMARK    3  A    between atoms: C_2  and  C_4
REMARK    4  A    between atoms: C_4  and  C_5
REMARK    5  A    between atoms: C_4  and  C_11
REMARK    6  A    between atoms: N_7  and  C_8
REMARK    7  A    between atoms: C_8  and  C_9
REMARK    8  A    between atoms: C_9  and  O_10
REMARK    9  A    between atoms: C_14  and  C_15
REMARK                            x       y       z     vdW  Elec       q    Type
REMARK                         _______ _______ _______ _____ _____    ______ ____
ROOT
ATOM      1  C   UNL     1       3.480   6.312  17.983  0.00  0.00    +0.000 A 
ATOM      2  C   UNL     1       2.897   7.429  17.513  0.00  0.00    +0.000 A 
ATOM      3  C   UNL     1       2.130   8.317  18.359  0.00  0.00    +0.000 A 
ATOM      4  C   UNL     1       1.867   7.973  19.629  0.00  0.00    +0.000 A 
ATOM      5  N   UNL     1       2.382   6.799  20.128  0.00  0.00    +0.000 N 
ATOM      6  C   UNL     1       3.225   5.960  19.430  0.00  0.00    +0.000 A 
ATOM      7  O   UNL     1       3.745   4.990  19.952  0.00  0.00    +0.000 OA
ATOM      8  H   UNL     1       2.191   6.545  21.089  0.00  0.00    +0.000 HD
ENDROOT
BRANCH   4   9
ATOM      9  C   UNL     1       1.082   8.843  20.508  0.00  0.00    +0.000 A 
ATOM     10  C   UNL     1       1.146   8.697  21.899  0.00  0.00    +0.000 A 
ATOM     11  C   UNL     1       0.405   9.542  22.733  0.00  0.00    +0.000 A 
ATOM     12  C   UNL     1      -0.413  10.547  22.192  0.00  0.00    +0.000 A 
ATOM     13  C   UNL     1      -1.152  11.416  23.015  0.00  0.00    +0.000 A 
ATOM     14  C   UNL     1      -1.955  12.417  22.461  0.00  0.00    +0.000 A 
ATOM     15  C   UNL     1      -2.030  12.563  21.080  0.00  0.00    +0.000 A 
ATOM     16  C   UNL     1      -1.305  11.705  20.260  0.00  0.00    +0.000 A 
ATOM     17  F   UNL     1      -1.389  11.873  18.929  0.00  0.00    +0.000 F 
ATOM     18  C   UNL     1      -0.493  10.690  20.788  0.00  0.00    +0.000 A 
ATOM     19  C   UNL     1       0.251   9.827  19.964  0.00  0.00    +0.000 A 
ENDBRANCH   4   9
BRANCH   1  20
ATOM     20  C   UNL     1       4.280   5.317  17.145  0.00  0.00    +0.000 C 
BRANCH  20  21
ATOM     21  C   UNL     1       3.587   3.937  17.257  0.00  0.00    +0.000 C 
ATOM     22  O   UNL     1       2.545   3.658  16.682  0.00  0.00    +0.000 OA
ATOM     23  N   UNL     1       4.231   2.986  18.054  0.00  0.00    +0.000 N 
ATOM     24  H   UNL     1       5.197   3.131  18.319  0.00  0.00    +0.000 HD
BRANCH  23  25
ATOM     25  C   UNL     1       3.647   1.651  18.232  0.00  0.00    +0.000 C 
BRANCH  25  26
ATOM     26  C   UNL     1       2.505   1.658  19.251  0.00  0.00    +0.000 C 
BRANCH  26  27
ATOM     27  O   UNL     1       1.243   1.697  18.585  0.00  0.00    +0.000 OA
ATOM     28  H   UNL     1       0.589   2.002  19.238  0.00  0.00    +0.000 HD
ENDBRANCH  26  27
ENDBRANCH  25  26
ENDBRANCH  23  25
ENDBRANCH  20  21
BRANCH  20  30
ATOM     29  C   UNL     1       6.713   4.502  16.633  0.00  0.00    +0.000 C 
ATOM     30  C   UNL     1       5.794   5.287  17.583  0.00  0.00    +0.000 C 
ATOM     31  C   UNL     1       6.398   6.701  17.705  0.00  0.00    +0.000 C 
ENDBRANCH  20  30
ENDBRANCH   1  20
TORSDOF 7
ENDMDL
MODEL 8
REMARK VINA RESULT:      -8.2      1.532      1.763
REMARK  Name = 
REMARK  9 active torsions:
REMARK  status: ('A' for Active; 'I' for Inactive)
REMARK    1  A    between atoms: C_1  and  C_2
REMARK    2  A    between atoms: C_2  and  C_3
REMARK    3  A    between atoms: C_2  and  C_4
REMARK    4  A    between atoms: C_4  and  C_5
REMARK    5  A    between atoms: C_4  and  C_11
REMARK    6  A    between atoms: N_7  and  C_8
REMARK    7  A    between atoms: C_8  and  C_9
REMARK    8  A    between atoms: C_9  and  O_10
REMARK    9  A    between atoms: C_14  and  C_15
REMARK                            x       y       z     vdW  Elec       q    Type
REMARK                         _______ _______ _______ _____ _____    ______ ____
ROOT
ATOM      1  C   UNL     1       3.566   5.040  19.118  0.00  0.00    +0.000 A 
ATOM      2  C   UNL     1       2.804   5.149  20.220  0.00  0.00    +0.000 A 
ATOM      3  C   UNL     1       2.000   6.321  20.492  0.00  0.00    +0.000 A 
ATOM      4  C   UNL     1       2.099   7.401  19.702  0.00  0.00    +0.000 A 
ATOM      5  N   UNL     1       2.926   7.357  18.604  0.00  0.00    +0.000 N 
ATOM      6  C   UNL     1       3.628   6.241  18.202  0.00  0.00    +0.000 A 
ATOM      7  O   UNL     1       4.260   6.217  17.161  0.00  0.00    +0.000 OA
ATOM      8  H   UNL     1       2.993   8.169  18.003  0.00  0.00    +0.000 HD
ENDROOT
BRANCH   4   9
ATOM      9  C   UNL     1       1.309   8.608  19.957  0.00  0.00    +0.000 A 
ATOM     10  C   UNL     1       1.037   9.515  18.926  0.00  0.00    +0.000 A 
ATOM     11  C   UNL     1       0.269  10.657  19.175  0.00  0.00    +0.000 A 
ATOM     12  C   UNL     1      -0.240  10.915  20.458  0.00  0.00    +0.000 A 
ATOM     13  C   UNL     1      -1.028  12.050  20.723  0.00  0.00    +0.000 A 
ATOM     14  C   UNL     1      -1.535  12.288  22.003  0.00  0.00    +0.000 A 
ATOM     15  C   UNL     1      -1.262  11.395  23.035  0.00  0.00    +0.000 A 
ATOM     16  C   UNL     1      -0.481  10.273  22.782  0.00  0.00    +0.000 A 
ATOM     17  F   UNL     1      -0.239   9.423  23.794  0.00  0.00    +0.000 F 
ATOM     18  C   UNL     1       0.043  10.011  21.506  0.00  0.00    +0.000 A 
ATOM     19  C   UNL     1       0.824   8.872  21.243  0.00  0.00    +0.000 A 
ENDBRANCH   4   9
BRANCH   1  20
ATOM     20  C   UNL     1       4.458   3.847  18.779  0.00  0.00    +0.000 C 
BRANCH  20  21
ATOM     21  C   UNL     1       5.827   4.397  18.309  0.00  0.00    +0.000 C 
ATOM     22  O   UNL     1       6.316   4.146  17.217  0.00  0.00    +0.000 OA
ATOM     23  N   UNL     1       6.496   5.236  19.207  0.00  0.00    +0.000 N 
ATOM     24  H   UNL     1       5.989   5.635  19.987  0.00  0.00    +0.000 HD
BRANCH  23  25
ATOM     25  C   UNL     1       7.807   5.798  18.859  0.00  0.00    +0.000 C 
BRANCH  25  26
ATOM     26  C   UNL     1       7.678   7.142  18.137  0.00  0.00    +0.000 C 
BRANCH  26  27
ATOM     27  O   UNL     1       7.310   6.942  16.773  0.00  0.00    +0.000 OA
ATOM     28  H   UNL     1       7.956   6.321  16.393  0.00  0.00    +0.000 HD
ENDBRANCH  26  27
ENDBRANCH  25  26
ENDBRANCH  23  25
ENDBRANCH  20  21
BRANCH  20  30
ATOM     29  C   UNL     1       3.664   1.433  18.157  0.00  0.00    +0.000 C 
ATOM     30  C   UNL     1       3.773   2.902  17.720  0.00  0.00    +0.000 C 
ATOM     31  C   UNL     1       2.344   3.358  17.363  0.00  0.00    +0.000 C 
ENDBRANCH  20  30
ENDBRANCH   1  20
TORSDOF 7
ENDMDL
MODEL 9
REMARK VINA RESULT:      -8.1      2.291      2.830
REMARK  Name = 
REMARK  9 active torsions:
REMARK  status: ('A' for Active; 'I' for Inactive)
REMARK    1  A    between atoms: C_1  and  C_2
REMARK    2  A    between atoms: C_2  and  C_3
REMARK    3  A    between atoms: C_2  and  C_4
REMARK    4  A    between atoms: C_4  and  C_5
REMARK    5  A    between atoms: C_4  and  C_11
REMARK    6  A    between atoms: N_7  and  C_8
REMARK    7  A    between atoms: C_8  and  C_9
REMARK    8  A    between atoms: C_9  and  O_10
REMARK    9  A    between atoms: C_14  and  C_15
REMARK                            x       y       z     vdW  Elec       q    Type
REMARK                         _______ _______ _______ _____ _____    ______ ____
ROOT
ATOM      1  C   UNL     1       3.196   6.000  18.747  0.00  0.00    +0.000 A 
ATOM      2  C   UNL     1       3.219   6.956  17.802  0.00  0.00    +0.000 A 
ATOM      3  C   UNL     1       2.557   8.231  17.974  0.00  0.00    +0.000 A 
ATOM      4  C   UNL     1       1.780   8.443  19.047  0.00  0.00    +0.000 A 
ATOM      5  N   UNL     1       1.668   7.460  20.002  0.00  0.00    +0.000 N 
ATOM      6  C   UNL     1       2.363   6.270  19.978  0.00  0.00    +0.000 A 
ATOM      7  O   UNL     1       2.317   5.478  20.903  0.00  0.00    +0.000 OA
ATOM      8  H   UNL     1       1.088   7.626  20.816  0.00  0.00    +0.000 HD
ENDROOT
BRANCH   4   9
ATOM      9  C   UNL     1       1.085   9.718  19.245  0.00  0.00    +0.000 A 
ATOM     10  C   UNL     1      -0.130   9.769  19.940  0.00  0.00    +0.000 A 
ATOM     11  C   UNL     1      -0.780  10.992  20.138  0.00  0.00    +0.000 A 
ATOM     12  C   UNL     1      -0.229  12.185  19.645  0.00  0.00    +0.000 A 
ATOM     13  C   UNL     1      -0.860  13.426  19.849  0.00  0.00    +0.000 A 
ATOM     14  C   UNL     1      -0.295  14.607  19.360  0.00  0.00    +0.000 A 
ATOM     15  C   UNL     1       0.908  14.564  18.662  0.00  0.00    +0.000 A 
ATOM     16  C   UNL     1       1.536  13.341  18.454  0.00  0.00    +0.000 A 
ATOM     17  F   UNL     1       2.701  13.328  17.783  0.00  0.00    +0.000 F 
ATOM     18  C   UNL     1       0.989  12.139  18.931  0.00  0.00    +0.000 A 
ATOM     19  C   UNL     1       1.626  10.902  18.732  0.00  0.00    +0.000 A 
ENDBRANCH   4   9
BRANCH   1  20
ATOM     20  C   UNL     1       3.848   4.624  18.623  0.00  0.00    +0.000 C 
BRANCH  20  21
ATOM     21  C   UNL     1       5.310   4.833  18.159  0.00  0.00    +0.000 C 
ATOM     22  O   UNL     1       5.707   4.554  17.037  0.00  0.00    +0.000 OA
ATOM     23  N   UNL     1       6.184   5.388  19.099  0.00  0.00    +0.000 N 
ATOM     24  H   UNL     1       5.805   5.840  19.923  0.00  0.00    +0.000 HD
BRANCH  23  25
ATOM     25  C   UNL     1       7.594   5.614  18.759  0.00  0.00    +0.000 C 
BRANCH  25  26
ATOM     26  C   UNL     1       7.819   6.998  18.145  0.00  0.00    +0.000 C 
BRANCH  26  27
ATOM     27  O   UNL     1       7.703   6.938  16.724  0.00  0.00    +0.000 OA
ATOM     28  H   UNL     1       7.959   7.813  16.383  0.00  0.00    +0.000 HD
ENDBRANCH  26  27
ENDBRANCH  25  26
ENDBRANCH  23  25
ENDBRANCH  20  21
BRANCH  20  30
ATOM     29  C   UNL     1       3.310   2.184  17.848  0.00  0.00    +0.000 C 
ATOM     30  C   UNL     1       3.022   3.683  17.666  0.00  0.00    +0.000 C 
ATOM     31  C   UNL     1       1.500   3.858  17.841  0.00  0.00    +0.000 C 
ENDBRANCH  20  30
ENDBRANCH   1  20
TORSDOF 7
ENDMDL
