MODEL 1
REMARK VINA RESULT:      -7.9      0.000      0.000
REMARK  Name = 
REMARK  7 active torsions:
REMARK  status: ('A' for Active; 'I' for Inactive)
REMARK    1  A    between atoms: C_1  and  C_2
REMARK    2  A    between atoms: C_7  and  N_8
REMARK    3  A    between atoms: C_12  and  C_14
REMARK    4  A    between atoms: C_16  and  C_17
REMARK    5  A    between atoms: N_28  and  C_29
REMARK    6  A    between atoms: C_29  and  C_30
REMARK    7  A    between atoms: C_29  and  C_31
REMARK                            x       y       z     vdW  Elec       q    Type
REMARK                         _______ _______ _______ _____ _____    ______ ____
ROOT
ATOM      1  C   UNL     1      -0.589  10.218  20.341  0.00  0.00    +0.000 A 
ATOM      2  C   UNL     1      -1.380   9.990  19.214  0.00  0.00    +0.000 A 
ATOM      3  C   UNL     1      -2.006  11.046  18.551  0.00  0.00    +0.000 A 
ATOM      4  N   UNL     1      -1.993  12.317  19.022  0.00  0.00    +0.000 NA
ATOM      5  C   UNL     1      -1.353  12.476  20.201  0.00  0.00    +0.000 A 
ATOM      6  C   UNL     1      -0.647  11.505  20.899  0.00  0.00    +0.000 A 
ATOM      7  C   UNL     1      -0.168  12.173  22.044  0.00  0.00    +0.000 A 
ATOM      8  N   UNL     1      -0.530  13.459  22.086  0.00  0.00    +0.000 NA
ATOM      9  N   UNL     1      -1.255  13.624  20.953  0.00  0.00    +0.000 N 
ENDROOT
BRANCH   1  14
ATOM     10  N   UNL     1       2.634   6.667  18.639  0.00  0.00    +0.000 N 
ATOM     11  C   UNL     1       2.234   6.272  20.002  0.00  0.00    +0.000 C 
ATOM     12  C   UNL     1       2.057   7.503  20.926  0.00  0.00    +0.000 C 
ATOM     13  N   UNL     1       1.302   8.589  20.290  0.00  0.00    +0.000 N 
ATOM     14  C   UNL     1       0.223   9.154  20.967  0.00  0.00    +0.000 C 
ATOM     15  O   UNL     1      -0.091   8.813  22.110  0.00  0.00    +0.000 OA
ATOM     16  C   UNL     1       1.870   8.964  18.981  0.00  0.00    +0.000 C 
ATOM     17  C   UNL     1       1.822   7.745  18.043  0.00  0.00    +0.000 C 
BRANCH  10  24
ATOM     18  C   UNL     1       2.110   3.817  17.705  0.00  0.00    +0.000 C 
ATOM     19  C   UNL     1       3.352   4.622  17.427  0.00  0.00    +0.000 A 
ATOM     20  C   UNL     1       4.358   3.987  16.665  0.00  0.00    +0.000 A 
ATOM     21  C   UNL     1       5.515   4.658  16.282  0.00  0.00    +0.000 A 
ATOM     22  C   UNL     1       5.691   5.975  16.662  0.00  0.00    +0.000 A 
ATOM     23  C   UNL     1       4.714   6.606  17.438  0.00  0.00    +0.000 A 
ATOM     24  C   UNL     1       3.526   5.958  17.850  0.00  0.00    +0.000 A 
ENDBRANCH  10  24
ENDBRANCH   1  14
BRANCH   3  25
ATOM     25  C   UNL     1      -2.681  10.835  17.243  0.00  0.00    +0.000 A 
ATOM     26  C   UNL     1      -2.177   9.944  16.271  0.00  0.00    +0.000 A 
ATOM     27  C   UNL     1      -2.815   9.757  15.042  0.00  0.00    +0.000 A 
ATOM     28  C   UNL     1      -3.980  10.454  14.749  0.00  0.00    +0.000 A 
ATOM     29  C   UNL     1      -4.494  11.353  15.679  0.00  0.00    +0.000 A 
ATOM     30  C   UNL     1      -3.849  11.542  16.908  0.00  0.00    +0.000 A 
ENDBRANCH   3  25
BRANCH   9  31
ATOM     31  C   UNL     1      -1.821  14.937  20.667  0.00  0.00    +0.000 C 
ATOM     32  C   UNL     1      -2.225  15.678  21.939  0.00  0.00    +0.000 C 
ATOM     33  C   UNL     1      -0.911  15.787  19.781  0.00  0.00    +0.000 C 
ENDBRANCH   9  31
TORSDOF 4
ENDMDL
MODEL 2
REMARK VINA RESULT:      -7.8      0.530      1.003
REMARK  Name = 
REMARK  7 active torsions:
REMARK  status: ('A' for Active; 'I' for Inactive)
REMARK    1  A    between atoms: C_1  and  C_2
REMARK    2  A    between atoms: C_7  and  N_8
REMARK    3  A    between atoms: C_12  and  C_14
REMARK    4  A    between atoms: C_16  and  C_17
REMARK    5  A    between atoms: N_28  and  C_29
REMARK    6  A    between atoms: C_29  and  C_30
REMARK    7  A    between atoms: C_29  and  C_31
REMARK                            x       y       z     vdW  Elec       q    Type
REMARK                         _______ _______ _______ _____ _____    ______ ____
ROOT
ATOM      1  C   UNL     1      -0.364  10.263  20.099  0.00  0.00    +0.000 A 
ATOM      2  C   UNL     1      -1.284  10.059  19.069  0.00  0.00    +0.000 A 
ATOM      3  C   UNL     1      -1.796  11.133  18.341  0.00  0.00    +0.000 A 
ATOM      4  N   UNL     1      -1.541  12.425  18.663  0.00  0.00    +0.000 NA
ATOM      5  C   UNL     1      -0.776  12.590  19.764  0.00  0.00    +0.000 A 
ATOM      6  C   UNL     1      -0.168  11.590  20.510  0.00  0.00    +0.000 A 
ATOM      7  C   UNL     1       0.516  12.278  21.533  0.00  0.00    +0.000 A 
ATOM      8  N   UNL     1       0.366  13.604  21.458  0.00  0.00    +0.000 NA
ATOM      9  N   UNL     1      -0.428  13.775  20.372  0.00  0.00    +0.000 N 
ENDROOT
BRANCH   1  14
ATOM     10  N   UNL     1       2.746   6.516  18.619  0.00  0.00    +0.000 N 
ATOM     11  C   UNL     1       2.216   6.142  19.944  0.00  0.00    +0.000 C 
ATOM     12  C   UNL     1       2.047   7.379  20.863  0.00  0.00    +0.000 C 
ATOM     13  N   UNL     1       1.416   8.514  20.180  0.00  0.00    +0.000 N 
ATOM     14  C   UNL     1       0.326   9.146  20.776  0.00  0.00    +0.000 C 
ATOM     15  O   UNL     1      -0.097   8.821  21.888  0.00  0.00    +0.000 OA
ATOM     16  C   UNL     1       2.107   8.856  18.921  0.00  0.00    +0.000 C 
ATOM     17  C   UNL     1       2.054   7.646  17.972  0.00  0.00    +0.000 C 
BRANCH  10  24
ATOM     18  C   UNL     1       2.122   3.700  17.643  0.00  0.00    +0.000 C 
ATOM     19  C   UNL     1       3.426   4.429  17.458  0.00  0.00    +0.000 A 
ATOM     20  C   UNL     1       4.446   3.734  16.769  0.00  0.00    +0.000 A 
ATOM     21  C   UNL     1       5.665   4.334  16.473  0.00  0.00    +0.000 A 
ATOM     22  C   UNL     1       5.891   5.639  16.868  0.00  0.00    +0.000 A 
ATOM     23  C   UNL     1       4.900   6.328  17.572  0.00  0.00    +0.000 A 
ATOM     24  C   UNL     1       3.648   5.754  17.895  0.00  0.00    +0.000 A 
ENDBRANCH  10  24
ENDBRANCH   1  14
BRANCH   3  25
ATOM     25  C   UNL     1      -2.616  10.909  17.121  0.00  0.00    +0.000 A 
ATOM     26  C   UNL     1      -3.897  11.481  16.960  0.00  0.00    +0.000 A 
ATOM     27  C   UNL     1      -4.664  11.260  15.813  0.00  0.00    +0.000 A 
ATOM     28  C   UNL     1      -4.170  10.462  14.789  0.00  0.00    +0.000 A 
ATOM     29  C   UNL     1      -2.918   9.869  14.924  0.00  0.00    +0.000 A 
ATOM     30  C   UNL     1      -2.155  10.087  16.077  0.00  0.00    +0.000 A 
ENDBRANCH   3  25
BRANCH   9  31
ATOM     31  C   UNL     1      -0.805  15.129  19.985  0.00  0.00    +0.000 C 
ATOM     32  C   UNL     1      -1.491  15.882  21.123  0.00  0.00    +0.000 C 
ATOM     33  C   UNL     1       0.366  15.921  19.406  0.00  0.00    +0.000 C 
ENDBRANCH   9  31
TORSDOF 4
ENDMDL
MODEL 3
REMARK VINA RESULT:      -7.8      6.281      7.677
REMARK  Name = 
REMARK  7 active torsions:
REMARK  status: ('A' for Active; 'I' for Inactive)
REMARK    1  A    between atoms: C_1  and  C_2
REMARK    2  A    between atoms: C_7  and  N_8
REMARK    3  A    between atoms: C_12  and  C_14
REMARK    4  A    between atoms: C_16  and  C_17
REMARK    5  A    between atoms: N_28  and  C_29
REMARK    6  A    between atoms: C_29  and  C_30
REMARK    7  A    between atoms: C_29  and  C_31
REMARK                            x       y       z     vdW  Elec       q    Type
REMARK                         _______ _______ _______ _____ _____    ______ ____
ROOT
ATOM      1  C   UNL     1       3.280  14.914  20.124  0.00  0.00    +0.000 A 
ATOM      2  C   UNL     1       2.658  13.679  19.935  0.00  0.00    +0.000 A 
ATOM      3  C   UNL     1       1.540  13.557  19.110  0.00  0.00    +0.000 A 
ATOM      4  N   UNL     1       0.919  14.628  18.553  0.00  0.00    +0.000 NA
ATOM      5  C   UNL     1       1.451  15.823  18.886  0.00  0.00    +0.000 A 
ATOM      6  C   UNL     1       2.596  16.041  19.641  0.00  0.00    +0.000 A 
ATOM      7  C   UNL     1       2.725  17.444  19.689  0.00  0.00    +0.000 A 
ATOM      8  N   UNL     1       1.754  18.079  19.026  0.00  0.00    +0.000 NA
ATOM      9  N   UNL     1       0.985  17.072  18.545  0.00  0.00    +0.000 N 
ENDROOT
BRANCH   1  14
ATOM     10  N   UNL     1       8.188  14.291  18.935  0.00  0.00    +0.000 N 
ATOM     11  C   UNL     1       8.095  14.290  20.407  0.00  0.00    +0.000 C 
ATOM     12  C   UNL     1       7.016  15.281  20.912  0.00  0.00    +0.000 C 
ATOM     13  N   UNL     1       5.761  15.190  20.157  0.00  0.00    +0.000 N 
ATOM     14  C   UNL     1       4.559  15.054  20.850  0.00  0.00    +0.000 C 
ATOM     15  O   UNL     1       4.503  15.062  22.082  0.00  0.00    +0.000 OA
ATOM     16  C   UNL     1       5.981  15.314  18.703  0.00  0.00    +0.000 C 
ATOM     17  C   UNL     1       6.897  14.171  18.232  0.00  0.00    +0.000 C 
BRANCH  10  24
ATOM     18  C   UNL     1       9.757  16.687  17.901  0.00  0.00    +0.000 C 
ATOM     19  C   UNL     1      10.115  15.240  17.688  0.00  0.00    +0.000 A 
ATOM     20  C   UNL     1      11.284  14.983  16.938  0.00  0.00    +0.000 A 
ATOM     21  C   UNL     1      11.755  13.688  16.741  0.00  0.00    +0.000 A 
ATOM     22  C   UNL     1      11.057  12.625  17.284  0.00  0.00    +0.000 A 
ATOM     23  C   UNL     1       9.885  12.866  18.006  0.00  0.00    +0.000 A 
ATOM     24  C   UNL     1       9.373  14.166  18.226  0.00  0.00    +0.000 A 
ENDBRANCH  10  24
ENDBRANCH   1  14
BRANCH   3  25
ATOM     25  C   UNL     1       0.997  12.221  18.748  0.00  0.00    +0.000 A 
ATOM     26  C   UNL     1      -0.388  11.952  18.728  0.00  0.00    +0.000 A 
ATOM     27  C   UNL     1      -0.889  10.691  18.393  0.00  0.00    +0.000 A 
ATOM     28  C   UNL     1      -0.017   9.661  18.065  0.00  0.00    +0.000 A 
ATOM     29  C   UNL     1       1.356   9.888  18.091  0.00  0.00    +0.000 A 
ATOM     30  C   UNL     1       1.854  11.152  18.433  0.00  0.00    +0.000 A 
ENDBRANCH   3  25
BRANCH   9  31
ATOM     31  C   UNL     1      -0.194  17.406  17.754  0.00  0.00    +0.000 C 
ATOM     32  C   UNL     1      -1.397  17.748  18.631  0.00  0.00    +0.000 C 
ATOM     33  C   UNL     1       0.082  18.497  16.722  0.00  0.00    +0.000 C 
ENDBRANCH   9  31
TORSDOF 4
ENDMDL
MODEL 4
REMARK VINA RESULT:      -7.7      1.478      1.845
REMARK  Name = 
REMARK  7 active torsions:
REMARK  status: ('A' for Active; 'I' for Inactive)
REMARK    1  A    between atoms: C_1  and  C_2
REMARK    2  A    between atoms: C_7  and  N_8
REMARK    3  A    between atoms: C_12  and  C_14
REMARK    4  A    between atoms: C_16  and  C_17
REMARK    5  A    between atoms: N_28  and  C_29
REMARK    6  A    between atoms: C_29  and  C_30
REMARK    7  A    between atoms: C_29  and  C_31
REMARK                            x       y       z     vdW  Elec       q    Type
REMARK                         _______ _______ _______ _____ _____    ______ ____
ROOT
ATOM      1  C   UNL     1      -0.169  10.804  20.379  0.00  0.00    +0.000 A 
ATOM      2  C   UNL     1      -1.495  10.829  19.946  0.00  0.00    +0.000 A 
ATOM      3  C   UNL     1      -1.989  11.907  19.210  0.00  0.00    +0.000 A 
ATOM      4  N   UNL     1      -1.267  13.032  18.983  0.00  0.00    +0.000 NA
ATOM      5  C   UNL     1      -0.042  13.040  19.553  0.00  0.00    +0.000 A 
ATOM      6  C   UNL     1       0.559  11.996  20.242  0.00  0.00    +0.000 A 
ATOM      7  C   UNL     1       1.820  12.502  20.619  0.00  0.00    +0.000 A 
ATOM      8  N   UNL     1       2.019  13.759  20.211  0.00  0.00    +0.000 NA
ATOM      9  N   UNL     1       0.869  14.071  19.564  0.00  0.00    +0.000 N 
ENDROOT
BRANCH   1  14
ATOM     10  N   UNL     1       2.410   6.749  18.703  0.00  0.00    +0.000 N 
ATOM     11  C   UNL     1       1.926   6.426  20.058  0.00  0.00    +0.000 C 
ATOM     12  C   UNL     1       1.953   7.666  20.987  0.00  0.00    +0.000 C 
ATOM     13  N   UNL     1       1.409   8.869  20.346  0.00  0.00    +0.000 N 
ATOM     14  C   UNL     1       0.435   9.612  21.010  0.00  0.00    +0.000 C 
ATOM     15  O   UNL     1       0.049   9.327  22.147  0.00  0.00    +0.000 OA
ATOM     16  C   UNL     1       2.054   9.143  19.047  0.00  0.00    +0.000 C 
ATOM     17  C   UNL     1       1.809   7.954  18.101  0.00  0.00    +0.000 C 
BRANCH  10  24
ATOM     18  C   UNL     1       1.551   3.908  18.024  0.00  0.00    +0.000 C 
ATOM     19  C   UNL     1       2.846   4.560  17.616  0.00  0.00    +0.000 A 
ATOM     20  C   UNL     1       3.735   3.772  16.850  0.00  0.00    +0.000 A 
ATOM     21  C   UNL     1       4.926   4.292  16.352  0.00  0.00    +0.000 A 
ATOM     22  C   UNL     1       5.253   5.608  16.618  0.00  0.00    +0.000 A 
ATOM     23  C   UNL     1       4.394   6.389  17.396  0.00  0.00    +0.000 A 
ATOM     24  C   UNL     1       3.176   5.898  17.923  0.00  0.00    +0.000 A 
ENDBRANCH  10  24
ENDBRANCH   1  14
BRANCH   3  25
ATOM     25  C   UNL     1      -3.335  11.850  18.580  0.00  0.00    +0.000 A 
ATOM     26  C   UNL     1      -3.526  11.405  17.254  0.00  0.00    +0.000 A 
ATOM     27  C   UNL     1      -4.794  11.362  16.668  0.00  0.00    +0.000 A 
ATOM     28  C   UNL     1      -5.910  11.759  17.393  0.00  0.00    +0.000 A 
ATOM     29  C   UNL     1      -5.754  12.219  18.697  0.00  0.00    +0.000 A 
ATOM     30  C   UNL     1      -4.481  12.267  19.280  0.00  0.00    +0.000 A 
ENDBRANCH   3  25
BRANCH   9  31
ATOM     31  C   UNL     1       0.732  15.399  18.977  0.00  0.00    +0.000 C 
ATOM     32  C   UNL     1       0.045  16.378  19.925  0.00  0.00    +0.000 C 
ATOM     33  C   UNL     1       2.059  15.949  18.457  0.00  0.00    +0.000 C 
ENDBRANCH   9  31
TORSDOF 4
ENDMDL
MODEL 5
REMARK VINA RESULT:      -7.7      6.084      7.329
REMARK  Name = 
REMARK  7 active torsions:
REMARK  status: ('A' for Active; 'I' for Inactive)
REMARK    1  A    between atoms: C_1  and  C_2
REMARK    2  A    between atoms: C_7  and  N_8
REMARK    3  A    between atoms: C_12  and  C_14
REMARK    4  A    between atoms: C_16  and  C_17
REMARK    5  A    between atoms: N_28  and  C_29
REMARK    6  A    between atoms: C_29  and  C_30
REMARK    7  A    between atoms: C_29  and  C_31
REMARK                            x       y       z     vdW  Elec       q    Type
REMARK                         _______ _______ _______ _____ _____    ______ ____
ROOT
ATOM      1  C   UNL     1       2.818  14.854  20.216  0.00  0.00    +0.000 A 
ATOM      2  C   UNL     1       2.048  13.712  19.991  0.00  0.00    +0.000 A 
ATOM      3  C   UNL     1       0.945  13.746  19.138  0.00  0.00    +0.000 A 
ATOM      4  N   UNL     1       0.482  14.894  18.584  0.00  0.00    +0.000 NA
ATOM      5  C   UNL     1       1.154  16.007  18.950  0.00  0.00    +0.000 A 
ATOM      6  C   UNL     1       2.297  16.066  19.735  0.00  0.00    +0.000 A 
ATOM      7  C   UNL     1       2.604  17.440  19.809  0.00  0.00    +0.000 A 
ATOM      8  N   UNL     1       1.740  18.203  19.133  0.00  0.00    +0.000 NA
ATOM      9  N   UNL     1       0.861  17.310  18.617  0.00  0.00    +0.000 N 
ENDROOT
BRANCH   1  14
ATOM     10  N   UNL     1       7.745  14.509  18.993  0.00  0.00    +0.000 N 
ATOM     11  C   UNL     1       7.628  14.168  20.423  0.00  0.00    +0.000 C 
ATOM     12  C   UNL     1       6.540  15.018  21.127  0.00  0.00    +0.000 C 
ATOM     13  N   UNL     1       5.298  15.107  20.352  0.00  0.00    +0.000 N 
ATOM     14  C   UNL     1       4.085  14.818  20.975  0.00  0.00    +0.000 C 
ATOM     15  O   UNL     1       4.009  14.541  22.174  0.00  0.00    +0.000 OA
ATOM     16  C   UNL     1       5.541  15.564  18.969  0.00  0.00    +0.000 C 
ATOM     17  C   UNL     1       6.466  14.559  18.262  0.00  0.00    +0.000 C 
BRANCH  10  24
ATOM     18  C   UNL     1       9.126  12.008  17.938  0.00  0.00    +0.000 C 
ATOM     19  C   UNL     1       9.645  13.417  17.823  0.00  0.00    +0.000 A 
ATOM     20  C   UNL     1      10.885  13.582  17.166  0.00  0.00    +0.000 A 
ATOM     21  C   UNL     1      11.426  14.843  16.934  0.00  0.00    +0.000 A 
ATOM     22  C   UNL     1      10.739  15.963  17.363  0.00  0.00    +0.000 A 
ATOM     23  C   UNL     1       9.524  15.811  18.037  0.00  0.00    +0.000 A 
ATOM     24  C   UNL     1       8.942  14.548  18.295  0.00  0.00    +0.000 A 
ENDBRANCH  10  24
ENDBRANCH   1  14
BRANCH   3  25
ATOM     25  C   UNL     1       0.245  12.496  18.741  0.00  0.00    +0.000 A 
ATOM     26  C   UNL     1       0.869  11.231  18.808  0.00  0.00    +0.000 A 
ATOM     27  C   UNL     1       0.206  10.061  18.426  0.00  0.00    +0.000 A 
ATOM     28  C   UNL     1      -1.105  10.122  17.971  0.00  0.00    +0.000 A 
ATOM     29  C   UNL     1      -1.743  11.355  17.877  0.00  0.00    +0.000 A 
ATOM     30  C   UNL     1      -1.074  12.526  18.254  0.00  0.00    +0.000 A 
ENDBRANCH   3  25
BRANCH   9  31
ATOM     31  C   UNL     1      -0.245  17.803  17.804  0.00  0.00    +0.000 C 
ATOM     32  C   UNL     1      -1.279  18.558  18.636  0.00  0.00    +0.000 C 
ATOM     33  C   UNL     1       0.230  18.627  16.608  0.00  0.00    +0.000 C 
ENDBRANCH   9  31
TORSDOF 4
ENDMDL
MODEL 6
REMARK VINA RESULT:      -7.5      1.297      2.091
REMARK  Name = 
REMARK  7 active torsions:
REMARK  status: ('A' for Active; 'I' for Inactive)
REMARK    1  A    between atoms: C_1  and  C_2
REMARK    2  A    between atoms: C_7  and  N_8
REMARK    3  A    between atoms: C_12  and  C_14
REMARK    4  A    between atoms: C_16  and  C_17
REMARK    5  A    between atoms: N_28  and  C_29
REMARK    6  A    between atoms: C_29  and  C_30
REMARK    7  A    between atoms: C_29  and  C_31
REMARK                            x       y       z     vdW  Elec       q    Type
REMARK                         _______ _______ _______ _____ _____    ______ ____
ROOT
ATOM      1  C   UNL     1       0.101  10.544  20.047  0.00  0.00    +0.000 A 
ATOM      2  C   UNL     1      -1.033  10.402  19.247  0.00  0.00    +0.000 A 
ATOM      3  C   UNL     1      -1.431  11.419  18.378  0.00  0.00    +0.000 A 
ATOM      4  N   UNL     1      -0.830  12.635  18.350  0.00  0.00    +0.000 NA
ATOM      5  C   UNL     1       0.163  12.794  19.252  0.00  0.00    +0.000 A 
ATOM      6  C   UNL     1       0.671  11.825  20.106  0.00  0.00    +0.000 A 
ATOM      7  C   UNL     1       1.688  12.487  20.824  0.00  0.00    +0.000 A 
ATOM      8  N   UNL     1       1.828  13.767  20.468  0.00  0.00    +0.000 NA
ATOM      9  N   UNL     1       0.886  13.937  19.509  0.00  0.00    +0.000 N 
ENDROOT
BRANCH   1  14
ATOM     10  N   UNL     1       2.260   6.059  18.992  0.00  0.00    +0.000 N 
ATOM     11  C   UNL     1       1.833   6.013  20.403  0.00  0.00    +0.000 C 
ATOM     12  C   UNL     1       2.009   7.387  21.099  0.00  0.00    +0.000 C 
ATOM     13  N   UNL     1       1.522   8.505  20.283  0.00  0.00    +0.000 N 
ATOM     14  C   UNL     1       0.648   9.430  20.850  0.00  0.00    +0.000 C 
ATOM     15  O   UNL     1       0.308   9.377  22.034  0.00  0.00    +0.000 OA
ATOM     16  C   UNL     1       2.109   8.497  18.928  0.00  0.00    +0.000 C 
ATOM     17  C   UNL     1       1.718   7.190  18.217  0.00  0.00    +0.000 C 
BRANCH  10  24
ATOM     18  C   UNL     1       5.059   6.344  17.824  0.00  0.00    +0.000 C 
ATOM     19  C   UNL     1       4.189   5.117  17.742  0.00  0.00    +0.000 A 
ATOM     20  C   UNL     1       4.729   4.005  17.058  0.00  0.00    +0.000 A 
ATOM     21  C   UNL     1       4.049   2.794  16.983  0.00  0.00    +0.000 A 
ATOM     22  C   UNL     1       2.810   2.675  17.585  0.00  0.00    +0.000 A 
ATOM     23  C   UNL     1       2.255   3.776  18.243  0.00  0.00    +0.000 A 
ATOM     24  C   UNL     1       2.912   5.025  18.339  0.00  0.00    +0.000 A 
ENDBRANCH  10  24
ENDBRANCH   1  14
BRANCH   3  25
ATOM     25  C   UNL     1      -2.514  11.197  17.385  0.00  0.00    +0.000 A 
ATOM     26  C   UNL     1      -3.853  11.565  17.637  0.00  0.00    +0.000 A 
ATOM     27  C   UNL     1      -4.867  11.347  16.700  0.00  0.00    +0.000 A 
ATOM     28  C   UNL     1      -4.569  10.756  15.478  0.00  0.00    +0.000 A 
ATOM     29  C   UNL     1      -3.261  10.366  15.205  0.00  0.00    +0.000 A 
ATOM     30  C   UNL     1      -2.249  10.581  16.149  0.00  0.00    +0.000 A 
ENDBRANCH   3  25
BRANCH   9  31
ATOM     31  C   UNL     1       0.750  15.246  18.882  0.00  0.00    +0.000 C 
ATOM     32  C   UNL     1      -0.407  16.049  19.473  0.00  0.00    +0.000 C 
ATOM     33  C   UNL     1       2.055  16.040  18.895  0.00  0.00    +0.000 C 
ENDBRANCH   9  31
TORSDOF 4
ENDMDL
MODEL 7
REMARK VINA RESULT:      -7.5      1.385      1.688
REMARK  Name = 
REMARK  7 active torsions:
REMARK  status: ('A' for Active; 'I' for Inactive)
REMARK    1  A    between atoms: C_1  and  C_2
REMARK    2  A    between atoms: C_7  and  N_8
REMARK    3  A    between atoms: C_12  and  C_14
REMARK    4  A    between atoms: C_16  and  C_17
REMARK    5  A    between atoms: N_28  and  C_29
REMARK    6  A    between atoms: C_29  and  C_30
REMARK    7  A    between atoms: C_29  and  C_31
REMARK                            x       y       z     vdW  Elec       q    Type
REMARK                         _______ _______ _______ _____ _____    ______ ____
ROOT
ATOM      1  C   UNL     1       0.191  10.378  19.984  0.00  0.00    +0.000 A 
ATOM      2  C   UNL     1      -0.909  10.214  19.140  0.00  0.00    +0.000 A 
ATOM      3  C   UNL     1      -1.291  11.222  18.255  0.00  0.00    +0.000 A 
ATOM      4  N   UNL     1      -0.713  12.449  18.248  0.00  0.00    +0.000 NA
ATOM      5  C   UNL     1       0.240  12.628  19.188  0.00  0.00    +0.000 A 
ATOM      6  C   UNL     1       0.733  11.670  20.063  0.00  0.00    +0.000 A 
ATOM      7  C   UNL     1       1.709  12.352  20.819  0.00  0.00    +0.000 A 
ATOM      8  N   UNL     1       1.837  13.635  20.467  0.00  0.00    +0.000 NA
ATOM      9  N   UNL     1       0.931  13.785  19.471  0.00  0.00    +0.000 N 
ENDROOT
BRANCH   1  14
ATOM     10  N   UNL     1       2.233   5.817  19.024  0.00  0.00    +0.000 N 
ATOM     11  C   UNL     1       1.829   5.822  20.443  0.00  0.00    +0.000 C 
ATOM     12  C   UNL     1       2.047   7.210  21.095  0.00  0.00    +0.000 C 
ATOM     13  N   UNL     1       1.571   8.315  20.255  0.00  0.00    +0.000 N 
ATOM     14  C   UNL     1       0.727   9.276  20.810  0.00  0.00    +0.000 C 
ATOM     15  O   UNL     1       0.406   9.264  22.001  0.00  0.00    +0.000 OA
ATOM     16  C   UNL     1       2.134   8.256  18.892  0.00  0.00    +0.000 C 
ATOM     17  C   UNL     1       1.702   6.938  18.226  0.00  0.00    +0.000 C 
BRANCH  10  24
ATOM     18  C   UNL     1       1.003   3.035  18.893  0.00  0.00    +0.000 C 
ATOM     19  C   UNL     1       2.345   3.433  18.340  0.00  0.00    +0.000 A 
ATOM     20  C   UNL     1       3.094   2.415  17.706  0.00  0.00    +0.000 A 
ATOM     21  C   UNL     1       4.313   2.681  17.091  0.00  0.00    +0.000 A 
ATOM     22  C   UNL     1       4.811   3.971  17.107  0.00  0.00    +0.000 A 
ATOM     23  C   UNL     1       4.092   4.981  17.752  0.00  0.00    +0.000 A 
ATOM     24  C   UNL     1       2.851   4.751  18.391  0.00  0.00    +0.000 A 
ENDBRANCH  10  24
ENDBRANCH   1  14
BRANCH   3  25
ATOM     25  C   UNL     1      -2.330  10.978  17.220  0.00  0.00    +0.000 A 
ATOM     26  C   UNL     1      -2.066  10.233  16.050  0.00  0.00    +0.000 A 
ATOM     27  C   UNL     1      -3.047  10.014  15.079  0.00  0.00    +0.000 A 
ATOM     28  C   UNL     1      -4.324  10.532  15.251  0.00  0.00    +0.000 A 
ATOM     29  C   UNL     1      -4.613  11.286  16.385  0.00  0.00    +0.000 A 
ATOM     30  C   UNL     1      -3.625  11.508  17.354  0.00  0.00    +0.000 A 
ENDBRANCH   3  25
BRANCH   9  31
ATOM     31  C   UNL     1       0.794  15.091  18.837  0.00  0.00    +0.000 C 
ATOM     32  C   UNL     1      -0.316  15.925  19.472  0.00  0.00    +0.000 C 
ATOM     33  C   UNL     1       2.116  15.856  18.781  0.00  0.00    +0.000 C 
ENDBRANCH   9  31
TORSDOF 4
ENDMDL
MODEL 8
REMARK VINA RESULT:      -7.4      1.657      4.522
REMARK  Name = 
REMARK  7 active torsions:
REMARK  status: ('A' for Active; 'I' for Inactive)
REMARK    1  A    between atoms: C_1  and  C_2
REMARK    2  A    between atoms: C_7  and  N_8
REMARK    3  A    between atoms: C_12  and  C_14
REMARK    4  A    between atoms: C_16  and  C_17
REMARK    5  A    between atoms: N_28  and  C_29
REMARK    6  A    between atoms: C_29  and  C_30
REMARK    7  A    between atoms: C_29  and  C_31
REMARK                            x       y       z     vdW  Elec       q    Type
REMARK                         _______ _______ _______ _____ _____    ______ ____
ROOT
ATOM      1  C   UNL     1       0.083  10.717  19.539  0.00  0.00    +0.000 A 
ATOM      2  C   UNL     1       0.649  11.985  19.396  0.00  0.00    +0.000 A 
ATOM      3  C   UNL     1      -0.002  12.984  18.672  0.00  0.00    +0.000 A 
ATOM      4  N   UNL     1      -1.139  12.756  17.968  0.00  0.00    +0.000 NA
ATOM      5  C   UNL     1      -1.573  11.477  17.997  0.00  0.00    +0.000 A 
ATOM      6  C   UNL     1      -1.034  10.434  18.739  0.00  0.00    +0.000 A 
ATOM      7  C   UNL     1      -1.848   9.326  18.430  0.00  0.00    +0.000 A 
ATOM      8  N   UNL     1      -2.826   9.621  17.568  0.00  0.00    +0.000 NA
ATOM      9  N   UNL     1      -2.640  10.940  17.314  0.00  0.00    +0.000 N 
ENDROOT
BRANCH   1  14
ATOM     10  N   UNL     1       2.202   6.137  18.884  0.00  0.00    +0.000 N 
ATOM     11  C   UNL     1       1.824   6.240  20.305  0.00  0.00    +0.000 C 
ATOM     12  C   UNL     1       2.024   7.678  20.848  0.00  0.00    +0.000 C 
ATOM     13  N   UNL     1       1.510   8.707  19.937  0.00  0.00    +0.000 N 
ATOM     14  C   UNL     1       0.657   9.691  20.434  0.00  0.00    +0.000 C 
ATOM     15  O   UNL     1       0.358   9.762  21.629  0.00  0.00    +0.000 OA
ATOM     16  C   UNL     1       2.050   8.556  18.571  0.00  0.00    +0.000 C 
ATOM     17  C   UNL     1       1.634   7.184  18.014  0.00  0.00    +0.000 C 
BRANCH  10  24
ATOM     18  C   UNL     1       5.077   6.210  17.880  0.00  0.00    +0.000 C 
ATOM     19  C   UNL     1       4.144   5.031  17.799  0.00  0.00    +0.000 A 
ATOM     20  C   UNL     1       4.658   3.859  17.201  0.00  0.00    +0.000 A 
ATOM     21  C   UNL     1       3.915   2.684  17.139  0.00  0.00    +0.000 A 
ATOM     22  C   UNL     1       2.638   2.664  17.668  0.00  0.00    +0.000 A 
ATOM     23  C   UNL     1       2.109   3.824  18.240  0.00  0.00    +0.000 A 
ATOM     24  C   UNL     1       2.831   5.038  18.320  0.00  0.00    +0.000 A 
ENDBRANCH  10  24
ENDBRANCH   1  14
BRANCH   3  25
ATOM     25  C   UNL     1       0.496  14.384  18.683  0.00  0.00    +0.000 A 
ATOM     26  C   UNL     1      -0.378  15.492  18.728  0.00  0.00    +0.000 A 
ATOM     27  C   UNL     1       0.099  16.807  18.731  0.00  0.00    +0.000 A 
ATOM     28  C   UNL     1       1.465  17.051  18.693  0.00  0.00    +0.000 A 
ATOM     29  C   UNL     1       2.353  15.981  18.632  0.00  0.00    +0.000 A 
ATOM     30  C   UNL     1       1.872  14.666  18.622  0.00  0.00    +0.000 A 
ENDBRANCH   3  25
BRANCH   9  31
ATOM     31  C   UNL     1      -3.548  11.611  16.391  0.00  0.00    +0.000 C 
ATOM     32  C   UNL     1      -3.629  10.898  15.043  0.00  0.00    +0.000 C 
ATOM     33  C   UNL     1      -4.932  11.841  16.995  0.00  0.00    +0.000 C 
ENDBRANCH   9  31
TORSDOF 4
ENDMDL
MODEL 9
REMARK VINA RESULT:      -7.4      1.611      4.314
REMARK  Name = 
REMARK  7 active torsions:
REMARK  status: ('A' for Active; 'I' for Inactive)
REMARK    1  A    between atoms: C_1  and  C_2
REMARK    2  A    between atoms: C_7  and  N_8
REMARK    3  A    between atoms: C_12  and  C_14
REMARK    4  A    between atoms: C_16  and  C_17
REMARK    5  A    between atoms: N_28  and  C_29
REMARK    6  A    between atoms: C_29  and  C_30
REMARK    7  A    between atoms: C_29  and  C_31
REMARK                            x       y       z     vdW  Elec       q    Type
REMARK                         _______ _______ _______ _____ _____    ______ ____
ROOT
ATOM      1  C   UNL     1      -0.163  10.654  19.569  0.00  0.00    +0.000 A 
ATOM      2  C   UNL     1       0.423  11.915  19.443  0.00  0.00    +0.000 A 
ATOM      3  C   UNL     1      -0.206  12.930  18.722  0.00  0.00    +0.000 A 
ATOM      4  N   UNL     1      -1.338  12.726  18.004  0.00  0.00    +0.000 NA
ATOM      5  C   UNL     1      -1.792  11.453  18.017  0.00  0.00    +0.000 A 
ATOM      6  C   UNL     1      -1.276  10.396  18.754  0.00  0.00    +0.000 A 
ATOM      7  C   UNL     1      -2.103   9.302  18.427  0.00  0.00    +0.000 A 
ATOM      8  N   UNL     1      -3.067   9.620  17.558  0.00  0.00    +0.000 NA
ATOM      9  N   UNL     1      -2.859  10.937  17.318  0.00  0.00    +0.000 N 
ENDROOT
BRANCH   1  14
ATOM     10  N   UNL     1       2.577   6.418  18.902  0.00  0.00    +0.000 N 
ATOM     11  C   UNL     1       1.974   6.338  20.246  0.00  0.00    +0.000 C 
ATOM     12  C   UNL     1       1.910   7.727  20.928  0.00  0.00    +0.000 C 
ATOM     13  N   UNL     1       1.421   8.781  20.032  0.00  0.00    +0.000 N 
ATOM     14  C   UNL     1       0.387   9.612  20.460  0.00  0.00    +0.000 C 
ATOM     15  O   UNL     1      -0.099   9.531  21.590  0.00  0.00    +0.000 OA
ATOM     16  C   UNL     1       2.180   8.826  18.767  0.00  0.00    +0.000 C 
ATOM     17  C   UNL     1       2.027   7.479  18.038  0.00  0.00    +0.000 C 
BRANCH  10  24
ATOM     18  C   UNL     1       1.543   3.847  17.641  0.00  0.00    +0.000 C 
ATOM     19  C   UNL     1       2.990   4.228  17.807  0.00  0.00    +0.000 A 
ATOM     20  C   UNL     1       3.946   3.301  17.333  0.00  0.00    +0.000 A 
ATOM     21  C   UNL     1       5.309   3.578  17.364  0.00  0.00    +0.000 A 
ATOM     22  C   UNL     1       5.742   4.786  17.879  0.00  0.00    +0.000 A 
ATOM     23  C   UNL     1       4.808   5.700  18.374  0.00  0.00    +0.000 A 
ATOM     24  C   UNL     1       3.415   5.455  18.363  0.00  0.00    +0.000 A 
ENDBRANCH  10  24
ENDBRANCH   1  14
BRANCH   3  25
ATOM     25  C   UNL     1       0.312  14.323  18.751  0.00  0.00    +0.000 A 
ATOM     26  C   UNL     1      -0.545  15.443  18.825  0.00  0.00    +0.000 A 
ATOM     27  C   UNL     1      -0.049  16.750  18.845  0.00  0.00    +0.000 A 
ATOM     28  C   UNL     1       1.320  16.975  18.795  0.00  0.00    +0.000 A 
ATOM     29  C   UNL     1       2.192  15.894  18.704  0.00  0.00    +0.000 A 
ATOM     30  C   UNL     1       1.692  14.586  18.678  0.00  0.00    +0.000 A 
ENDBRANCH   3  25
BRANCH   9  31
ATOM     31  C   UNL     1      -3.748  11.631  16.393  0.00  0.00    +0.000 C 
ATOM     32  C   UNL     1      -3.868  10.902  15.056  0.00  0.00    +0.000 C 
ATOM     33  C   UNL     1      -5.117  11.924  17.004  0.00  0.00    +0.000 C 
ENDBRANCH   9  31
TORSDOF 4
ENDMDL
