MODEL 1
REMARK VINA RESULT:      -4.3      0.000      0.000
REMARK  Name = 
REMARK  11 active torsions:
REMARK  status: ('A' for Active; 'I' for Inactive)
REMARK    1  A    between atoms: C_1  and  N_2
REMARK    2  A    between atoms: N_2  and  C_3
REMARK    3  A    between atoms: N_2  and  C_4
REMARK    4  A    between atoms: C_4  and  C_5
REMARK    5  A    between atoms: C_5  and  C_6
REMARK    6  A    between atoms: C_6  and  C_7
REMARK    7  A    between atoms: C_7  and  C_8
REMARK    8  A    between atoms: C_8  and  C_9
REMARK    9  A    between atoms: C_9  and  N_10
REMARK   10  A    between atoms: N_10  and  C_11
REMARK   11  A    between atoms: N_10  and  C_12
REMARK                            x       y       z     vdW  Elec       q    Type
REMARK                         _______ _______ _______ _____ _____    ______ ____
ROOT
ATOM      1  C   UNL     1       3.992   6.589  17.675  0.00  0.00    +0.000 C 
ENDROOT
BRANCH   1   2
ATOM      2  C   UNL     1       5.162   6.292  16.735  0.00  0.00    +0.000 C 
BRANCH   2   3
ATOM      3  C   UNL     1       6.497   6.937  17.134  0.00  0.00    +0.000 C 
BRANCH   3   5
ATOM      4  C   UNL     1       7.667   5.814  18.966  0.00  0.00    +0.000 C 
ATOM      5  N   UNL     1       7.515   5.938  17.516  0.00  0.00    +0.000 NA
ATOM      6  C   UNL     1       7.192   4.630  16.942  0.00  0.00    +0.000 C 
ENDBRANCH   3   5
ENDBRANCH   2   3
ENDBRANCH   1   2
BRANCH   1   7
ATOM      7  C   UNL     1       3.566   5.408  18.543  0.00  0.00    +0.000 C 
BRANCH   7   8
ATOM      8  C   UNL     1       2.335   4.701  17.974  0.00  0.00    +0.000 C 
BRANCH   8   9
ATOM      9  C   UNL     1       2.712   3.460  17.167  0.00  0.00    +0.000 C 
BRANCH   9  10
ATOM     10  N   UNL     1       2.320   2.218  17.854  0.00  0.00    +0.000 NA
ATOM     11  C   UNL     1       3.446   1.593  18.555  0.00  0.00    +0.000 C 
ATOM     12  C   UNL     1       1.234   2.486  18.795  0.00  0.00    +0.000 C 
ENDBRANCH   9  10
ENDBRANCH   8   9
ENDBRANCH   7   8
ENDBRANCH   1   7
TORSDOF 7
ENDMDL
MODEL 2
REMARK VINA RESULT:      -4.3      1.874      5.544
REMARK  Name = 
REMARK  11 active torsions:
REMARK  status: ('A' for Active; 'I' for Inactive)
REMARK    1  A    between atoms: C_1  and  N_2
REMARK    2  A    between atoms: N_2  and  C_3
REMARK    3  A    between atoms: N_2  and  C_4
REMARK    4  A    between atoms: C_4  and  C_5
REMARK    5  A    between atoms: C_5  and  C_6
REMARK    6  A    between atoms: C_6  and  C_7
REMARK    7  A    between atoms: C_7  and  C_8
REMARK    8  A    between atoms: C_8  and  C_9
REMARK    9  A    between atoms: C_9  and  N_10
REMARK   10  A    between atoms: N_10  and  C_11
REMARK   11  A    between atoms: N_10  and  C_12
REMARK                            x       y       z     vdW  Elec       q    Type
REMARK                         _______ _______ _______ _____ _____    ______ ____
ROOT
ATOM      1  C   UNL     1       3.088   2.885  17.633  0.00  0.00    +0.000 C 
ENDROOT
BRANCH   1   2
ATOM      2  C   UNL     1       1.817   3.681  17.933  0.00  0.00    +0.000 C 
BRANCH   2   3
ATOM      3  C   UNL     1       1.120   3.321  19.252  0.00  0.00    +0.000 C 
BRANCH   3   5
ATOM      4  C   UNL     1       2.091   4.899  20.850  0.00  0.00    +0.000 C 
ATOM      5  N   UNL     1       2.000   3.502  20.424  0.00  0.00    +0.000 NA
ATOM      6  C   UNL     1       1.542   2.676  21.543  0.00  0.00    +0.000 C 
ENDBRANCH   3   5
ENDBRANCH   2   3
ENDBRANCH   1   2
BRANCH   1   7
ATOM      7  C   UNL     1       4.374   3.706  17.689  0.00  0.00    +0.000 C 
BRANCH   7   8
ATOM      8  C   UNL     1       4.774   4.230  16.309  0.00  0.00    +0.000 C 
BRANCH   8   9
ATOM      9  C   UNL     1       5.047   5.733  16.326  0.00  0.00    +0.000 C 
BRANCH   9  10
ATOM     10  N   UNL     1       6.444   6.040  15.977  0.00  0.00    +0.000 NA
ATOM     11  C   UNL     1       7.246   6.392  17.153  0.00  0.00    +0.000 C 
ATOM     12  C   UNL     1       7.050   4.906  15.281  0.00  0.00    +0.000 C 
ENDBRANCH   9  10
ENDBRANCH   8   9
ENDBRANCH   7   8
ENDBRANCH   1   7
TORSDOF 7
ENDMDL
MODEL 3
REMARK VINA RESULT:      -4.3      1.796      5.612
REMARK  Name = 
REMARK  11 active torsions:
REMARK  status: ('A' for Active; 'I' for Inactive)
REMARK    1  A    between atoms: C_1  and  N_2
REMARK    2  A    between atoms: N_2  and  C_3
REMARK    3  A    between atoms: N_2  and  C_4
REMARK    4  A    between atoms: C_4  and  C_5
REMARK    5  A    between atoms: C_5  and  C_6
REMARK    6  A    between atoms: C_6  and  C_7
REMARK    7  A    between atoms: C_7  and  C_8
REMARK    8  A    between atoms: C_8  and  C_9
REMARK    9  A    between atoms: C_9  and  N_10
REMARK   10  A    between atoms: N_10  and  C_11
REMARK   11  A    between atoms: N_10  and  C_12
REMARK                            x       y       z     vdW  Elec       q    Type
REMARK                         _______ _______ _______ _____ _____    ______ ____
ROOT
ATOM      1  C   UNL     1       2.723   3.478  17.270  0.00  0.00    +0.000 C 
ENDROOT
BRANCH   1   2
ATOM      2  C   UNL     1       1.434   3.831  18.016  0.00  0.00    +0.000 C 
BRANCH   2   3
ATOM      3  C   UNL     1       1.150   2.980  19.262  0.00  0.00    +0.000 C 
BRANCH   3   5
ATOM      4  C   UNL     1       1.818   4.862  20.677  0.00  0.00    +0.000 C 
ATOM      5  N   UNL     1       1.928   3.422  20.437  0.00  0.00    +0.000 NA
ATOM      6  C   UNL     1       1.508   2.691  21.635  0.00  0.00    +0.000 C 
ENDBRANCH   3   5
ENDBRANCH   2   3
ENDBRANCH   1   2
BRANCH   1   7
ATOM      7  C   UNL     1       3.836   4.513  17.411  0.00  0.00    +0.000 C 
BRANCH   7   8
ATOM      8  C   UNL     1       5.133   4.045  16.748  0.00  0.00    +0.000 C 
BRANCH   8   9
ATOM      9  C   UNL     1       6.364   4.444  17.558  0.00  0.00    +0.000 C 
BRANCH   9  10
ATOM     10  N   UNL     1       7.341   5.186  16.743  0.00  0.00    +0.000 NA
ATOM     11  C   UNL     1       7.129   4.987  15.307  0.00  0.00    +0.000 C 
ATOM     12  C   UNL     1       7.283   6.612  17.063  0.00  0.00    +0.000 C 
ENDBRANCH   9  10
ENDBRANCH   8   9
ENDBRANCH   7   8
ENDBRANCH   1   7
TORSDOF 7
ENDMDL
MODEL 4
REMARK VINA RESULT:      -4.3      1.829      2.826
REMARK  Name = 
REMARK  11 active torsions:
REMARK  status: ('A' for Active; 'I' for Inactive)
REMARK    1  A    between atoms: C_1  and  N_2
REMARK    2  A    between atoms: N_2  and  C_3
REMARK    3  A    between atoms: N_2  and  C_4
REMARK    4  A    between atoms: C_4  and  C_5
REMARK    5  A    between atoms: C_5  and  C_6
REMARK    6  A    between atoms: C_6  and  C_7
REMARK    7  A    between atoms: C_7  and  C_8
REMARK    8  A    between atoms: C_8  and  C_9
REMARK    9  A    between atoms: C_9  and  N_10
REMARK   10  A    between atoms: N_10  and  C_11
REMARK   11  A    between atoms: N_10  and  C_12
REMARK                            x       y       z     vdW  Elec       q    Type
REMARK                         _______ _______ _______ _____ _____    ______ ____
ROOT
ATOM      1  C   UNL     1       3.904   3.230  17.831  0.00  0.00    +0.000 C 
ENDROOT
BRANCH   1   2
ATOM      2  C   UNL     1       4.443   4.659  17.916  0.00  0.00    +0.000 C 
BRANCH   2   3
ATOM      3  C   UNL     1       5.969   4.786  17.816  0.00  0.00    +0.000 C 
BRANCH   3   5
ATOM      4  C   UNL     1       6.928   4.604  15.571  0.00  0.00    +0.000 C 
ATOM      5  N   UNL     1       6.398   5.503  16.598  0.00  0.00    +0.000 NA
ATOM      6  C   UNL     1       5.289   6.282  16.044  0.00  0.00    +0.000 C 
ENDBRANCH   3   5
ENDBRANCH   2   3
ENDBRANCH   1   2
BRANCH   1   7
ATOM      7  C   UNL     1       2.461   3.129  17.344  0.00  0.00    +0.000 C 
BRANCH   7   8
ATOM      8  C   UNL     1       1.502   3.909  18.246  0.00  0.00    +0.000 C 
BRANCH   8   9
ATOM      9  C   UNL     1       0.950   3.043  19.376  0.00  0.00    +0.000 C 
BRANCH   9  10
ATOM     10  N   UNL     1       1.127   3.679  20.692  0.00  0.00    +0.000 NA
ATOM     11  C   UNL     1       1.989   2.892  21.578  0.00  0.00    +0.000 C 
ATOM     12  C   UNL     1       1.675   5.025  20.529  0.00  0.00    +0.000 C 
ENDBRANCH   9  10
ENDBRANCH   8   9
ENDBRANCH   7   8
ENDBRANCH   1   7
TORSDOF 7
ENDMDL
MODEL 5
REMARK VINA RESULT:      -4.3      1.582      5.225
REMARK  Name = 
REMARK  11 active torsions:
REMARK  status: ('A' for Active; 'I' for Inactive)
REMARK    1  A    between atoms: C_1  and  N_2
REMARK    2  A    between atoms: N_2  and  C_3
REMARK    3  A    between atoms: N_2  and  C_4
REMARK    4  A    between atoms: C_4  and  C_5
REMARK    5  A    between atoms: C_5  and  C_6
REMARK    6  A    between atoms: C_6  and  C_7
REMARK    7  A    between atoms: C_7  and  C_8
REMARK    8  A    between atoms: C_8  and  C_9
REMARK    9  A    between atoms: C_9  and  N_10
REMARK   10  A    between atoms: N_10  and  C_11
REMARK   11  A    between atoms: N_10  and  C_12
REMARK                            x       y       z     vdW  Elec       q    Type
REMARK                         _______ _______ _______ _____ _____    ______ ____
ROOT
ATOM      1  C   UNL     1       3.733   4.521  17.453  0.00  0.00    +0.000 C 
ENDROOT
BRANCH   1   2
ATOM      2  C   UNL     1       2.261   4.105  17.498  0.00  0.00    +0.000 C 
BRANCH   2   3
ATOM      3  C   UNL     1       1.853   3.292  18.734  0.00  0.00    +0.000 C 
BRANCH   3   5
ATOM      4  C   UNL     1       1.419   4.876  20.549  0.00  0.00    +0.000 C 
ATOM      5  N   UNL     1       2.346   3.890  19.991  0.00  0.00    +0.000 NA
ATOM      6  C   UNL     1       2.611   2.848  20.986  0.00  0.00    +0.000 C 
ENDBRANCH   3   5
ENDBRANCH   2   3
ENDBRANCH   1   2
BRANCH   1   7
ATOM      7  C   UNL     1       3.962   6.030  17.478  0.00  0.00    +0.000 C 
BRANCH   7   8
ATOM      8  C   UNL     1       5.012   6.462  16.453  0.00  0.00    +0.000 C 
BRANCH   8   9
ATOM      9  C   UNL     1       6.390   6.641  17.088  0.00  0.00    +0.000 C 
BRANCH   9  10
ATOM     10  N   UNL     1       7.340   5.612  16.636  0.00  0.00    +0.000 NA
ATOM     11  C   UNL     1       7.621   4.620  17.677  0.00  0.00    +0.000 C 
ATOM     12  C   UNL     1       6.829   4.947  15.438  0.00  0.00    +0.000 C 
ENDBRANCH   9  10
ENDBRANCH   8   9
ENDBRANCH   7   8
ENDBRANCH   1   7
TORSDOF 7
ENDMDL
MODEL 6
REMARK VINA RESULT:      -4.3      1.170      4.931
REMARK  Name = 
REMARK  11 active torsions:
REMARK  status: ('A' for Active; 'I' for Inactive)
REMARK    1  A    between atoms: C_1  and  N_2
REMARK    2  A    between atoms: N_2  and  C_3
REMARK    3  A    between atoms: N_2  and  C_4
REMARK    4  A    between atoms: C_4  and  C_5
REMARK    5  A    between atoms: C_5  and  C_6
REMARK    6  A    between atoms: C_6  and  C_7
REMARK    7  A    between atoms: C_7  and  C_8
REMARK    8  A    between atoms: C_8  and  C_9
REMARK    9  A    between atoms: C_9  and  N_10
REMARK   10  A    between atoms: N_10  and  C_11
REMARK   11  A    between atoms: N_10  and  C_12
REMARK                            x       y       z     vdW  Elec       q    Type
REMARK                         _______ _______ _______ _____ _____    ______ ____
ROOT
ATOM      1  C   UNL     1       3.560   5.652  18.661  0.00  0.00    +0.000 C 
ENDROOT
BRANCH   1   2
ATOM      2  C   UNL     1       2.301   4.836  18.360  0.00  0.00    +0.000 C 
BRANCH   2   3
ATOM      3  C   UNL     1       2.467   3.759  17.280  0.00  0.00    +0.000 C 
BRANCH   3   5
ATOM      4  C   UNL     1       3.233   1.719  18.394  0.00  0.00    +0.000 C 
ATOM      5  N   UNL     1       2.107   2.412  17.765  0.00  0.00    +0.000 NA
ATOM      6  C   UNL     1       0.989   2.487  18.707  0.00  0.00    +0.000 C 
ENDBRANCH   3   5
ENDBRANCH   2   3
ENDBRANCH   1   2
BRANCH   1   7
ATOM      7  C   UNL     1       3.857   6.751  17.644  0.00  0.00    +0.000 C 
BRANCH   7   8
ATOM      8  C   UNL     1       5.273   6.634  17.078  0.00  0.00    +0.000 C 
BRANCH   8   9
ATOM      9  C   UNL     1       5.294   5.897  15.740  0.00  0.00    +0.000 C 
BRANCH   9  10
ATOM     10  N   UNL     1       5.913   4.566  15.856  0.00  0.00    +0.000 NA
ATOM     11  C   UNL     1       6.333   4.035  14.556  0.00  0.00    +0.000 C 
ATOM     12  C   UNL     1       7.056   4.621  16.765  0.00  0.00    +0.000 C 
ENDBRANCH   9  10
ENDBRANCH   8   9
ENDBRANCH   7   8
ENDBRANCH   1   7
TORSDOF 7
ENDMDL
MODEL 7
REMARK VINA RESULT:      -4.2      1.665      2.360
REMARK  Name = 
REMARK  11 active torsions:
REMARK  status: ('A' for Active; 'I' for Inactive)
REMARK    1  A    between atoms: C_1  and  N_2
REMARK    2  A    between atoms: N_2  and  C_3
REMARK    3  A    between atoms: N_2  and  C_4
REMARK    4  A    between atoms: C_4  and  C_5
REMARK    5  A    between atoms: C_5  and  C_6
REMARK    6  A    between atoms: C_6  and  C_7
REMARK    7  A    between atoms: C_7  and  C_8
REMARK    8  A    between atoms: C_8  and  C_9
REMARK    9  A    between atoms: C_9  and  N_10
REMARK   10  A    between atoms: N_10  and  C_11
REMARK   11  A    between atoms: N_10  and  C_12
REMARK                            x       y       z     vdW  Elec       q    Type
REMARK                         _______ _______ _______ _____ _____    ______ ____
ROOT
ATOM      1  C   UNL     1       3.890   4.112  16.939  0.00  0.00    +0.000 C 
ENDROOT
BRANCH   1   2
ATOM      2  C   UNL     1       5.220   4.287  16.202  0.00  0.00    +0.000 C 
BRANCH   2   3
ATOM      3  C   UNL     1       5.740   5.729  16.133  0.00  0.00    +0.000 C 
BRANCH   3   5
ATOM      4  C   UNL     1       7.396   7.038  17.370  0.00  0.00    +0.000 C 
ATOM      5  N   UNL     1       7.148   5.843  16.563  0.00  0.00    +0.000 NA
ATOM      6  C   UNL     1       7.554   4.652  17.312  0.00  0.00    +0.000 C 
ENDBRANCH   3   5
ENDBRANCH   2   3
ENDBRANCH   1   2
BRANCH   1   7
ATOM      7  C   UNL     1       3.766   2.802  17.712  0.00  0.00    +0.000 C 
BRANCH   7   8
ATOM      8  C   UNL     1       2.304   2.429  17.966  0.00  0.00    +0.000 C 
BRANCH   8   9
ATOM      9  C   UNL     1       1.545   3.547  18.679  0.00  0.00    +0.000 C 
BRANCH   9  10
ATOM     10  N   UNL     1       2.033   3.751  20.053  0.00  0.00    +0.000 NA
ATOM     11  C   UNL     1       1.856   5.134  20.504  0.00  0.00    +0.000 C 
ATOM     12  C   UNL     1       1.352   2.837  20.969  0.00  0.00    +0.000 C 
ENDBRANCH   9  10
ENDBRANCH   8   9
ENDBRANCH   7   8
ENDBRANCH   1   7
TORSDOF 7
ENDMDL
MODEL 8
REMARK VINA RESULT:      -4.2      1.950      5.557
REMARK  Name = 
REMARK  11 active torsions:
REMARK  status: ('A' for Active; 'I' for Inactive)
REMARK    1  A    between atoms: C_1  and  N_2
REMARK    2  A    between atoms: N_2  and  C_3
REMARK    3  A    between atoms: N_2  and  C_4
REMARK    4  A    between atoms: C_4  and  C_5
REMARK    5  A    between atoms: C_5  and  C_6
REMARK    6  A    between atoms: C_6  and  C_7
REMARK    7  A    between atoms: C_7  and  C_8
REMARK    8  A    between atoms: C_8  and  C_9
REMARK    9  A    between atoms: C_9  and  N_10
REMARK   10  A    between atoms: N_10  and  C_11
REMARK   11  A    between atoms: N_10  and  C_12
REMARK                            x       y       z     vdW  Elec       q    Type
REMARK                         _______ _______ _______ _____ _____    ______ ____
ROOT
ATOM      1  C   UNL     1       4.460   3.674  18.808  0.00  0.00    +0.000 C 
ENDROOT
BRANCH   1   2
ATOM      2  C   UNL     1       3.831   2.448  19.473  0.00  0.00    +0.000 C 
BRANCH   2   3
ATOM      3  C   UNL     1       2.324   2.280  19.234  0.00  0.00    +0.000 C 
BRANCH   3   5
ATOM      4  C   UNL     1       2.283   2.686  21.647  0.00  0.00    +0.000 C 
ATOM      5  N   UNL     1       1.518   2.693  20.400  0.00  0.00    +0.000 NA
ATOM      6  C   UNL     1       0.945   4.023  20.183  0.00  0.00    +0.000 C 
ENDBRANCH   3   5
ENDBRANCH   2   3
ENDBRANCH   1   2
BRANCH   1   7
ATOM      7  C   UNL     1       3.741   4.144  17.546  0.00  0.00    +0.000 C 
BRANCH   7   8
ATOM      8  C   UNL     1       4.666   4.133  16.328  0.00  0.00    +0.000 C 
BRANCH   8   9
ATOM      9  C   UNL     1       5.243   5.516  16.036  0.00  0.00    +0.000 C 
BRANCH   9  10
ATOM     10  N   UNL     1       6.698   5.468  15.814  0.00  0.00    +0.000 NA
ATOM     11  C   UNL     1       7.395   4.723  16.867  0.00  0.00    +0.000 C 
ATOM     12  C   UNL     1       6.988   4.876  14.509  0.00  0.00    +0.000 C 
ENDBRANCH   9  10
ENDBRANCH   8   9
ENDBRANCH   7   8
ENDBRANCH   1   7
TORSDOF 7
ENDMDL
MODEL 9
REMARK VINA RESULT:      -4.2      1.621      1.981
REMARK  Name = 
REMARK  11 active torsions:
REMARK  status: ('A' for Active; 'I' for Inactive)
REMARK    1  A    between atoms: C_1  and  N_2
REMARK    2  A    between atoms: N_2  and  C_3
REMARK    3  A    between atoms: N_2  and  C_4
REMARK    4  A    between atoms: C_4  and  C_5
REMARK    5  A    between atoms: C_5  and  C_6
REMARK    6  A    between atoms: C_6  and  C_7
REMARK    7  A    between atoms: C_7  and  C_8
REMARK    8  A    between atoms: C_8  and  C_9
REMARK    9  A    between atoms: C_9  and  N_10
REMARK   10  A    between atoms: N_10  and  C_11
REMARK   11  A    between atoms: N_10  and  C_12
REMARK                            x       y       z     vdW  Elec       q    Type
REMARK                         _______ _______ _______ _____ _____    ______ ____
ROOT
ATOM      1  C   UNL     1       3.093   5.653  18.006  0.00  0.00    +0.000 C 
ENDROOT
BRANCH   1   2
ATOM      2  C   UNL     1       4.514   5.316  17.549  0.00  0.00    +0.000 C 
BRANCH   2   3
ATOM      3  C   UNL     1       4.987   6.061  16.293  0.00  0.00    +0.000 C 
BRANCH   3   5
ATOM      4  C   UNL     1       7.144   6.192  17.442  0.00  0.00    +0.000 C 
ATOM      5  N   UNL     1       6.457   6.060  16.156  0.00  0.00    +0.000 NA
ATOM      6  C   UNL     1       6.909   4.842  15.480  0.00  0.00    +0.000 C 
ENDBRANCH   3   5
ENDBRANCH   2   3
ENDBRANCH   1   2
BRANCH   1   7
ATOM      7  C   UNL     1       2.061   4.569  17.708  0.00  0.00    +0.000 C 
BRANCH   7   8
ATOM      8  C   UNL     1       1.401   4.047  18.985  0.00  0.00    +0.000 C 
BRANCH   8   9
ATOM      9  C   UNL     1       1.745   2.583  19.249  0.00  0.00    +0.000 C 
BRANCH   9  10
ATOM     10  N   UNL     1       2.563   2.421  20.462  0.00  0.00    +0.000 NA
ATOM     11  C   UNL     1       3.999   2.476  20.174  0.00  0.00    +0.000 C 
ATOM     12  C   UNL     1       2.211   3.445  21.445  0.00  0.00    +0.000 C 
ENDBRANCH   9  10
ENDBRANCH   8   9
ENDBRANCH   7   8
ENDBRANCH   1   7
TORSDOF 7
ENDMDL
