MODEL 1
REMARK VINA RESULT:      -9.4      0.000      0.000
REMARK  Name = 
REMARK  6 active torsions:
REMARK  status: ('A' for Active; 'I' for Inactive)
REMARK    1  A    between atoms: C_1  and  S_2
REMARK    2  A    between atoms: S_2  and  C_4
REMARK    3  A    between atoms: C_7  and  C_8
REMARK    4  A    between atoms: C_10  and  C_11
REMARK    5  A    between atoms: C_16  and  C_17
REMARK    6  A    between atoms: C_27  and  C_28
REMARK                            x       y       z     vdW  Elec       q    Type
REMARK                         _______ _______ _______ _____ _____    ______ ____
ROOT
ATOM      1  C   UNL     1       2.456   7.722  18.153  0.00  0.00    +0.000 A 
ATOM      2  N   UNL     1       1.640   8.591  17.593  0.00  0.00    +0.000 NA
ATOM      3  C   UNL     1       0.933   9.183  18.626  0.00  0.00    +0.000 A 
ATOM      4  C   UNL     1       1.287   8.614  19.846  0.00  0.00    +0.000 A 
ATOM      5  N   UNL     1       2.268   7.719  19.518  0.00  0.00    +0.000 N 
ATOM      6  H   UNL     1       2.807   7.164  20.166  0.00  0.00    +0.000 HD
ENDROOT
BRANCH   3   7
ATOM      7  C   UNL     1      -0.074  10.209  18.400  0.00  0.00    +0.000 A 
ATOM      8  C   UNL     1       0.098  11.534  18.852  0.00  0.00    +0.000 A 
ATOM      9  C   UNL     1      -1.002  12.357  19.060  0.00  0.00    +0.000 A 
ATOM     10  C   UNL     1      -2.266  11.949  18.615  0.00  0.00    +0.000 A 
ATOM     11  C   UNL     1      -3.487  12.500  19.008  0.00  0.00    +0.000 A 
ATOM     12  C   UNL     1      -4.656  11.949  18.478  0.00  0.00    +0.000 A 
ATOM     13  C   UNL     1      -4.538  11.463  17.186  0.00  0.00    +0.000 A 
ATOM     14  C   UNL     1      -3.429  10.678  16.953  0.00  0.00    +0.000 A 
ATOM     15  C   UNL     1      -2.312  10.827  17.773  0.00  0.00    +0.000 A 
ATOM     16  C   UNL     1      -1.275   9.897  17.778  0.00  0.00    +0.000 A 
BRANCH  12  17
ATOM     17  C   UNL     1      -5.722  11.315  19.319  0.00  0.00    +0.000 A 
ATOM     18  C   UNL     1      -6.341  10.107  18.951  0.00  0.00    +0.000 A 
ATOM     19  C   UNL     1      -7.393   9.572  19.702  0.00  0.00    +0.000 A 
ATOM     20  C   UNL     1      -7.881  10.251  20.815  0.00  0.00    +0.000 A 
ATOM     21  C   UNL     1      -7.380  11.505  21.124  0.00  0.00    +0.000 A 
ATOM     22  C   UNL     1      -6.324  12.027  20.380  0.00  0.00    +0.000 A 
ENDBRANCH  12  17
ENDBRANCH   3   7
BRANCH   1  26
ATOM     23  C   UNL     1       5.371   5.295  16.144  0.00  0.00    +0.000 A 
ATOM     24  C   UNL     1       4.570   4.761  17.158  0.00  0.00    +0.000 A 
ATOM     25  C   UNL     1       3.632   5.562  17.818  0.00  0.00    +0.000 A 
ATOM     26  C   UNL     1       3.477   6.912  17.478  0.00  0.00    +0.000 A 
ATOM     27  C   UNL     1       4.300   7.448  16.475  0.00  0.00    +0.000 A 
ATOM     28  C   UNL     1       5.237   6.649  15.814  0.00  0.00    +0.000 A 
BRANCH  23  30
ATOM     29  C   UNL     1       5.689   3.922  13.796  0.00  0.00    +0.000 C 
ATOM     30  S   UNL     1       6.610   4.270  15.315  0.00  0.00    +0.000 S 
ATOM     31  O   UNL     1       7.806   5.215  14.928  0.00  0.00    +0.000 OA
ENDBRANCH  23  30
ENDBRANCH   1  26
BRANCH   4  32
ATOM     32  C   UNL     1       0.853   8.855  21.232  0.00  0.00    +0.000 A 
ATOM     33  C   UNL     1      -0.471   9.205  21.529  0.00  0.00    +0.000 A 
ATOM     34  C   UNL     1      -0.767   9.688  22.793  0.00  0.00    +0.000 A 
ATOM     35  N   UNL     1       0.130   9.746  23.797  0.00  0.00    +0.000 NA
ATOM     36  C   UNL     1       1.375   9.310  23.518  0.00  0.00    +0.000 A 
ATOM     37  C   UNL     1       1.781   8.867  22.268  0.00  0.00    +0.000 A 
ENDBRANCH   4  32
TORSDOF 5
ENDMDL
MODEL 2
REMARK VINA RESULT:      -9.3      0.515      1.243
REMARK  Name = 
REMARK  6 active torsions:
REMARK  status: ('A' for Active; 'I' for Inactive)
REMARK    1  A    between atoms: C_1  and  S_2
REMARK    2  A    between atoms: S_2  and  C_4
REMARK    3  A    between atoms: C_7  and  C_8
REMARK    4  A    between atoms: C_10  and  C_11
REMARK    5  A    between atoms: C_16  and  C_17
REMARK    6  A    between atoms: C_27  and  C_28
REMARK                            x       y       z     vdW  Elec       q    Type
REMARK                         _______ _______ _______ _____ _____    ______ ____
ROOT
ATOM      1  C   UNL     1       2.389   7.620  18.308  0.00  0.00    +0.000 A 
ATOM      2  N   UNL     1       1.598   8.463  17.674  0.00  0.00    +0.000 NA
ATOM      3  C   UNL     1       0.872   9.124  18.651  0.00  0.00    +0.000 A 
ATOM      4  C   UNL     1       1.187   8.627  19.912  0.00  0.00    +0.000 A 
ATOM      5  N   UNL     1       2.165   7.702  19.664  0.00  0.00    +0.000 N 
ATOM      6  H   UNL     1       2.680   7.182  20.359  0.00  0.00    +0.000 HD
ENDROOT
BRANCH   3   7
ATOM      7  C   UNL     1      -0.116  10.145  18.336  0.00  0.00    +0.000 A 
ATOM      8  C   UNL     1       0.047  11.488  18.739  0.00  0.00    +0.000 A 
ATOM      9  C   UNL     1      -1.054  12.325  18.862  0.00  0.00    +0.000 A 
ATOM     10  C   UNL     1      -2.301  11.907  18.380  0.00  0.00    +0.000 A 
ATOM     11  C   UNL     1      -3.533  12.481  18.694  0.00  0.00    +0.000 A 
ATOM     12  C   UNL     1      -4.683  11.915  18.138  0.00  0.00    +0.000 A 
ATOM     13  C   UNL     1      -4.512  11.373  16.874  0.00  0.00    +0.000 A 
ATOM     14  C   UNL     1      -3.400  10.572  16.725  0.00  0.00    +0.000 A 
ATOM     15  C   UNL     1      -2.319  10.749  17.585  0.00  0.00    +0.000 A 
ATOM     16  C   UNL     1      -1.291   9.814  17.677  0.00  0.00    +0.000 A 
BRANCH  12  17
ATOM     17  C   UNL     1      -5.789  11.325  18.957  0.00  0.00    +0.000 A 
ATOM     18  C   UNL     1      -6.278  11.956  20.116  0.00  0.00    +0.000 A 
ATOM     19  C   UNL     1      -7.252  11.350  20.916  0.00  0.00    +0.000 A 
ATOM     20  C   UNL     1      -7.732  10.081  20.605  0.00  0.00    +0.000 A 
ATOM     21  C   UNL     1      -7.174   9.381  19.547  0.00  0.00    +0.000 A 
ATOM     22  C   UNL     1      -6.214   9.994  18.746  0.00  0.00    +0.000 A 
ENDBRANCH  12  17
ENDBRANCH   3   7
BRANCH   1  26
ATOM     23  C   UNL     1       5.463   5.157  16.603  0.00  0.00    +0.000 A 
ATOM     24  C   UNL     1       5.373   6.515  16.282  0.00  0.00    +0.000 A 
ATOM     25  C   UNL     1       4.359   7.308  16.832  0.00  0.00    +0.000 A 
ATOM     26  C   UNL     1       3.416   6.759  17.710  0.00  0.00    +0.000 A 
ATOM     27  C   UNL     1       3.498   5.391  18.011  0.00  0.00    +0.000 A 
ATOM     28  C   UNL     1       4.511   4.596  17.464  0.00  0.00    +0.000 A 
BRANCH  23  30
ATOM     29  C   UNL     1       6.901   4.978  14.278  0.00  0.00    +0.000 C 
ATOM     30  S   UNL     1       6.750   4.121  15.866  0.00  0.00    +0.000 S 
ATOM     31  O   UNL     1       8.074   4.391  16.669  0.00  0.00    +0.000 OA
ENDBRANCH  23  30
ENDBRANCH   1  26
BRANCH   4  32
ATOM     32  C   UNL     1       0.721   8.956  21.269  0.00  0.00    +0.000 A 
ATOM     33  C   UNL     1      -0.560   9.478  21.490  0.00  0.00    +0.000 A 
ATOM     34  C   UNL     1      -0.853  10.027  22.729  0.00  0.00    +0.000 A 
ATOM     35  N   UNL     1      -0.006   9.997  23.775  0.00  0.00    +0.000 NA
ATOM     36  C   UNL     1       1.186   9.400  23.570  0.00  0.00    +0.000 A 
ATOM     37  C   UNL     1       1.592   8.878  22.351  0.00  0.00    +0.000 A 
ENDBRANCH   4  32
TORSDOF 5
ENDMDL
MODEL 3
REMARK VINA RESULT:      -8.9      0.877      1.053
REMARK  Name = 
REMARK  6 active torsions:
REMARK  status: ('A' for Active; 'I' for Inactive)
REMARK    1  A    between atoms: C_1  and  S_2
REMARK    2  A    between atoms: S_2  and  C_4
REMARK    3  A    between atoms: C_7  and  C_8
REMARK    4  A    between atoms: C_10  and  C_11
REMARK    5  A    between atoms: C_16  and  C_17
REMARK    6  A    between atoms: C_27  and  C_28
REMARK                            x       y       z     vdW  Elec       q    Type
REMARK                         _______ _______ _______ _____ _____    ______ ____
ROOT
ATOM      1  C   UNL     1       2.277   7.969  18.373  0.00  0.00    +0.000 A 
ATOM      2  N   UNL     1       1.379   8.630  17.671  0.00  0.00    +0.000 NA
ATOM      3  C   UNL     1       0.664   9.395  18.577  0.00  0.00    +0.000 A 
ATOM      4  C   UNL     1       1.101   9.147  19.875  0.00  0.00    +0.000 A 
ATOM      5  N   UNL     1       2.135   8.267  19.710  0.00  0.00    +0.000 N 
ATOM      6  H   UNL     1       2.736   7.913  20.439  0.00  0.00    +0.000 HD
ENDROOT
BRANCH   3   7
ATOM      7  C   UNL     1      -0.425  10.273  18.175  0.00  0.00    +0.000 A 
ATOM      8  C   UNL     1      -0.293  11.678  18.187  0.00  0.00    +0.000 A 
ATOM      9  C   UNL     1      -1.417  12.491  18.268  0.00  0.00    +0.000 A 
ATOM     10  C   UNL     1      -2.691  11.929  18.117  0.00  0.00    +0.000 A 
ATOM     11  C   UNL     1      -3.897  12.536  18.468  0.00  0.00    +0.000 A 
ATOM     12  C   UNL     1      -5.078  11.815  18.269  0.00  0.00    +0.000 A 
ATOM     13  C   UNL     1      -5.062  10.963  17.176  0.00  0.00    +0.000 A 
ATOM     14  C   UNL     1      -3.934  10.178  17.060  0.00  0.00    +0.000 A 
ATOM     15  C   UNL     1      -2.751  10.603  17.660  0.00  0.00    +0.000 A 
ATOM     16  C   UNL     1      -1.661   9.750  17.821  0.00  0.00    +0.000 A 
BRANCH  12  17
ATOM     17  C   UNL     1      -6.007  11.435  19.380  0.00  0.00    +0.000 A 
ATOM     18  C   UNL     1      -6.915  10.366  19.260  0.00  0.00    +0.000 A 
ATOM     19  C   UNL     1      -7.834  10.078  20.274  0.00  0.00    +0.000 A 
ATOM     20  C   UNL     1      -7.901  10.874  21.413  0.00  0.00    +0.000 A 
ATOM     21  C   UNL     1      -7.112  12.010  21.499  0.00  0.00    +0.000 A 
ATOM     22  C   UNL     1      -6.189  12.285  20.493  0.00  0.00    +0.000 A 
ENDBRANCH  12  17
ENDBRANCH   3   7
BRANCH   1  26
ATOM     23  C   UNL     1       5.300   5.372  16.778  0.00  0.00    +0.000 A 
ATOM     24  C   UNL     1       4.180   4.850  17.433  0.00  0.00    +0.000 A 
ATOM     25  C   UNL     1       3.206   5.704  17.963  0.00  0.00    +0.000 A 
ATOM     26  C   UNL     1       3.332   7.094  17.848  0.00  0.00    +0.000 A 
ATOM     27  C   UNL     1       4.469   7.613  17.209  0.00  0.00    +0.000 A 
ATOM     28  C   UNL     1       5.444   6.761  16.678  0.00  0.00    +0.000 A 
BRANCH  23  30
ATOM     29  C   UNL     1       6.732   4.999  14.473  0.00  0.00    +0.000 C 
ATOM     30  S   UNL     1       6.579   4.272  16.124  0.00  0.00    +0.000 S 
ATOM     31  O   UNL     1       7.906   4.595  16.901  0.00  0.00    +0.000 OA
ENDBRANCH  23  30
ENDBRANCH   1  26
BRANCH   4  32
ATOM     32  C   UNL     1       0.697   9.671  21.190  0.00  0.00    +0.000 A 
ATOM     33  C   UNL     1       0.799   8.888  22.348  0.00  0.00    +0.000 A 
ATOM     34  C   UNL     1       0.158   9.313  23.500  0.00  0.00    +0.000 A 
ATOM     35  N   UNL     1      -0.479  10.496  23.605  0.00  0.00    +0.000 NA
ATOM     36  C   UNL     1      -0.480  11.279  22.508  0.00  0.00    +0.000 A 
ATOM     37  C   UNL     1       0.081  10.915  21.293  0.00  0.00    +0.000 A 
ENDBRANCH   4  32
TORSDOF 5
ENDMDL
MODEL 4
REMARK VINA RESULT:      -8.8      2.297      4.239
REMARK  Name = 
REMARK  6 active torsions:
REMARK  status: ('A' for Active; 'I' for Inactive)
REMARK    1  A    between atoms: C_1  and  S_2
REMARK    2  A    between atoms: S_2  and  C_4
REMARK    3  A    between atoms: C_7  and  C_8
REMARK    4  A    between atoms: C_10  and  C_11
REMARK    5  A    between atoms: C_16  and  C_17
REMARK    6  A    between atoms: C_27  and  C_28
REMARK                            x       y       z     vdW  Elec       q    Type
REMARK                         _______ _______ _______ _____ _____    ______ ____
ROOT
ATOM      1  C   UNL     1       2.162   8.124  18.386  0.00  0.00    +0.000 A 
ATOM      2  N   UNL     1       2.029   8.538  19.630  0.00  0.00    +0.000 NA
ATOM      3  C   UNL     1       0.908   9.350  19.651  0.00  0.00    +0.000 A 
ATOM      4  C   UNL     1       0.378   9.483  18.371  0.00  0.00    +0.000 A 
ATOM      5  N   UNL     1       1.173   8.676  17.603  0.00  0.00    +0.000 N 
ATOM      6  H   UNL     1       1.044   8.474  16.623  0.00  0.00    +0.000 HD
ENDROOT
BRANCH   3   7
ATOM      7  C   UNL     1       0.434  10.000  20.864  0.00  0.00    +0.000 A 
ATOM      8  C   UNL     1       0.047   9.261  22.002  0.00  0.00    +0.000 A 
ATOM      9  C   UNL     1      -0.819   9.812  22.939  0.00  0.00    +0.000 A 
ATOM     10  C   UNL     1      -1.136  11.175  22.873  0.00  0.00    +0.000 A 
ATOM     11  C   UNL     1      -2.197  11.799  23.529  0.00  0.00    +0.000 A 
ATOM     12  C   UNL     1      -2.379  13.170  23.328  0.00  0.00    +0.000 A 
ATOM     13  C   UNL     1      -1.211  13.889  23.131  0.00  0.00    +0.000 A 
ATOM     14  C   UNL     1      -0.324  13.334  22.234  0.00  0.00    +0.000 A 
ATOM     15  C   UNL     1      -0.375  11.963  21.994  0.00  0.00    +0.000 A 
ATOM     16  C   UNL     1       0.289  11.379  20.918  0.00  0.00    +0.000 A 
BRANCH  12  17
ATOM     17  C   UNL     1      -3.617  13.755  22.722  0.00  0.00    +0.000 A 
ATOM     18  C   UNL     1      -3.861  13.712  21.337  0.00  0.00    +0.000 A 
ATOM     19  C   UNL     1      -4.980  14.338  20.777  0.00  0.00    +0.000 A 
ATOM     20  C   UNL     1      -5.860  15.059  21.580  0.00  0.00    +0.000 A 
ATOM     21  C   UNL     1      -5.574  15.230  22.925  0.00  0.00    +0.000 A 
ATOM     22  C   UNL     1      -4.466  14.594  23.479  0.00  0.00    +0.000 A 
ENDBRANCH  12  17
ENDBRANCH   3   7
BRANCH   1  26
ATOM     23  C   UNL     1       4.984   5.273  16.858  0.00  0.00    +0.000 A 
ATOM     24  C   UNL     1       3.944   4.870  17.701  0.00  0.00    +0.000 A 
ATOM     25  C   UNL     1       3.036   5.808  18.206  0.00  0.00    +0.000 A 
ATOM     26  C   UNL     1       3.151   7.165  17.880  0.00  0.00    +0.000 A 
ATOM     27  C   UNL     1       4.211   7.567  17.051  0.00  0.00    +0.000 A 
ATOM     28  C   UNL     1       5.118   6.631  16.544  0.00  0.00    +0.000 A 
BRANCH  23  30
ATOM     29  C   UNL     1       5.971   4.386  14.461  0.00  0.00    +0.000 C 
ATOM     30  S   UNL     1       6.180   4.068  16.232  0.00  0.00    +0.000 S 
ATOM     31  O   UNL     1       7.609   4.586  16.633  0.00  0.00    +0.000 OA
ENDBRANCH  23  30
ENDBRANCH   1  26
BRANCH   4  32
ATOM     32  C   UNL     1      -0.779  10.216  17.831  0.00  0.00    +0.000 A 
ATOM     33  C   UNL     1      -1.172  11.450  18.367  0.00  0.00    +0.000 A 
ATOM     34  C   UNL     1      -2.411  11.963  18.021  0.00  0.00    +0.000 A 
ATOM     35  N   UNL     1      -3.227  11.393  17.113  0.00  0.00    +0.000 NA
ATOM     36  C   UNL     1      -2.785  10.257  16.535  0.00  0.00    +0.000 A 
ATOM     37  C   UNL     1      -1.589   9.635  16.860  0.00  0.00    +0.000 A 
ENDBRANCH   4  32
TORSDOF 5
ENDMDL
MODEL 5
REMARK VINA RESULT:      -8.6      0.909      1.285
REMARK  Name = 
REMARK  6 active torsions:
REMARK  status: ('A' for Active; 'I' for Inactive)
REMARK    1  A    between atoms: C_1  and  S_2
REMARK    2  A    between atoms: S_2  and  C_4
REMARK    3  A    between atoms: C_7  and  C_8
REMARK    4  A    between atoms: C_10  and  C_11
REMARK    5  A    between atoms: C_16  and  C_17
REMARK    6  A    between atoms: C_27  and  C_28
REMARK                            x       y       z     vdW  Elec       q    Type
REMARK                         _______ _______ _______ _____ _____    ______ ____
ROOT
ATOM      1  C   UNL     1       2.311   8.061  18.309  0.00  0.00    +0.000 A 
ATOM      2  N   UNL     1       1.464   8.824  17.649  0.00  0.00    +0.000 NA
ATOM      3  C   UNL     1       0.658   9.426  18.601  0.00  0.00    +0.000 A 
ATOM      4  C   UNL     1       0.987   8.971  19.874  0.00  0.00    +0.000 A 
ATOM      5  N   UNL     1       2.049   8.135  19.660  0.00  0.00    +0.000 N 
ATOM      6  H   UNL     1       2.592   7.670  20.371  0.00  0.00    +0.000 HD
ENDROOT
BRANCH   3   7
ATOM      7  C   UNL     1      -0.409  10.352  18.252  0.00  0.00    +0.000 A 
ATOM      8  C   UNL     1      -0.326  11.729  18.547  0.00  0.00    +0.000 A 
ATOM      9  C   UNL     1      -1.479  12.498  18.653  0.00  0.00    +0.000 A 
ATOM     10  C   UNL     1      -2.710  11.961  18.254  0.00  0.00    +0.000 A 
ATOM     11  C   UNL     1      -3.967  12.473  18.576  0.00  0.00    +0.000 A 
ATOM     12  C   UNL     1      -5.093  11.791  18.110  0.00  0.00    +0.000 A 
ATOM     13  C   UNL     1      -4.930  11.166  16.884  0.00  0.00    +0.000 A 
ATOM     14  C   UNL     1      -3.770  10.433  16.749  0.00  0.00    +0.000 A 
ATOM     15  C   UNL     1      -2.675  10.747  17.549  0.00  0.00    +0.000 A 
ATOM     16  C   UNL     1      -1.581   9.893  17.667  0.00  0.00    +0.000 A 
BRANCH  12  17
ATOM     17  C   UNL     1      -6.125  11.192  19.015  0.00  0.00    +0.000 A 
ATOM     18  C   UNL     1      -6.624  11.880  20.136  0.00  0.00    +0.000 A 
ATOM     19  C   UNL     1      -7.525  11.274  21.018  0.00  0.00    +0.000 A 
ATOM     20  C   UNL     1      -7.916   9.952  20.829  0.00  0.00    +0.000 A 
ATOM     21  C   UNL     1      -7.340   9.208  19.812  0.00  0.00    +0.000 A 
ATOM     22  C   UNL     1      -6.454   9.820  18.928  0.00  0.00    +0.000 A 
ENDBRANCH  12  17
ENDBRANCH   3   7
BRANCH   1  26
ATOM     23  C   UNL     1       5.515   5.726  16.665  0.00  0.00    +0.000 A 
ATOM     24  C   UNL     1       5.048   5.489  17.962  0.00  0.00    +0.000 A 
ATOM     25  C   UNL     1       4.012   6.264  18.496  0.00  0.00    +0.000 A 
ATOM     26  C   UNL     1       3.425   7.290  17.745  0.00  0.00    +0.000 A 
ATOM     27  C   UNL     1       3.913   7.538  16.453  0.00  0.00    +0.000 A 
ATOM     28  C   UNL     1       4.948   6.764  15.917  0.00  0.00    +0.000 A 
BRANCH  23  30
ATOM     29  C   UNL     1       7.745   4.394  17.535  0.00  0.00    +0.000 C 
ATOM     30  S   UNL     1       6.878   4.749  15.986  0.00  0.00    +0.000 S 
ATOM     31  O   UNL     1       6.265   3.396  15.474  0.00  0.00    +0.000 OA
ENDBRANCH  23  30
ENDBRANCH   1  26
BRANCH   4  32
ATOM     32  C   UNL     1       0.461   9.270  21.216  0.00  0.00    +0.000 A 
ATOM     33  C   UNL     1      -0.597  10.170  21.398  0.00  0.00    +0.000 A 
ATOM     34  C   UNL     1      -0.872  10.628  22.677  0.00  0.00    +0.000 A 
ATOM     35  N   UNL     1      -0.244  10.178  23.780  0.00  0.00    +0.000 NA
ATOM     36  C   UNL     1       0.705   9.238  23.593  0.00  0.00    +0.000 A 
ATOM     37  C   UNL     1       1.091   8.763  22.348  0.00  0.00    +0.000 A 
ENDBRANCH   4  32
TORSDOF 5
ENDMDL
MODEL 6
REMARK VINA RESULT:      -8.4      5.677     10.505
REMARK  Name = 
REMARK  6 active torsions:
REMARK  status: ('A' for Active; 'I' for Inactive)
REMARK    1  A    between atoms: C_1  and  S_2
REMARK    2  A    between atoms: S_2  and  C_4
REMARK    3  A    between atoms: C_7  and  C_8
REMARK    4  A    between atoms: C_10  and  C_11
REMARK    5  A    between atoms: C_16  and  C_17
REMARK    6  A    between atoms: C_27  and  C_28
REMARK                            x       y       z     vdW  Elec       q    Type
REMARK                         _______ _______ _______ _____ _____    ______ ____
ROOT
ATOM      1  C   UNL     1      -3.097  12.806  20.632  0.00  0.00    +0.000 A 
ATOM      2  N   UNL     1      -1.902  12.299  20.857  0.00  0.00    +0.000 NA
ATOM      3  C   UNL     1      -1.593  11.522  19.753  0.00  0.00    +0.000 A 
ATOM      4  C   UNL     1      -2.657  11.508  18.856  0.00  0.00    +0.000 A 
ATOM      5  N   UNL     1      -3.576  12.347  19.424  0.00  0.00    +0.000 N 
ATOM      6  H   UNL     1      -4.455  12.629  19.017  0.00  0.00    +0.000 HD
ENDROOT
BRANCH   3   7
ATOM      7  C   UNL     1      -0.339  10.794  19.633  0.00  0.00    +0.000 A 
ATOM      8  C   UNL     1       0.576  11.055  18.590  0.00  0.00    +0.000 A 
ATOM      9  C   UNL     1       1.497  10.089  18.203  0.00  0.00    +0.000 A 
ATOM     10  C   UNL     1       1.668   8.940  18.987  0.00  0.00    +0.000 A 
ATOM     11  C   UNL     1       2.307   7.767  18.587  0.00  0.00    +0.000 A 
ATOM     12  C   UNL     1       2.364   6.707  19.495  0.00  0.00    +0.000 A 
ATOM     13  C   UNL     1       2.452   7.085  20.826  0.00  0.00    +0.000 A 
ATOM     14  C   UNL     1       1.572   8.072  21.215  0.00  0.00    +0.000 A 
ATOM     15  C   UNL     1       1.059   8.938  20.252  0.00  0.00    +0.000 A 
ATOM     16  C   UNL     1      -0.028   9.769  20.514  0.00  0.00    +0.000 A 
BRANCH  12  17
ATOM     17  C   UNL     1       1.747   5.367  19.237  0.00  0.00    +0.000 A 
ATOM     18  C   UNL     1       1.268   4.553  20.280  0.00  0.00    +0.000 A 
ATOM     19  C   UNL     1       0.772   3.270  20.030  0.00  0.00    +0.000 A 
ATOM     20  C   UNL     1       0.781   2.749  18.738  0.00  0.00    +0.000 A 
ATOM     21  C   UNL     1       1.368   3.475  17.714  0.00  0.00    +0.000 A 
ATOM     22  C   UNL     1       1.848   4.758  17.967  0.00  0.00    +0.000 A 
ENDBRANCH  12  17
ENDBRANCH   3   7
BRANCH   1  26
ATOM     23  C   UNL     1      -5.240  15.552  23.140  0.00  0.00    +0.000 A 
ATOM     24  C   UNL     1      -5.922  14.632  22.338  0.00  0.00    +0.000 A 
ATOM     25  C   UNL     1      -5.216  13.749  21.512  0.00  0.00    +0.000 A 
ATOM     26  C   UNL     1      -3.816  13.770  21.472  0.00  0.00    +0.000 A 
ATOM     27  C   UNL     1      -3.138  14.711  22.262  0.00  0.00    +0.000 A 
ATOM     28  C   UNL     1      -3.841  15.593  23.088  0.00  0.00    +0.000 A 
BRANCH  23  30
ATOM     29  C   UNL     1      -4.757  17.346  25.152  0.00  0.00    +0.000 C 
ATOM     30  S   UNL     1      -6.150  16.718  24.181  0.00  0.00    +0.000 S 
ATOM     31  O   UNL     1      -6.634  17.888  23.249  0.00  0.00    +0.000 OA
ENDBRANCH  23  30
ENDBRANCH   1  26
BRANCH   4  32
ATOM     32  C   UNL     1      -2.865  10.855  17.553  0.00  0.00    +0.000 A 
ATOM     33  C   UNL     1      -2.083   9.764  17.153  0.00  0.00    +0.000 A 
ATOM     34  C   UNL     1      -2.123   9.364  15.827  0.00  0.00    +0.000 A 
ATOM     35  N   UNL     1      -2.954   9.900  14.912  0.00  0.00    +0.000 NA
ATOM     36  C   UNL     1      -3.771  10.883  15.343  0.00  0.00    +0.000 A 
ATOM     37  C   UNL     1      -3.760  11.392  16.633  0.00  0.00    +0.000 A 
ENDBRANCH   4  32
TORSDOF 5
ENDMDL
MODEL 7
REMARK VINA RESULT:      -8.3      1.370      1.998
REMARK  Name = 
REMARK  6 active torsions:
REMARK  status: ('A' for Active; 'I' for Inactive)
REMARK    1  A    between atoms: C_1  and  S_2
REMARK    2  A    between atoms: S_2  and  C_4
REMARK    3  A    between atoms: C_7  and  C_8
REMARK    4  A    between atoms: C_10  and  C_11
REMARK    5  A    between atoms: C_16  and  C_17
REMARK    6  A    between atoms: C_27  and  C_28
REMARK                            x       y       z     vdW  Elec       q    Type
REMARK                         _______ _______ _______ _____ _____    ______ ____
ROOT
ATOM      1  C   UNL     1       2.519   7.668  18.241  0.00  0.00    +0.000 A 
ATOM      2  N   UNL     1       1.781   8.642  17.751  0.00  0.00    +0.000 NA
ATOM      3  C   UNL     1       1.132   9.220  18.829  0.00  0.00    +0.000 A 
ATOM      4  C   UNL     1       1.438   8.538  20.003  0.00  0.00    +0.000 A 
ATOM      5  N   UNL     1       2.335   7.585  19.604  0.00  0.00    +0.000 N 
ATOM      6  H   UNL     1       2.826   6.942  20.206  0.00  0.00    +0.000 HD
ENDROOT
BRANCH   3   7
ATOM      7  C   UNL     1       0.217  10.343  18.685  0.00  0.00    +0.000 A 
ATOM      8  C   UNL     1       0.682  11.669  18.562  0.00  0.00    +0.000 A 
ATOM      9  C   UNL     1      -0.142  12.738  18.894  0.00  0.00    +0.000 A 
ATOM     10  C   UNL     1      -1.502  12.514  19.143  0.00  0.00    +0.000 A 
ATOM     11  C   UNL     1      -2.375  13.403  19.771  0.00  0.00    +0.000 A 
ATOM     12  C   UNL     1      -3.700  13.001  19.958  0.00  0.00    +0.000 A 
ATOM     13  C   UNL     1      -4.203  12.174  18.966  0.00  0.00    +0.000 A 
ATOM     14  C   UNL     1      -3.379  11.133  18.597  0.00  0.00    +0.000 A 
ATOM     15  C   UNL     1      -2.008  11.246  18.814  0.00  0.00    +0.000 A 
ATOM     16  C   UNL     1      -1.156  10.147  18.725  0.00  0.00    +0.000 A 
BRANCH  12  17
ATOM     17  C   UNL     1      -4.336  12.863  21.307  0.00  0.00    +0.000 A 
ATOM     18  C   UNL     1      -5.706  13.106  21.514  0.00  0.00    +0.000 A 
ATOM     19  C   UNL     1      -6.267  13.055  22.794  0.00  0.00    +0.000 A 
ATOM     20  C   UNL     1      -5.468  12.804  23.905  0.00  0.00    +0.000 A 
ATOM     21  C   UNL     1      -4.095  12.694  23.748  0.00  0.00    +0.000 A 
ATOM     22  C   UNL     1      -3.544  12.732  22.470  0.00  0.00    +0.000 A 
ENDBRANCH  12  17
ENDBRANCH   3   7
BRANCH   1  26
ATOM     23  C   UNL     1       5.352   5.239  16.121  0.00  0.00    +0.000 A 
ATOM     24  C   UNL     1       5.315   6.624  15.934  0.00  0.00    +0.000 A 
ATOM     25  C   UNL     1       4.379   7.407  16.619  0.00  0.00    +0.000 A 
ATOM     26  C   UNL     1       3.462   6.821  17.501  0.00  0.00    +0.000 A 
ATOM     27  C   UNL     1       3.490   5.428  17.668  0.00  0.00    +0.000 A 
ATOM     28  C   UNL     1       4.425   4.643  16.985  0.00  0.00    +0.000 A 
BRANCH  23  30
ATOM     29  C   UNL     1       5.558   3.953  13.711  0.00  0.00    +0.000 C 
ATOM     30  S   UNL     1       6.537   4.219  15.210  0.00  0.00    +0.000 S 
ATOM     31  O   UNL     1       7.743   5.150  14.821  0.00  0.00    +0.000 OA
ENDBRANCH  23  30
ENDBRANCH   1  26
BRANCH   4  32
ATOM     32  C   UNL     1       1.032   8.718  21.407  0.00  0.00    +0.000 A 
ATOM     33  C   UNL     1      -0.320   8.802  21.767  0.00  0.00    +0.000 A 
ATOM     34  C   UNL     1      -0.645   9.244  23.040  0.00  0.00    +0.000 A 
ATOM     35  N   UNL     1       0.269   9.502  23.995  0.00  0.00    +0.000 NA
ATOM     36  C   UNL     1       1.562   9.319  23.657  0.00  0.00    +0.000 A 
ATOM     37  C   UNL     1       1.988   8.939  22.393  0.00  0.00    +0.000 A 
ENDBRANCH   4  32
TORSDOF 5
ENDMDL
MODEL 8
REMARK VINA RESULT:      -8.2      4.616      9.688
REMARK  Name = 
REMARK  6 active torsions:
REMARK  status: ('A' for Active; 'I' for Inactive)
REMARK    1  A    between atoms: C_1  and  S_2
REMARK    2  A    between atoms: S_2  and  C_4
REMARK    3  A    between atoms: C_7  and  C_8
REMARK    4  A    between atoms: C_10  and  C_11
REMARK    5  A    between atoms: C_16  and  C_17
REMARK    6  A    between atoms: C_27  and  C_28
REMARK                            x       y       z     vdW  Elec       q    Type
REMARK                         _______ _______ _______ _____ _____    ______ ____
ROOT
ATOM      1  C   UNL     1       1.629  12.773  19.590  0.00  0.00    +0.000 A 
ATOM      2  N   UNL     1       2.071  11.557  19.842  0.00  0.00    +0.000 NA
ATOM      3  C   UNL     1       1.084  10.687  19.410  0.00  0.00    +0.000 A 
ATOM      4  C   UNL     1      -0.017  11.396  18.936  0.00  0.00    +0.000 A 
ATOM      5  N   UNL     1       0.370  12.705  19.037  0.00  0.00    +0.000 N 
ATOM      6  H   UNL     1      -0.157  13.506  18.722  0.00  0.00    +0.000 HD
ENDROOT
BRANCH   3   7
ATOM      7  C   UNL     1       1.209   9.242  19.520  0.00  0.00    +0.000 A 
ATOM      8  C   UNL     1       0.984   8.565  20.737  0.00  0.00    +0.000 A 
ATOM      9  C   UNL     1       1.543   7.313  20.962  0.00  0.00    +0.000 A 
ATOM     10  C   UNL     1       2.148   6.624  19.902  0.00  0.00    +0.000 A 
ATOM     11  C   UNL     1       3.003   5.528  20.024  0.00  0.00    +0.000 A 
ATOM     12  C   UNL     1       3.537   4.979  18.855  0.00  0.00    +0.000 A 
ATOM     13  C   UNL     1       2.707   5.048  17.748  0.00  0.00    +0.000 A 
ATOM     14  C   UNL     1       2.112   6.273  17.535  0.00  0.00    +0.000 A 
ATOM     15  C   UNL     1       1.951   7.142  18.612  0.00  0.00    +0.000 A 
ATOM     16  C   UNL     1       1.618   8.482  18.433  0.00  0.00    +0.000 A 
BRANCH  12  17
ATOM     17  C   UNL     1       5.006   4.924  18.567  0.00  0.00    +0.000 A 
ATOM     18  C   UNL     1       5.953   5.549  19.399  0.00  0.00    +0.000 A 
ATOM     19  C   UNL     1       7.312   5.560  19.071  0.00  0.00    +0.000 A 
ATOM     20  C   UNL     1       7.756   4.986  17.883  0.00  0.00    +0.000 A 
ATOM     21  C   UNL     1       6.832   4.481  16.981  0.00  0.00    +0.000 A 
ATOM     22  C   UNL     1       5.481   4.461  17.320  0.00  0.00    +0.000 A 
ENDBRANCH  12  17
ENDBRANCH   3   7
BRANCH   1  26
ATOM     23  C   UNL     1       3.840  16.403  20.192  0.00  0.00    +0.000 A 
ATOM     24  C   UNL     1       3.516  15.574  21.270  0.00  0.00    +0.000 A 
ATOM     25  C   UNL     1       2.783  14.399  21.068  0.00  0.00    +0.000 A 
ATOM     26  C   UNL     1       2.359  14.031  19.785  0.00  0.00    +0.000 A 
ATOM     27  C   UNL     1       2.667  14.878  18.709  0.00  0.00    +0.000 A 
ATOM     28  C   UNL     1       3.401  16.052  18.909  0.00  0.00    +0.000 A 
BRANCH  23  30
ATOM     29  C   UNL     1       5.483  17.540  22.065  0.00  0.00    +0.000 C 
ATOM     30  S   UNL     1       4.756  17.940  20.455  0.00  0.00    +0.000 S 
ATOM     31  O   UNL     1       5.928  17.964  19.408  0.00  0.00    +0.000 OA
ENDBRANCH  23  30
ENDBRANCH   1  26
BRANCH   4  32
ATOM     32  C   UNL     1      -1.314  10.984  18.376  0.00  0.00    +0.000 A 
ATOM     33  C   UNL     1      -1.391  10.063  17.323  0.00  0.00    +0.000 A 
ATOM     34  C   UNL     1      -2.593   9.917  16.650  0.00  0.00    +0.000 A 
ATOM     35  N   UNL     1      -3.732  10.538  17.016  0.00  0.00    +0.000 NA
ATOM     36  C   UNL     1      -3.658  11.345  18.094  0.00  0.00    +0.000 A 
ATOM     37  C   UNL     1      -2.489  11.601  18.794  0.00  0.00    +0.000 A 
ENDBRANCH   4  32
TORSDOF 5
ENDMDL
MODEL 9
REMARK VINA RESULT:      -8.2      2.413      3.734
REMARK  Name = 
REMARK  6 active torsions:
REMARK  status: ('A' for Active; 'I' for Inactive)
REMARK    1  A    between atoms: C_1  and  S_2
REMARK    2  A    between atoms: S_2  and  C_4
REMARK    3  A    between atoms: C_7  and  C_8
REMARK    4  A    between atoms: C_10  and  C_11
REMARK    5  A    between atoms: C_16  and  C_17
REMARK    6  A    between atoms: C_27  and  C_28
REMARK                            x       y       z     vdW  Elec       q    Type
REMARK                         _______ _______ _______ _____ _____    ______ ____
ROOT
ATOM      1  C   UNL     1       1.107   9.078  18.361  0.00  0.00    +0.000 A 
ATOM      2  N   UNL     1      -0.075   8.941  17.795  0.00  0.00    +0.000 NA
ATOM      3  C   UNL     1      -0.740  10.140  17.986  0.00  0.00    +0.000 A 
ATOM      4  C   UNL     1       0.038  11.012  18.743  0.00  0.00    +0.000 A 
ATOM      5  N   UNL     1       1.205  10.325  18.939  0.00  0.00    +0.000 N 
ATOM      6  H   UNL     1       2.032  10.677  19.397  0.00  0.00    +0.000 HD
ENDROOT
BRANCH   3   7
ATOM      7  C   UNL     1      -2.089  10.376  17.495  0.00  0.00    +0.000 A 
ATOM      8  C   UNL     1      -2.341  10.726  16.151  0.00  0.00    +0.000 A 
ATOM      9  C   UNL     1      -3.510  11.392  15.804  0.00  0.00    +0.000 A 
ATOM     10  C   UNL     1      -4.539  11.524  16.746  0.00  0.00    +0.000 A 
ATOM     11  C   UNL     1      -5.617  12.405  16.660  0.00  0.00    +0.000 A 
ATOM     12  C   UNL     1      -6.540  12.419  17.708  0.00  0.00    +0.000 A 
ATOM     13  C   UNL     1      -6.738  11.194  18.326  0.00  0.00    +0.000 A 
ATOM     14  C   UNL     1      -5.587  10.502  18.640  0.00  0.00    +0.000 A 
ATOM     15  C   UNL     1      -4.422  10.769  17.925  0.00  0.00    +0.000 A 
ATOM     16  C   UNL     1      -3.176  10.322  18.356  0.00  0.00    +0.000 A 
BRANCH  12  17
ATOM     17  C   UNL     1      -6.809  13.626  18.553  0.00  0.00    +0.000 A 
ATOM     18  C   UNL     1      -7.386  13.528  19.832  0.00  0.00    +0.000 A 
ATOM     19  C   UNL     1      -7.708  14.669  20.573  0.00  0.00    +0.000 A 
ATOM     20  C   UNL     1      -7.503  15.938  20.038  0.00  0.00    +0.000 A 
ATOM     21  C   UNL     1      -7.062  16.065  18.730  0.00  0.00    +0.000 A 
ATOM     22  C   UNL     1      -6.730  14.925  18.003  0.00  0.00    +0.000 A 
ENDBRANCH  12  17
ENDBRANCH   3   7
BRANCH   1  26
ATOM     23  C   UNL     1       4.264   6.171  18.301  0.00  0.00    +0.000 A 
ATOM     24  C   UNL     1       3.319   6.181  19.332  0.00  0.00    +0.000 A 
ATOM     25  C   UNL     1       2.301   7.141  19.351  0.00  0.00    +0.000 A 
ATOM     26  C   UNL     1       2.209   8.109  18.343  0.00  0.00    +0.000 A 
ATOM     27  C   UNL     1       3.173   8.108  17.323  0.00  0.00    +0.000 A 
ATOM     28  C   UNL     1       4.191   7.148  17.301  0.00  0.00    +0.000 A 
BRANCH  23  30
ATOM     29  C   UNL     1       6.676   5.752  17.071  0.00  0.00    +0.000 C 
ATOM     30  S   UNL     1       5.603   4.954  18.292  0.00  0.00    +0.000 S 
ATOM     31  O   UNL     1       6.326   5.053  19.684  0.00  0.00    +0.000 OA
ENDBRANCH  23  30
ENDBRANCH   1  26
BRANCH   4  32
ATOM     32  C   UNL     1      -0.176  12.384  19.233  0.00  0.00    +0.000 A 
ATOM     33  C   UNL     1      -0.862  12.630  20.430  0.00  0.00    +0.000 A 
ATOM     34  C   UNL     1      -1.279  13.922  20.707  0.00  0.00    +0.000 A 
ATOM     35  N   UNL     1      -0.972  14.984  19.939  0.00  0.00    +0.000 NA
ATOM     36  C   UNL     1      -0.225  14.740  18.843  0.00  0.00    +0.000 A 
ATOM     37  C   UNL     1       0.186  13.475  18.450  0.00  0.00    +0.000 A 
ENDBRANCH   4  32
TORSDOF 5
ENDMDL
