MODEL 1
REMARK VINA RESULT:      -6.5      0.000      0.000
REMARK  Name = 
REMARK  10 active torsions:
REMARK  status: ('A' for Active; 'I' for Inactive)
REMARK    1  A    between atoms: C_1  and  O_2
REMARK    2  A    between atoms: O_2  and  C_3
REMARK    3  A    between atoms: C_3  and  C_5
REMARK    4  A    between atoms: C_6  and  O_7
REMARK    5  A    between atoms: C_9  and  C_10
REMARK    6  A    between atoms: N_16  and  C_17
REMARK    7  A    between atoms: C_17  and  C_18
REMARK    8  A    between atoms: C_21  and  O_22
REMARK    9  A    between atoms: O_22  and  C_23
REMARK   10  A    between atoms: C_26  and  C_27
REMARK                            x       y       z     vdW  Elec       q    Type
REMARK                         _______ _______ _______ _____ _____    ______ ____
ROOT
ATOM      1  C   UNL     1       0.137  13.370  20.096  0.00  0.00    +0.000 C 
ATOM      2  C   UNL     1      -0.212  14.671  20.217  0.00  0.00    +0.000 C 
ATOM      3  C   UNL     1      -1.656  15.107  20.170  0.00  0.00    +0.000 C 
ATOM      4  C   UNL     1      -2.658  13.958  20.428  0.00  0.00    +0.000 C 
ATOM      5  N   UNL     1      -2.249  12.814  19.580  0.00  0.00    +0.000 NA
ATOM      6  C   UNL     1      -0.898  12.259  19.890  0.00  0.00    +0.000 C 
ENDROOT
BRANCH   4   7
ATOM      7  C   UNL     1      -2.911  13.644  21.909  0.00  0.00    +0.000 A 
ATOM      8  C   UNL     1      -3.849  12.697  22.327  0.00  0.00    +0.000 A 
ATOM      9  C   UNL     1      -4.115  12.542  23.684  0.00  0.00    +0.000 A 
ATOM     10  C   UNL     1      -3.412  13.303  24.603  0.00  0.00    +0.000 A 
ATOM     11  C   UNL     1      -2.450  14.171  24.123  0.00  0.00    +0.000 A 
ATOM     12  N   UNL     1      -2.183  14.358  22.811  0.00  0.00    +0.000 NA
ENDBRANCH   4   7
BRANCH   6  13
ATOM     13  C   UNL     1      -0.784  11.160  20.988  0.00  0.00    +0.000 A 
ATOM     14  C   UNL     1      -0.471   9.847  20.630  0.00  0.00    +0.000 A 
ATOM     15  C   UNL     1      -0.226   8.895  21.619  0.00  0.00    +0.000 A 
ATOM     16  C   UNL     1      -0.297   9.269  22.952  0.00  0.00    +0.000 A 
ATOM     17  C   UNL     1      -0.606  10.584  23.237  0.00  0.00    +0.000 A 
ATOM     18  N   UNL     1      -0.843  11.531  22.297  0.00  0.00    +0.000 NA
ENDBRANCH   6  13
BRANCH   1  19
ATOM     19  C   UNL     1       1.546  12.887  20.087  0.00  0.00    +0.000 C 
ATOM     20  O   UNL     1       2.073  12.342  19.127  0.00  0.00    +0.000 OA
BRANCH  19  22
ATOM     21  C   UNL     1       3.390  13.904  21.112  0.00  0.00    +0.000 C 
ATOM     22  O   UNL     1       2.171  13.175  21.262  0.00  0.00    +0.000 OA
ENDBRANCH  19  22
ENDBRANCH   1  19
BRANCH   2  23
ATOM     23  O   UNL     1       0.666  15.715  20.428  0.00  0.00    +0.000 OA
ATOM     24  H   UNL     1       1.174  15.860  19.604  0.00  0.00    +0.000 HD
ENDBRANCH   2  23
BRANCH   5  25
ATOM     25  C   UNL     1      -3.291  11.837  19.290  0.00  0.00    +0.000 C 
BRANCH  25  26
ATOM     26  C   UNL     1      -3.229  11.233  17.891  0.00  0.00    +0.000 A 
ATOM     27  C   UNL     1      -4.120  11.612  16.877  0.00  0.00    +0.000 A 
ATOM     28  C   UNL     1      -3.974  11.109  15.576  0.00  0.00    +0.000 A 
ATOM     29  C   UNL     1      -2.933  10.236  15.261  0.00  0.00    +0.000 A 
ATOM     30  C   UNL     1      -2.069   9.820  16.274  0.00  0.00    +0.000 A 
ATOM     31  C   UNL     1      -2.218  10.314  17.575  0.00  0.00    +0.000 A 
BRANCH  29  32
ATOM     32  O   UNL     1      -2.865   9.826  13.956  0.00  0.00    +0.000 OA
ATOM     33  C   UNL     1      -4.086   9.895  13.220  0.00  0.00    +0.000 C 
ENDBRANCH  29  32
ENDBRANCH  25  26
ENDBRANCH   5  25
TORSDOF 8
ENDMDL
MODEL 2
REMARK VINA RESULT:      -6.4      0.418      1.174
REMARK  Name = 
REMARK  10 active torsions:
REMARK  status: ('A' for Active; 'I' for Inactive)
REMARK    1  A    between atoms: C_1  and  O_2
REMARK    2  A    between atoms: O_2  and  C_3
REMARK    3  A    between atoms: C_3  and  C_5
REMARK    4  A    between atoms: C_6  and  O_7
REMARK    5  A    between atoms: C_9  and  C_10
REMARK    6  A    between atoms: N_16  and  C_17
REMARK    7  A    between atoms: C_17  and  C_18
REMARK    8  A    between atoms: C_21  and  O_22
REMARK    9  A    between atoms: O_22  and  C_23
REMARK   10  A    between atoms: C_26  and  C_27
REMARK                            x       y       z     vdW  Elec       q    Type
REMARK                         _______ _______ _______ _____ _____    ______ ____
ROOT
ATOM      1  C   UNL     1       0.179  13.417  20.290  0.00  0.00    +0.000 C 
ATOM      2  C   UNL     1      -0.177  14.715  20.426  0.00  0.00    +0.000 C 
ATOM      3  C   UNL     1      -1.619  15.150  20.326  0.00  0.00    +0.000 C 
ATOM      4  C   UNL     1      -2.628  13.995  20.515  0.00  0.00    +0.000 C 
ATOM      5  N   UNL     1      -2.182  12.871  19.659  0.00  0.00    +0.000 NA
ATOM      6  C   UNL     1      -0.844  12.310  20.013  0.00  0.00    +0.000 C 
ENDROOT
BRANCH   4   7
ATOM      7  C   UNL     1      -2.945  13.646  21.975  0.00  0.00    +0.000 A 
ATOM      8  C   UNL     1      -3.889  12.680  22.331  0.00  0.00    +0.000 A 
ATOM      9  C   UNL     1      -4.215  12.493  23.671  0.00  0.00    +0.000 A 
ATOM     10  C   UNL     1      -3.564  13.242  24.636  0.00  0.00    +0.000 A 
ATOM     11  C   UNL     1      -2.591  14.132  24.219  0.00  0.00    +0.000 A 
ATOM     12  N   UNL     1      -2.268  14.350  22.925  0.00  0.00    +0.000 NA
ENDBRANCH   4   7
BRANCH   6  13
ATOM     13  C   UNL     1      -0.776  11.186  21.090  0.00  0.00    +0.000 A 
ATOM     14  C   UNL     1      -0.491   9.873  20.709  0.00  0.00    +0.000 A 
ATOM     15  C   UNL     1      -0.286   8.895  21.682  0.00  0.00    +0.000 A 
ATOM     16  C   UNL     1      -0.368   9.243  23.021  0.00  0.00    +0.000 A 
ATOM     17  C   UNL     1      -0.649  10.559  23.329  0.00  0.00    +0.000 A 
ATOM     18  N   UNL     1      -0.846  11.531  22.406  0.00  0.00    +0.000 NA
ENDBRANCH   6  13
BRANCH   1  19
ATOM     19  C   UNL     1       1.588  12.935  20.330  0.00  0.00    +0.000 C 
ATOM     20  O   UNL     1       2.339  13.104  21.281  0.00  0.00    +0.000 OA
BRANCH  19  22
ATOM     21  C   UNL     1       2.579  13.029  18.210  0.00  0.00    +0.000 C 
ATOM     22  O   UNL     1       1.904  12.248  19.197  0.00  0.00    +0.000 OA
ENDBRANCH  19  22
ENDBRANCH   1  19
BRANCH   2  23
ATOM     23  O   UNL     1       0.689  15.754  20.699  0.00  0.00    +0.000 OA
ATOM     24  H   UNL     1       1.438  15.702  20.071  0.00  0.00    +0.000 HD
ENDBRANCH   2  23
BRANCH   5  25
ATOM     25  C   UNL     1      -3.209  11.900  19.301  0.00  0.00    +0.000 C 
BRANCH  25  26
ATOM     26  C   UNL     1      -3.109  11.360  17.879  0.00  0.00    +0.000 A 
ATOM     27  C   UNL     1      -2.084  10.487  17.485  0.00  0.00    +0.000 A 
ATOM     28  C   UNL     1      -2.077   9.933  16.197  0.00  0.00    +0.000 A 
ATOM     29  C   UNL     1      -3.094  10.224  15.289  0.00  0.00    +0.000 A 
ATOM     30  C   UNL     1      -4.093  11.125  15.658  0.00  0.00    +0.000 A 
ATOM     31  C   UNL     1      -4.098  11.686  16.940  0.00  0.00    +0.000 A 
BRANCH  29  32
ATOM     32  O   UNL     1      -3.006   9.609  14.068  0.00  0.00    +0.000 OA
ATOM     33  C   UNL     1      -4.061   9.897  13.152  0.00  0.00    +0.000 C 
ENDBRANCH  29  32
ENDBRANCH  25  26
ENDBRANCH   5  25
TORSDOF 8
ENDMDL
MODEL 3
REMARK VINA RESULT:      -6.1      2.945      5.715
REMARK  Name = 
REMARK  10 active torsions:
REMARK  status: ('A' for Active; 'I' for Inactive)
REMARK    1  A    between atoms: C_1  and  O_2
REMARK    2  A    between atoms: O_2  and  C_3
REMARK    3  A    between atoms: C_3  and  C_5
REMARK    4  A    between atoms: C_6  and  O_7
REMARK    5  A    between atoms: C_9  and  C_10
REMARK    6  A    between atoms: N_16  and  C_17
REMARK    7  A    between atoms: C_17  and  C_18
REMARK    8  A    between atoms: C_21  and  O_22
REMARK    9  A    between atoms: O_22  and  C_23
REMARK   10  A    between atoms: C_26  and  C_27
REMARK                            x       y       z     vdW  Elec       q    Type
REMARK                         _______ _______ _______ _____ _____    ______ ____
ROOT
ATOM      1  C   UNL     1       1.389  12.761  20.169  0.00  0.00    +0.000 C 
ATOM      2  C   UNL     1       1.825  12.723  18.889  0.00  0.00    +0.000 C 
ATOM      3  C   UNL     1       1.789  11.448  18.083  0.00  0.00    +0.000 C 
ATOM      4  C   UNL     1       0.834  10.378  18.660  0.00  0.00    +0.000 C 
ATOM      5  N   UNL     1       1.110  10.274  20.112  0.00  0.00    +0.000 NA
ATOM      6  C   UNL     1       0.846  11.522  20.889  0.00  0.00    +0.000 C 
ENDROOT
BRANCH   4   7
ATOM      7  C   UNL     1      -0.639  10.547  18.263  0.00  0.00    +0.000 A 
ATOM      8  C   UNL     1      -1.593   9.548  18.472  0.00  0.00    +0.000 A 
ATOM      9  C   UNL     1      -2.885   9.716  17.984  0.00  0.00    +0.000 A 
ATOM     10  C   UNL     1      -3.216  10.892  17.334  0.00  0.00    +0.000 A 
ATOM     11  C   UNL     1      -2.242  11.866  17.222  0.00  0.00    +0.000 A 
ATOM     12  N   UNL     1      -0.973  11.724  17.667  0.00  0.00    +0.000 NA
ENDBRANCH   4   7
BRANCH   6  13
ATOM     13  C   UNL     1      -0.592  11.762  21.435  0.00  0.00    +0.000 A 
ATOM     14  C   UNL     1      -0.911  11.394  22.744  0.00  0.00    +0.000 A 
ATOM     15  C   UNL     1      -2.150  11.739  23.282  0.00  0.00    +0.000 A 
ATOM     16  C   UNL     1      -3.054  12.447  22.505  0.00  0.00    +0.000 A 
ATOM     17  C   UNL     1      -2.675  12.783  21.221  0.00  0.00    +0.000 A 
ATOM     18  N   UNL     1      -1.476  12.467  20.674  0.00  0.00    +0.000 NA
ENDBRANCH   6  13
BRANCH   1  19
ATOM     19  C   UNL     1       1.445  13.977  21.028  0.00  0.00    +0.000 C 
ATOM     20  O   UNL     1       2.072  14.043  22.076  0.00  0.00    +0.000 OA
BRANCH  19  22
ATOM     21  C   UNL     1      -0.053  15.740  21.393  0.00  0.00    +0.000 C 
ATOM     22  O   UNL     1       0.750  15.006  20.468  0.00  0.00    +0.000 OA
ENDBRANCH  19  22
ENDBRANCH   1  19
BRANCH   2  23
ATOM     23  O   UNL     1       2.303  13.805  18.178  0.00  0.00    +0.000 OA
ATOM     24  H   UNL     1       3.266  13.875  18.334  0.00  0.00    +0.000 HD
ENDBRANCH   2  23
BRANCH   5  25
ATOM     25  C   UNL     1       0.701   9.027  20.747  0.00  0.00    +0.000 C 
BRANCH  25  26
ATOM     26  C   UNL     1       1.482   7.797  20.301  0.00  0.00    +0.000 A 
ATOM     27  C   UNL     1       1.402   6.576  20.986  0.00  0.00    +0.000 A 
ATOM     28  C   UNL     1       2.058   5.438  20.494  0.00  0.00    +0.000 A 
ATOM     29  C   UNL     1       2.788   5.492  19.307  0.00  0.00    +0.000 A 
ATOM     30  C   UNL     1       2.908   6.713  18.642  0.00  0.00    +0.000 A 
ATOM     31  C   UNL     1       2.262   7.852  19.136  0.00  0.00    +0.000 A 
BRANCH  29  32
ATOM     32  O   UNL     1       3.366   4.319  18.901  0.00  0.00    +0.000 OA
ATOM     33  C   UNL     1       4.767   4.376  18.640  0.00  0.00    +0.000 C 
ENDBRANCH  29  32
ENDBRANCH  25  26
ENDBRANCH   5  25
TORSDOF 8
ENDMDL
MODEL 4
REMARK VINA RESULT:      -6.0      7.854     10.846
REMARK  Name = 
REMARK  10 active torsions:
REMARK  status: ('A' for Active; 'I' for Inactive)
REMARK    1  A    between atoms: C_1  and  O_2
REMARK    2  A    between atoms: O_2  and  C_3
REMARK    3  A    between atoms: C_3  and  C_5
REMARK    4  A    between atoms: C_6  and  O_7
REMARK    5  A    between atoms: C_9  and  C_10
REMARK    6  A    between atoms: N_16  and  C_17
REMARK    7  A    between atoms: C_17  and  C_18
REMARK    8  A    between atoms: C_21  and  O_22
REMARK    9  A    between atoms: O_22  and  C_23
REMARK   10  A    between atoms: C_26  and  C_27
REMARK                            x       y       z     vdW  Elec       q    Type
REMARK                         _______ _______ _______ _____ _____    ______ ____
ROOT
ATOM      1  C   UNL     1       3.767   3.175  19.065  0.00  0.00    +0.000 C 
ATOM      2  C   UNL     1       2.933   2.706  18.109  0.00  0.00    +0.000 C 
ATOM      3  C   UNL     1       2.390   3.606  17.026  0.00  0.00    +0.000 C 
ATOM      4  C   UNL     1       3.197   4.913  16.847  0.00  0.00    +0.000 C 
ATOM      5  N   UNL     1       3.404   5.494  18.194  0.00  0.00    +0.000 NA
ATOM      6  C   UNL     1       4.204   4.642  19.125  0.00  0.00    +0.000 C 
ENDROOT
BRANCH   4   7
ATOM      7  C   UNL     1       4.447   4.784  15.967  0.00  0.00    +0.000 A 
ATOM      8  C   UNL     1       5.216   5.887  15.588  0.00  0.00    +0.000 A 
ATOM      9  C   UNL     1       6.270   5.719  14.694  0.00  0.00    +0.000 A 
ATOM     10  C   UNL     1       6.564   4.450  14.226  0.00  0.00    +0.000 A 
ATOM     11  C   UNL     1       5.805   3.394  14.696  0.00  0.00    +0.000 A 
ATOM     12  N   UNL     1       4.764   3.528  15.547  0.00  0.00    +0.000 NA
ENDBRANCH   4   7
BRANCH   6  13
ATOM     13  C   UNL     1       5.755   4.779  19.102  0.00  0.00    +0.000 A 
ATOM     14  C   UNL     1       6.486   4.240  18.041  0.00  0.00    +0.000 A 
ATOM     15  C   UNL     1       7.855   4.486  17.943  0.00  0.00    +0.000 A 
ATOM     16  C   UNL     1       8.474   5.269  18.906  0.00  0.00    +0.000 A 
ATOM     17  C   UNL     1       7.693   5.774  19.925  0.00  0.00    +0.000 A 
ATOM     18  N   UNL     1       6.360   5.557  20.042  0.00  0.00    +0.000 NA
ENDBRANCH   6  13
BRANCH   1  19
ATOM     19  C   UNL     1       4.294   2.346  20.185  0.00  0.00    +0.000 C 
ATOM     20  O   UNL     1       5.122   1.457  20.043  0.00  0.00    +0.000 OA
BRANCH  19  22
ATOM     21  C   UNL     1       2.372   2.485  21.515  0.00  0.00    +0.000 C 
ATOM     22  O   UNL     1       3.770   2.743  21.377  0.00  0.00    +0.000 OA
ENDBRANCH  19  22
ENDBRANCH   1  19
BRANCH   2  23
ATOM     23  O   UNL     1       2.521   1.394  17.985  0.00  0.00    +0.000 OA
ATOM     24  H   UNL     1       3.177   0.822  18.432  0.00  0.00    +0.000 HD
ENDBRANCH   2  23
BRANCH   5  25
ATOM     25  C   UNL     1       3.689   6.923  18.230  0.00  0.00    +0.000 C 
BRANCH  25  26
ATOM     26  C   UNL     1       2.531   7.794  18.704  0.00  0.00    +0.000 A 
ATOM     27  C   UNL     1       2.031   7.720  20.012  0.00  0.00    +0.000 A 
ATOM     28  C   UNL     1       1.030   8.601  20.444  0.00  0.00    +0.000 A 
ATOM     29  C   UNL     1       0.523   9.579  19.588  0.00  0.00    +0.000 A 
ATOM     30  C   UNL     1       0.984   9.632  18.272  0.00  0.00    +0.000 A 
ATOM     31  C   UNL     1       1.976   8.746  17.837  0.00  0.00    +0.000 A 
BRANCH  29  32
ATOM     32  O   UNL     1      -0.432  10.406  20.118  0.00  0.00    +0.000 OA
ATOM     33  C   UNL     1      -1.062  11.295  19.196  0.00  0.00    +0.000 C 
ENDBRANCH  29  32
ENDBRANCH  25  26
ENDBRANCH   5  25
TORSDOF 8
ENDMDL
MODEL 5
REMARK VINA RESULT:      -6.0      3.179      6.091
REMARK  Name = 
REMARK  10 active torsions:
REMARK  status: ('A' for Active; 'I' for Inactive)
REMARK    1  A    between atoms: C_1  and  O_2
REMARK    2  A    between atoms: O_2  and  C_3
REMARK    3  A    between atoms: C_3  and  C_5
REMARK    4  A    between atoms: C_6  and  O_7
REMARK    5  A    between atoms: C_9  and  C_10
REMARK    6  A    between atoms: N_16  and  C_17
REMARK    7  A    between atoms: C_17  and  C_18
REMARK    8  A    between atoms: C_21  and  O_22
REMARK    9  A    between atoms: O_22  and  C_23
REMARK   10  A    between atoms: C_26  and  C_27
REMARK                            x       y       z     vdW  Elec       q    Type
REMARK                         _______ _______ _______ _____ _____    ______ ____
ROOT
ATOM      1  C   UNL     1      -4.709  13.227  21.567  0.00  0.00    +0.000 C 
ATOM      2  C   UNL     1      -5.488  13.016  22.652  0.00  0.00    +0.000 C 
ATOM      3  C   UNL     1      -4.890  12.765  24.014  0.00  0.00    +0.000 C 
ATOM      4  C   UNL     1      -3.415  13.212  24.134  0.00  0.00    +0.000 C 
ATOM      5  N   UNL     1      -2.695  12.685  22.951  0.00  0.00    +0.000 NA
ATOM      6  C   UNL     1      -3.179  13.212  21.640  0.00  0.00    +0.000 C 
ENDROOT
BRANCH   4   7
ATOM      7  C   UNL     1      -3.215  14.703  24.437  0.00  0.00    +0.000 A 
ATOM      8  C   UNL     1      -1.958  15.257  24.688  0.00  0.00    +0.000 A 
ATOM      9  C   UNL     1      -1.856  16.591  25.072  0.00  0.00    +0.000 A 
ATOM     10  C   UNL     1      -3.003  17.360  25.159  0.00  0.00    +0.000 A 
ATOM     11  C   UNL     1      -4.208  16.766  24.830  0.00  0.00    +0.000 A 
ATOM     12  N   UNL     1      -4.340  15.468  24.474  0.00  0.00    +0.000 NA
ENDBRANCH   4   7
BRANCH   6  13
ATOM     13  C   UNL     1      -2.567  14.541  21.107  0.00  0.00    +0.000 A 
ATOM     14  C   UNL     1      -1.427  14.509  20.299  0.00  0.00    +0.000 A 
ATOM     15  C   UNL     1      -0.964  15.681  19.703  0.00  0.00    +0.000 A 
ATOM     16  C   UNL     1      -1.646  16.869  19.920  0.00  0.00    +0.000 A 
ATOM     17  C   UNL     1      -2.766  16.830  20.725  0.00  0.00    +0.000 A 
ATOM     18  N   UNL     1      -3.243  15.706  21.312  0.00  0.00    +0.000 NA
ENDBRANCH   6  13
BRANCH   1  19
ATOM     19  C   UNL     1      -5.242  13.432  20.190  0.00  0.00    +0.000 C 
ATOM     20  O   UNL     1      -6.011  14.332  19.885  0.00  0.00    +0.000 OA
BRANCH  19  22
ATOM     21  C   UNL     1      -5.669  11.565  18.843  0.00  0.00    +0.000 C 
ATOM     22  O   UNL     1      -4.721  12.520  19.323  0.00  0.00    +0.000 OA
ENDBRANCH  19  22
ENDBRANCH   1  19
BRANCH   2  23
ATOM     23  O   UNL     1      -6.868  13.040  22.659  0.00  0.00    +0.000 OA
ATOM     24  H   UNL     1      -7.174  13.393  21.799  0.00  0.00    +0.000 HD
ENDBRANCH   2  23
BRANCH   5  25
ATOM     25  C   UNL     1      -1.249  12.557  23.095  0.00  0.00    +0.000 C 
BRANCH  25  26
ATOM     26  C   UNL     1      -0.657  11.293  22.483  0.00  0.00    +0.000 A 
ATOM     27  C   UNL     1       0.065  11.316  21.281  0.00  0.00    +0.000 A 
ATOM     28  C   UNL     1       0.679  10.153  20.795  0.00  0.00    +0.000 A 
ATOM     29  C   UNL     1       0.598   8.954  21.504  0.00  0.00    +0.000 A 
ATOM     30  C   UNL     1      -0.154   8.912  22.679  0.00  0.00    +0.000 A 
ATOM     31  C   UNL     1      -0.775  10.070  23.160  0.00  0.00    +0.000 A 
BRANCH  29  32
ATOM     32  O   UNL     1       1.256   7.885  20.957  0.00  0.00    +0.000 OA
ATOM     33  C   UNL     1       1.871   8.118  19.690  0.00  0.00    +0.000 C 
ENDBRANCH  29  32
ENDBRANCH  25  26
ENDBRANCH   5  25
TORSDOF 8
ENDMDL
MODEL 6
REMARK VINA RESULT:      -6.0      2.813      5.416
REMARK  Name = 
REMARK  10 active torsions:
REMARK  status: ('A' for Active; 'I' for Inactive)
REMARK    1  A    between atoms: C_1  and  O_2
REMARK    2  A    between atoms: O_2  and  C_3
REMARK    3  A    between atoms: C_3  and  C_5
REMARK    4  A    between atoms: C_6  and  O_7
REMARK    5  A    between atoms: C_9  and  C_10
REMARK    6  A    between atoms: N_16  and  C_17
REMARK    7  A    between atoms: C_17  and  C_18
REMARK    8  A    between atoms: C_21  and  O_22
REMARK    9  A    between atoms: O_22  and  C_23
REMARK   10  A    between atoms: C_26  and  C_27
REMARK                            x       y       z     vdW  Elec       q    Type
REMARK                         _______ _______ _______ _____ _____    ______ ____
ROOT
ATOM      1  C   UNL     1       1.185  13.125  20.271  0.00  0.00    +0.000 C 
ATOM      2  C   UNL     1       1.657  13.113  19.004  0.00  0.00    +0.000 C 
ATOM      3  C   UNL     1       1.746  11.833  18.209  0.00  0.00    +0.000 C 
ATOM      4  C   UNL     1       0.866  10.694  18.772  0.00  0.00    +0.000 C 
ATOM      5  N   UNL     1       1.110  10.623  20.231  0.00  0.00    +0.000 NA
ATOM      6  C   UNL     1       0.726  11.852  20.989  0.00  0.00    +0.000 C 
ENDROOT
BRANCH   4   7
ATOM      7  C   UNL     1      -0.605  10.739  18.335  0.00  0.00    +0.000 A 
ATOM      8  C   UNL     1      -1.489   9.681  18.559  0.00  0.00    +0.000 A 
ATOM      9  C   UNL     1      -2.777   9.736  18.036  0.00  0.00    +0.000 A 
ATOM     10  C   UNL     1      -3.176  10.860  17.334  0.00  0.00    +0.000 A 
ATOM     11  C   UNL     1      -2.272  11.899  17.209  0.00  0.00    +0.000 A 
ATOM     12  N   UNL     1      -1.008  11.867  17.688  0.00  0.00    +0.000 NA
ENDBRANCH   4   7
BRANCH   6  13
ATOM     13  C   UNL     1      -0.742  11.977  21.495  0.00  0.00    +0.000 A 
ATOM     14  C   UNL     1      -1.061  11.609  22.804  0.00  0.00    +0.000 A 
ATOM     15  C   UNL     1      -2.338  11.857  23.305  0.00  0.00    +0.000 A 
ATOM     16  C   UNL     1      -3.279  12.470  22.491  0.00  0.00    +0.000 A 
ATOM     17  C   UNL     1      -2.898  12.812  21.210  0.00  0.00    +0.000 A 
ATOM     18  N   UNL     1      -1.662  12.589  20.698  0.00  0.00    +0.000 NA
ENDBRANCH   6  13
BRANCH   1  19
ATOM     19  C   UNL     1       1.120  14.348  21.120  0.00  0.00    +0.000 C 
ATOM     20  O   UNL     1       0.359  15.282  20.911  0.00  0.00    +0.000 OA
BRANCH  19  22
ATOM     21  C   UNL     1       3.120  15.114  22.068  0.00  0.00    +0.000 C 
ATOM     22  O   UNL     1       1.979  14.260  22.173  0.00  0.00    +0.000 OA
ENDBRANCH  19  22
ENDBRANCH   1  19
BRANCH   2  23
ATOM     23  O   UNL     1       2.064  14.225  18.295  0.00  0.00    +0.000 OA
ATOM     24  H   UNL     1       2.922  14.524  18.657  0.00  0.00    +0.000 HD
ENDBRANCH   2  23
BRANCH   5  25
ATOM     25  C   UNL     1       0.787   9.352  20.867  0.00  0.00    +0.000 C 
BRANCH  25  26
ATOM     26  C   UNL     1       1.479   8.138  20.258  0.00  0.00    +0.000 A 
ATOM     27  C   UNL     1       1.457   6.880  20.877  0.00  0.00    +0.000 A 
ATOM     28  C   UNL     1       2.021   5.764  20.243  0.00  0.00    +0.000 A 
ATOM     29  C   UNL     1       2.600   5.877  18.979  0.00  0.00    +0.000 A 
ATOM     30  C   UNL     1       2.664   7.133  18.375  0.00  0.00    +0.000 A 
ATOM     31  C   UNL     1       2.110   8.251  19.010  0.00  0.00    +0.000 A 
BRANCH  29  32
ATOM     32  O   UNL     1       3.096   4.721  18.438  0.00  0.00    +0.000 OA
ATOM     33  C   UNL     1       2.125   3.809  17.926  0.00  0.00    +0.000 C 
ENDBRANCH  29  32
ENDBRANCH  25  26
ENDBRANCH   5  25
TORSDOF 8
ENDMDL
MODEL 7
REMARK VINA RESULT:      -6.0      3.158      6.268
REMARK  Name = 
REMARK  10 active torsions:
REMARK  status: ('A' for Active; 'I' for Inactive)
REMARK    1  A    between atoms: C_1  and  O_2
REMARK    2  A    between atoms: O_2  and  C_3
REMARK    3  A    between atoms: C_3  and  C_5
REMARK    4  A    between atoms: C_6  and  O_7
REMARK    5  A    between atoms: C_9  and  C_10
REMARK    6  A    between atoms: N_16  and  C_17
REMARK    7  A    between atoms: C_17  and  C_18
REMARK    8  A    between atoms: C_21  and  O_22
REMARK    9  A    between atoms: O_22  and  C_23
REMARK   10  A    between atoms: C_26  and  C_27
REMARK                            x       y       z     vdW  Elec       q    Type
REMARK                         _______ _______ _______ _____ _____    ______ ____
ROOT
ATOM      1  C   UNL     1      -4.955  13.085  21.640  0.00  0.00    +0.000 C 
ATOM      2  C   UNL     1      -5.673  12.858  22.763  0.00  0.00    +0.000 C 
ATOM      3  C   UNL     1      -5.007  12.730  24.111  0.00  0.00    +0.000 C 
ATOM      4  C   UNL     1      -3.576  13.315  24.152  0.00  0.00    +0.000 C 
ATOM      5  N   UNL     1      -2.852  12.799  22.967  0.00  0.00    +0.000 NA
ATOM      6  C   UNL     1      -3.429  13.213  21.653  0.00  0.00    +0.000 C 
ENDROOT
BRANCH   4   7
ATOM      7  C   UNL     1      -3.506  14.832  24.378  0.00  0.00    +0.000 A 
ATOM      8  C   UNL     1      -2.298  15.509  24.562  0.00  0.00    +0.000 A 
ATOM      9  C   UNL     1      -2.309  16.864  24.879  0.00  0.00    +0.000 A 
ATOM     10  C   UNL     1      -3.519  17.530  24.965  0.00  0.00    +0.000 A 
ATOM     11  C   UNL     1      -4.672  16.813  24.704  0.00  0.00    +0.000 A 
ATOM     12  N   UNL     1      -4.695  15.493  24.414  0.00  0.00    +0.000 NA
ENDBRANCH   4   7
BRANCH   6  13
ATOM     13  C   UNL     1      -2.962  14.564  21.035  0.00  0.00    +0.000 A 
ATOM     14  C   UNL     1      -3.749  15.709  21.188  0.00  0.00    +0.000 A 
ATOM     15  C   UNL     1      -3.267  16.947  20.764  0.00  0.00    +0.000 A 
ATOM     16  C   UNL     1      -2.004  17.024  20.196  0.00  0.00    +0.000 A 
ATOM     17  C   UNL     1      -1.277  15.858  20.079  0.00  0.00    +0.000 A 
ATOM     18  N   UNL     1      -1.718  14.642  20.487  0.00  0.00    +0.000 NA
ENDBRANCH   6  13
BRANCH   1  19
ATOM     19  C   UNL     1      -5.552  13.172  20.277  0.00  0.00    +0.000 C 
ATOM     20  O   UNL     1      -6.491  13.901  19.990  0.00  0.00    +0.000 OA
BRANCH  19  22
ATOM     21  C   UNL     1      -5.715  11.418  18.733  0.00  0.00    +0.000 C 
ATOM     22  O   UNL     1      -4.886  12.372  19.399  0.00  0.00    +0.000 OA
ENDBRANCH  19  22
ENDBRANCH   1  19
BRANCH   2  23
ATOM     23  O   UNL     1      -7.048  12.756  22.823  0.00  0.00    +0.000 OA
ATOM     24  H   UNL     1      -7.430  13.642  22.659  0.00  0.00    +0.000 HD
ENDBRANCH   2  23
BRANCH   5  25
ATOM     25  C   UNL     1      -1.397  12.810  23.060  0.00  0.00    +0.000 C 
BRANCH  25  26
ATOM     26  C   UNL     1      -0.717  11.530  22.587  0.00  0.00    +0.000 A 
ATOM     27  C   UNL     1      -0.942  10.294  23.211  0.00  0.00    +0.000 A 
ATOM     28  C   UNL     1      -0.376   9.121  22.692  0.00  0.00    +0.000 A 
ATOM     29  C   UNL     1       0.406   9.155  21.538  0.00  0.00    +0.000 A 
ATOM     30  C   UNL     1       0.670  10.386  20.936  0.00  0.00    +0.000 A 
ATOM     31  C   UNL     1       0.114  11.560  21.458  0.00  0.00    +0.000 A 
BRANCH  29  32
ATOM     32  O   UNL     1       0.887   7.950  21.100  0.00  0.00    +0.000 OA
ATOM     33  C   UNL     1       1.828   8.011  20.029  0.00  0.00    +0.000 C 
ENDBRANCH  29  32
ENDBRANCH  25  26
ENDBRANCH   5  25
TORSDOF 8
ENDMDL
MODEL 8
REMARK VINA RESULT:      -6.0      3.519      6.321
REMARK  Name = 
REMARK  10 active torsions:
REMARK  status: ('A' for Active; 'I' for Inactive)
REMARK    1  A    between atoms: C_1  and  O_2
REMARK    2  A    between atoms: O_2  and  C_3
REMARK    3  A    between atoms: C_3  and  C_5
REMARK    4  A    between atoms: C_6  and  O_7
REMARK    5  A    between atoms: C_9  and  C_10
REMARK    6  A    between atoms: N_16  and  C_17
REMARK    7  A    between atoms: C_17  and  C_18
REMARK    8  A    between atoms: C_21  and  O_22
REMARK    9  A    between atoms: O_22  and  C_23
REMARK   10  A    between atoms: C_26  and  C_27
REMARK                            x       y       z     vdW  Elec       q    Type
REMARK                         _______ _______ _______ _____ _____    ______ ____
ROOT
ATOM      1  C   UNL     1      -5.001  13.015  21.497  0.00  0.00    +0.000 C 
ATOM      2  C   UNL     1      -5.782  12.808  22.582  0.00  0.00    +0.000 C 
ATOM      3  C   UNL     1      -5.193  12.700  23.967  0.00  0.00    +0.000 C 
ATOM      4  C   UNL     1      -3.766  13.283  24.079  0.00  0.00    +0.000 C 
ATOM      5  N   UNL     1      -2.977  12.746  22.946  0.00  0.00    +0.000 NA
ATOM      6  C   UNL     1      -3.477  13.140  21.595  0.00  0.00    +0.000 C 
ENDROOT
BRANCH   4   7
ATOM      7  C   UNL     1      -3.703  14.802  24.285  0.00  0.00    +0.000 A 
ATOM      8  C   UNL     1      -2.507  15.479  24.531  0.00  0.00    +0.000 A 
ATOM      9  C   UNL     1      -2.531  16.839  24.825  0.00  0.00    +0.000 A 
ATOM     10  C   UNL     1      -3.742  17.510  24.828  0.00  0.00    +0.000 A 
ATOM     11  C   UNL     1      -4.880  16.792  24.508  0.00  0.00    +0.000 A 
ATOM     12  N   UNL     1      -4.890  15.467  24.239  0.00  0.00    +0.000 NA
ENDBRANCH   4   7
BRANCH   6  13
ATOM     13  C   UNL     1      -2.973  14.481  20.983  0.00  0.00    +0.000 A 
ATOM     14  C   UNL     1      -3.738  15.641  21.121  0.00  0.00    +0.000 A 
ATOM     15  C   UNL     1      -3.223  16.868  20.704  0.00  0.00    +0.000 A 
ATOM     16  C   UNL     1      -1.950  16.919  20.156  0.00  0.00    +0.000 A 
ATOM     17  C   UNL     1      -1.245  15.737  20.054  0.00  0.00    +0.000 A 
ATOM     18  N   UNL     1      -1.718  14.531  20.456  0.00  0.00    +0.000 NA
ENDBRANCH   6  13
BRANCH   1  19
ATOM     19  C   UNL     1      -5.520  13.081  20.102  0.00  0.00    +0.000 C 
ATOM     20  O   UNL     1      -5.098  12.392  19.185  0.00  0.00    +0.000 OA
BRANCH  19  22
ATOM     21  C   UNL     1      -7.508  13.642  18.997  0.00  0.00    +0.000 C 
ATOM     22  O   UNL     1      -6.549  13.969  20.004  0.00  0.00    +0.000 OA
ENDBRANCH  19  22
ENDBRANCH   1  19
BRANCH   2  23
ATOM     23  O   UNL     1      -7.159  12.710  22.566  0.00  0.00    +0.000 OA
ATOM     24  H   UNL     1      -7.529  13.503  23.002  0.00  0.00    +0.000 HD
ENDBRANCH   2  23
BRANCH   5  25
ATOM     25  C   UNL     1      -1.530  12.755  23.120  0.00  0.00    +0.000 C 
BRANCH  25  26
ATOM     26  C   UNL     1      -0.811  11.533  22.561  0.00  0.00    +0.000 A 
ATOM     27  C   UNL     1      -0.016  11.601  21.407  0.00  0.00    +0.000 A 
ATOM     28  C   UNL     1       0.709  10.481  20.974  0.00  0.00    +0.000 A 
ATOM     29  C   UNL     1       0.667   9.284  21.688  0.00  0.00    +0.000 A 
ATOM     30  C   UNL     1      -0.156   9.195  22.812  0.00  0.00    +0.000 A 
ATOM     31  C   UNL     1      -0.887  10.309  23.241  0.00  0.00    +0.000 A 
BRANCH  29  32
ATOM     32  O   UNL     1       1.432   8.261  21.195  0.00  0.00    +0.000 OA
ATOM     33  C   UNL     1       1.712   8.314  19.797  0.00  0.00    +0.000 C 
ENDBRANCH  29  32
ENDBRANCH  25  26
ENDBRANCH   5  25
TORSDOF 8
ENDMDL
MODEL 9
REMARK VINA RESULT:      -5.9      0.518      1.218
REMARK  Name = 
REMARK  10 active torsions:
REMARK  status: ('A' for Active; 'I' for Inactive)
REMARK    1  A    between atoms: C_1  and  O_2
REMARK    2  A    between atoms: O_2  and  C_3
REMARK    3  A    between atoms: C_3  and  C_5
REMARK    4  A    between atoms: C_6  and  O_7
REMARK    5  A    between atoms: C_9  and  C_10
REMARK    6  A    between atoms: N_16  and  C_17
REMARK    7  A    between atoms: C_17  and  C_18
REMARK    8  A    between atoms: C_21  and  O_22
REMARK    9  A    between atoms: O_22  and  C_23
REMARK   10  A    between atoms: C_26  and  C_27
REMARK                            x       y       z     vdW  Elec       q    Type
REMARK                         _______ _______ _______ _____ _____    ______ ____
ROOT
ATOM      1  C   UNL     1       0.177  13.628  20.216  0.00  0.00    +0.000 C 
ATOM      2  C   UNL     1      -0.266  14.898  20.359  0.00  0.00    +0.000 C 
ATOM      3  C   UNL     1      -1.737  15.229  20.303  0.00  0.00    +0.000 C 
ATOM      4  C   UNL     1      -2.656  14.006  20.528  0.00  0.00    +0.000 C 
ATOM      5  N   UNL     1      -2.158  12.912  19.663  0.00  0.00    +0.000 NA
ATOM      6  C   UNL     1      -0.773  12.449  19.976  0.00  0.00    +0.000 C 
ENDROOT
BRANCH   4   7
ATOM      7  C   UNL     1      -2.901  13.645  21.999  0.00  0.00    +0.000 A 
ATOM      8  C   UNL     1      -3.770  12.624  22.388  0.00  0.00    +0.000 A 
ATOM      9  C   UNL     1      -4.038  12.422  23.739  0.00  0.00    +0.000 A 
ATOM     10  C   UNL     1      -3.403  13.214  24.680  0.00  0.00    +0.000 A 
ATOM     11  C   UNL     1      -2.503  14.161  24.229  0.00  0.00    +0.000 A 
ATOM     12  N   UNL     1      -2.238  14.393  22.924  0.00  0.00    +0.000 NA
ENDBRANCH   4   7
BRANCH   6  13
ATOM     13  C   UNL     1      -0.592  11.340  21.054  0.00  0.00    +0.000 A 
ATOM     14  C   UNL     1      -0.730  11.654  22.408  0.00  0.00    +0.000 A 
ATOM     15  C   UNL     1      -0.713  10.640  23.364  0.00  0.00    +0.000 A 
ATOM     16  C   UNL     1      -0.560   9.324  22.953  0.00  0.00    +0.000 A 
ATOM     17  C   UNL     1      -0.434   9.081  21.601  0.00  0.00    +0.000 A 
ATOM     18  N   UNL     1      -0.452  10.047  20.650  0.00  0.00    +0.000 NA
ENDBRANCH   6  13
BRANCH   1  19
ATOM     19  C   UNL     1       1.617  13.247  20.213  0.00  0.00    +0.000 C 
ATOM     20  O   UNL     1       2.177  12.706  19.271  0.00  0.00    +0.000 OA
BRANCH  19  22
ATOM     21  C   UNL     1       3.570  14.076  21.205  0.00  0.00    +0.000 C 
ATOM     22  O   UNL     1       2.226  13.625  21.372  0.00  0.00    +0.000 OA
ENDBRANCH  19  22
ENDBRANCH   1  19
BRANCH   2  23
ATOM     23  O   UNL     1       0.532  15.998  20.600  0.00  0.00    +0.000 OA
ATOM     24  H   UNL     1       0.021  16.636  21.137  0.00  0.00    +0.000 HD
ENDBRANCH   2  23
BRANCH   5  25
ATOM     25  C   UNL     1      -3.124  11.869  19.341  0.00  0.00    +0.000 C 
BRANCH  25  26
ATOM     26  C   UNL     1      -3.043  11.341  17.913  0.00  0.00    +0.000 A 
ATOM     27  C   UNL     1      -2.021  10.475  17.497  0.00  0.00    +0.000 A 
ATOM     28  C   UNL     1      -2.030   9.932  16.205  0.00  0.00    +0.000 A 
ATOM     29  C   UNL     1      -3.061  10.227  15.313  0.00  0.00    +0.000 A 
ATOM     30  C   UNL     1      -4.058  11.122  15.704  0.00  0.00    +0.000 A 
ATOM     31  C   UNL     1      -4.046  11.673  16.991  0.00  0.00    +0.000 A 
BRANCH  29  32
ATOM     32  O   UNL     1      -2.989   9.623  14.086  0.00  0.00    +0.000 OA
ATOM     33  C   UNL     1      -4.051   9.925  13.183  0.00  0.00    +0.000 C 
ENDBRANCH  29  32
ENDBRANCH  25  26
ENDBRANCH   5  25
TORSDOF 8
ENDMDL
