MODEL 1
REMARK VINA RESULT:      -8.6      0.000      0.000
REMARK  Name = 
REMARK  9 active torsions:
REMARK  status: ('A' for Active; 'I' for Inactive)
REMARK    1  A    between atoms: C_2  and  C_19
REMARK    2  A    between atoms: N_3  and  C_4
REMARK    3  A    between atoms: C_4  and  C_5
REMARK    4  A    between atoms: C_5  and  C_6
REMARK    5  A    between atoms: C_6  and  N_7
REMARK    6  A    between atoms: N_10  and  C_11
REMARK    7  A    between atoms: C_24  and  C_25
REMARK    8  A    between atoms: C_25  and  C_26
REMARK    9  A    between atoms: C_26  and  C_27
REMARK                            x       y       z     vdW  Elec       q    Type
REMARK                         _______ _______ _______ _____ _____    ______ ____
ROOT
ATOM      1  O   UNL     1       2.148   8.474  19.009  0.00  0.00    +0.000 OA
ATOM      2  C   UNL     1       1.481   8.313  20.025  0.00  0.00    +0.000 C 
ATOM      3  N   UNL     1       1.532   7.169  20.802  0.00  0.00    +0.000 N 
ATOM      4  H   UNL     1       0.847   7.034  21.542  0.00  0.00    +0.000 HD
ENDROOT
BRANCH   2   5
ATOM      5  C   UNL     1       0.535   9.389  20.487  0.00  0.00    +0.000 A 
ATOM      6  C   UNL     1       0.133  10.364  19.560  0.00  0.00    +0.000 A 
ATOM      7  C   UNL     1      -0.704  11.418  19.938  0.00  0.00    +0.000 A 
ATOM      8  C   UNL     1      -1.165  11.477  21.256  0.00  0.00    +0.000 A 
ATOM      9  N   UNL     1      -1.976  12.399  21.844  0.00  0.00    +0.000 NA
ATOM     10  C   UNL     1      -2.184  11.929  23.061  0.00  0.00    +0.000 A 
ATOM     11  O   UNL     1      -1.508  10.751  23.336  0.00  0.00    +0.000 OA
ATOM     12  C   UNL     1      -0.829  10.473  22.153  0.00  0.00    +0.000 A 
ATOM     13  C   UNL     1       0.025   9.406  21.814  0.00  0.00    +0.000 A 
BRANCH  10  14
ATOM     14  C   UNL     1      -3.249  12.488  23.954  0.00  0.00    +0.000 C 
BRANCH  14  15
ATOM     15  C   UNL     1      -4.076  13.699  23.539  0.00  0.00    +0.000 C 
BRANCH  15  16
ATOM     16  C   UNL     1      -5.434  13.212  23.035  0.00  0.00    +0.000 A 
ATOM     17  C   UNL     1      -6.516  13.039  23.915  0.00  0.00    +0.000 A 
ATOM     18  C   UNL     1      -7.722  12.476  23.475  0.00  0.00    +0.000 A 
ATOM     19  C   UNL     1      -7.866  12.080  22.146  0.00  0.00    +0.000 A 
ATOM     20  C   UNL     1      -6.807  12.251  21.259  0.00  0.00    +0.000 A 
ATOM     21  C   UNL     1      -5.602  12.812  21.700  0.00  0.00    +0.000 A 
ENDBRANCH  15  16
ENDBRANCH  14  15
ENDBRANCH  10  14
ENDBRANCH   2   5
BRANCH   3  22
ATOM     22  C   UNL     1       2.384   6.018  20.531  0.00  0.00    +0.000 C 
BRANCH  22  23
ATOM     23  C   UNL     1       1.621   4.706  20.350  0.00  0.00    +0.000 C 
BRANCH  23  24
ATOM     24  C   UNL     1       2.289   3.448  20.936  0.00  0.00    +0.000 C 
BRANCH  24  25
ATOM     25  N   UNL     1       2.710   2.406  19.981  0.00  0.00    +0.000 NA
ATOM     26  C   UNL     1       2.290   2.669  18.585  0.00  0.00    +0.000 C 
ATOM     27  C   UNL     1       2.980   3.854  17.865  0.00  0.00    +0.000 C 
ATOM     28  N   UNL     1       4.447   3.805  18.010  0.00  0.00    +0.000 N 
ATOM     29  C   UNL     1       4.953   3.498  19.355  0.00  0.00    +0.000 C 
ATOM     30  C   UNL     1       4.196   2.286  19.959  0.00  0.00    +0.000 C 
BRANCH  28  31
ATOM     31  C   UNL     1       5.270   4.083  16.932  0.00  0.00    +0.000 A 
ATOM     32  C   UNL     1       6.596   4.515  17.112  0.00  0.00    +0.000 A 
ATOM     33  C   UNL     1       7.396   4.948  16.048  0.00  0.00    +0.000 A 
ATOM     34  C   UNL     1       6.896   4.927  14.754  0.00  0.00    +0.000 A 
ATOM     35  C   UNL     1       5.615   4.441  14.529  0.00  0.00    +0.000 A 
ATOM     36  C   UNL     1       4.820   4.020  15.604  0.00  0.00    +0.000 A 
ENDBRANCH  28  31
ENDBRANCH  24  25
ENDBRANCH  23  24
ENDBRANCH  22  23
ENDBRANCH   3  22
TORSDOF 9
ENDMDL
MODEL 2
REMARK VINA RESULT:      -8.4      2.333     11.072
REMARK  Name = 
REMARK  9 active torsions:
REMARK  status: ('A' for Active; 'I' for Inactive)
REMARK    1  A    between atoms: C_2  and  C_19
REMARK    2  A    between atoms: N_3  and  C_4
REMARK    3  A    between atoms: C_4  and  C_5
REMARK    4  A    between atoms: C_5  and  C_6
REMARK    5  A    between atoms: C_6  and  N_7
REMARK    6  A    between atoms: N_10  and  C_11
REMARK    7  A    between atoms: C_24  and  C_25
REMARK    8  A    between atoms: C_25  and  C_26
REMARK    9  A    between atoms: C_26  and  C_27
REMARK                            x       y       z     vdW  Elec       q    Type
REMARK                         _______ _______ _______ _____ _____    ______ ____
ROOT
ATOM      1  O   UNL     1      -0.027   9.740  23.890  0.00  0.00    +0.000 OA
ATOM      2  C   UNL     1      -0.266  10.037  22.725  0.00  0.00    +0.000 C 
ATOM      3  N   UNL     1      -1.204  10.983  22.351  0.00  0.00    +0.000 N 
ATOM      4  H   UNL     1      -1.463  11.074  21.371  0.00  0.00    +0.000 HD
ENDROOT
BRANCH   2   5
ATOM      5  C   UNL     1       0.474   9.356  21.605  0.00  0.00    +0.000 A 
ATOM      6  C   UNL     1       0.652  10.057  20.402  0.00  0.00    +0.000 A 
ATOM      7  C   UNL     1       1.287   9.463  19.307  0.00  0.00    +0.000 A 
ATOM      8  C   UNL     1       1.775   8.160  19.432  0.00  0.00    +0.000 A 
ATOM      9  N   UNL     1       2.418   7.388  18.513  0.00  0.00    +0.000 NA
ATOM     10  C   UNL     1       2.753   6.295  19.174  0.00  0.00    +0.000 A 
ATOM     11  O   UNL     1       2.322   6.275  20.491  0.00  0.00    +0.000 OA
ATOM     12  C   UNL     1       1.667   7.494  20.645  0.00  0.00    +0.000 A 
ATOM     13  C   UNL     1       1.018   8.052  21.764  0.00  0.00    +0.000 A 
BRANCH  10  14
ATOM     14  C   UNL     1       3.724   5.300  18.617  0.00  0.00    +0.000 C 
BRANCH  14  15
ATOM     15  C   UNL     1       3.492   4.639  17.263  0.00  0.00    +0.000 C 
BRANCH  15  16
ATOM     16  C   UNL     1       4.827   4.564  16.522  0.00  0.00    +0.000 A 
ATOM     17  C   UNL     1       6.046   4.552  17.221  0.00  0.00    +0.000 A 
ATOM     18  C   UNL     1       7.270   4.609  16.540  0.00  0.00    +0.000 A 
ATOM     19  C   UNL     1       7.294   4.677  15.148  0.00  0.00    +0.000 A 
ATOM     20  C   UNL     1       6.095   4.683  14.439  0.00  0.00    +0.000 A 
ATOM     21  C   UNL     1       4.873   4.628  15.121  0.00  0.00    +0.000 A 
ENDBRANCH  15  16
ENDBRANCH  14  15
ENDBRANCH  10  14
ENDBRANCH   2   5
BRANCH   3  22
ATOM     22  C   UNL     1      -2.019  11.756  23.280  0.00  0.00    +0.000 C 
BRANCH  22  23
ATOM     23  C   UNL     1      -1.982  13.265  23.033  0.00  0.00    +0.000 C 
BRANCH  23  24
ATOM     24  C   UNL     1      -3.321  13.919  22.641  0.00  0.00    +0.000 C 
BRANCH  24  25
ATOM     25  N   UNL     1      -3.395  14.545  21.307  0.00  0.00    +0.000 NA
ATOM     26  C   UNL     1      -2.186  14.332  20.478  0.00  0.00    +0.000 C 
ATOM     27  C   UNL     1      -1.933  12.888  19.979  0.00  0.00    +0.000 C 
ATOM     28  N   UNL     1      -3.140  12.297  19.372  0.00  0.00    +0.000 N 
ATOM     29  C   UNL     1      -4.397  12.505  20.103  0.00  0.00    +0.000 C 
ATOM     30  C   UNL     1      -4.541  13.988  20.532  0.00  0.00    +0.000 C 
BRANCH  28  31
ATOM     31  C   UNL     1      -3.051  11.556  18.206  0.00  0.00    +0.000 A 
ATOM     32  C   UNL     1      -4.025  11.654  17.196  0.00  0.00    +0.000 A 
ATOM     33  C   UNL     1      -4.039  10.807  16.082  0.00  0.00    +0.000 A 
ATOM     34  C   UNL     1      -3.046   9.851  15.928  0.00  0.00    +0.000 A 
ATOM     35  C   UNL     1      -2.028   9.771  16.868  0.00  0.00    +0.000 A 
ATOM     36  C   UNL     1      -2.031  10.618  17.985  0.00  0.00    +0.000 A 
ENDBRANCH  28  31
ENDBRANCH  24  25
ENDBRANCH  23  24
ENDBRANCH  22  23
ENDBRANCH   3  22
TORSDOF 9
ENDMDL
MODEL 3
REMARK VINA RESULT:      -8.3      1.142      1.389
REMARK  Name = 
REMARK  9 active torsions:
REMARK  status: ('A' for Active; 'I' for Inactive)
REMARK    1  A    between atoms: C_2  and  C_19
REMARK    2  A    between atoms: N_3  and  C_4
REMARK    3  A    between atoms: C_4  and  C_5
REMARK    4  A    between atoms: C_5  and  C_6
REMARK    5  A    between atoms: C_6  and  N_7
REMARK    6  A    between atoms: N_10  and  C_11
REMARK    7  A    between atoms: C_24  and  C_25
REMARK    8  A    between atoms: C_25  and  C_26
REMARK    9  A    between atoms: C_26  and  C_27
REMARK                            x       y       z     vdW  Elec       q    Type
REMARK                         _______ _______ _______ _____ _____    ______ ____
ROOT
ATOM      1  O   UNL     1       2.373   7.795  19.182  0.00  0.00    +0.000 OA
ATOM      2  C   UNL     1       1.657   7.795  20.177  0.00  0.00    +0.000 C 
ATOM      3  N   UNL     1       1.512   6.705  21.016  0.00  0.00    +0.000 N 
ATOM      4  H   UNL     1       0.791   6.716  21.735  0.00  0.00    +0.000 HD
ENDROOT
BRANCH   2   5
ATOM      5  C   UNL     1       0.868   9.024  20.541  0.00  0.00    +0.000 A 
ATOM      6  C   UNL     1       0.502   9.908  19.513  0.00  0.00    +0.000 A 
ATOM      7  C   UNL     1      -0.188  11.092  19.791  0.00  0.00    +0.000 A 
ATOM      8  C   UNL     1      -0.539  11.377  21.113  0.00  0.00    +0.000 A 
ATOM      9  N   UNL     1      -1.201  12.455  21.616  0.00  0.00    +0.000 NA
ATOM     10  C   UNL     1      -1.365  12.177  22.896  0.00  0.00    +0.000 A 
ATOM     11  O   UNL     1      -0.798  10.975  23.291  0.00  0.00    +0.000 OA
ATOM     12  C   UNL     1      -0.244  10.467  22.119  0.00  0.00    +0.000 A 
ATOM     13  C   UNL     1       0.465   9.274  21.882  0.00  0.00    +0.000 A 
BRANCH  10  14
ATOM     14  C   UNL     1      -2.294  12.967  23.765  0.00  0.00    +0.000 C 
BRANCH  14  15
ATOM     15  C   UNL     1      -3.769  12.605  23.883  0.00  0.00    +0.000 C 
BRANCH  15  16
ATOM     16  C   UNL     1      -4.545  13.364  22.806  0.00  0.00    +0.000 A 
ATOM     17  C   UNL     1      -4.749  14.751  22.899  0.00  0.00    +0.000 A 
ATOM     18  C   UNL     1      -5.564  15.424  21.979  0.00  0.00    +0.000 A 
ATOM     19  C   UNL     1      -6.187  14.721  20.949  0.00  0.00    +0.000 A 
ATOM     20  C   UNL     1      -5.990  13.347  20.838  0.00  0.00    +0.000 A 
ATOM     21  C   UNL     1      -5.176  12.674  21.759  0.00  0.00    +0.000 A 
ENDBRANCH  15  16
ENDBRANCH  14  15
ENDBRANCH  10  14
ENDBRANCH   2   5
BRANCH   3  22
ATOM     22  C   UNL     1       2.192   5.427  20.844  0.00  0.00    +0.000 C 
BRANCH  22  23
ATOM     23  C   UNL     1       1.250   4.249  20.593  0.00  0.00    +0.000 C 
BRANCH  23  24
ATOM     24  C   UNL     1       1.880   2.847  20.688  0.00  0.00    +0.000 C 
BRANCH  24  25
ATOM     25  N   UNL     1       2.053   2.102  19.427  0.00  0.00    +0.000 NA
ATOM     26  C   UNL     1       1.580   2.835  18.230  0.00  0.00    +0.000 C 
ATOM     27  C   UNL     1       2.400   4.080  17.810  0.00  0.00    +0.000 C 
ATOM     28  N   UNL     1       3.845   3.794  17.758  0.00  0.00    +0.000 N 
ATOM     29  C   UNL     1       4.392   3.024  18.883  0.00  0.00    +0.000 C 
ATOM     30  C   UNL     1       3.494   1.798  19.193  0.00  0.00    +0.000 C 
BRANCH  28  31
ATOM     31  C   UNL     1       4.621   4.278  16.718  0.00  0.00    +0.000 A 
ATOM     32  C   UNL     1       5.261   3.412  15.814  0.00  0.00    +0.000 A 
ATOM     33  C   UNL     1       6.170   3.868  14.853  0.00  0.00    +0.000 A 
ATOM     34  C   UNL     1       6.440   5.225  14.745  0.00  0.00    +0.000 A 
ATOM     35  C   UNL     1       5.774   6.118  15.575  0.00  0.00    +0.000 A 
ATOM     36  C   UNL     1       4.874   5.647  16.541  0.00  0.00    +0.000 A 
ENDBRANCH  28  31
ENDBRANCH  24  25
ENDBRANCH  23  24
ENDBRANCH  22  23
ENDBRANCH   3  22
TORSDOF 9
ENDMDL
MODEL 4
REMARK VINA RESULT:      -8.3      1.038      1.572
REMARK  Name = 
REMARK  9 active torsions:
REMARK  status: ('A' for Active; 'I' for Inactive)
REMARK    1  A    between atoms: C_2  and  C_19
REMARK    2  A    between atoms: N_3  and  C_4
REMARK    3  A    between atoms: C_4  and  C_5
REMARK    4  A    between atoms: C_5  and  C_6
REMARK    5  A    between atoms: C_6  and  N_7
REMARK    6  A    between atoms: N_10  and  C_11
REMARK    7  A    between atoms: C_24  and  C_25
REMARK    8  A    between atoms: C_25  and  C_26
REMARK    9  A    between atoms: C_26  and  C_27
REMARK                            x       y       z     vdW  Elec       q    Type
REMARK                         _______ _______ _______ _____ _____    ______ ____
ROOT
ATOM      1  O   UNL     1       1.953   8.600  19.415  0.00  0.00    +0.000 OA
ATOM      2  C   UNL     1       1.375   8.233  20.432  0.00  0.00    +0.000 C 
ATOM      3  N   UNL     1       1.471   6.954  20.950  0.00  0.00    +0.000 N 
ATOM      4  H   UNL     1       0.852   6.670  21.706  0.00  0.00    +0.000 HD
ENDROOT
BRANCH   2   5
ATOM      5  C   UNL     1       0.495   9.193  21.189  0.00  0.00    +0.000 A 
ATOM      6  C   UNL     1       0.477   9.114  22.590  0.00  0.00    +0.000 A 
ATOM      7  C   UNL     1      -0.355   9.944  23.348  0.00  0.00    +0.000 A 
ATOM      8  C   UNL     1      -1.156  10.883  22.692  0.00  0.00    +0.000 A 
ATOM      9  N   UNL     1      -2.034  11.782  23.215  0.00  0.00    +0.000 NA
ATOM     10  C   UNL     1      -2.439  12.492  22.178  0.00  0.00    +0.000 A 
ATOM     11  O   UNL     1      -1.907  12.079  20.967  0.00  0.00    +0.000 OA
ATOM     12  C   UNL     1      -1.081  11.012  21.312  0.00  0.00    +0.000 A 
ATOM     13  C   UNL     1      -0.270  10.184  20.513  0.00  0.00    +0.000 A 
BRANCH  10  14
ATOM     14  C   UNL     1      -3.196  13.774  22.343  0.00  0.00    +0.000 C 
BRANCH  14  15
ATOM     15  C   UNL     1      -4.435  14.076  21.511  0.00  0.00    +0.000 C 
BRANCH  15  16
ATOM     16  C   UNL     1      -5.658  14.042  22.427  0.00  0.00    +0.000 A 
ATOM     17  C   UNL     1      -6.486  15.169  22.574  0.00  0.00    +0.000 A 
ATOM     18  C   UNL     1      -7.533  15.179  23.506  0.00  0.00    +0.000 A 
ATOM     19  C   UNL     1      -7.770  14.061  24.305  0.00  0.00    +0.000 A 
ATOM     20  C   UNL     1      -6.964  12.934  24.167  0.00  0.00    +0.000 A 
ATOM     21  C   UNL     1      -5.917  12.925  23.236  0.00  0.00    +0.000 A 
ENDBRANCH  15  16
ENDBRANCH  14  15
ENDBRANCH  10  14
ENDBRANCH   2   5
BRANCH   3  22
ATOM     22  C   UNL     1       2.274   5.883  20.373  0.00  0.00    +0.000 C 
BRANCH  22  23
ATOM     23  C   UNL     1       1.560   4.532  20.315  0.00  0.00    +0.000 C 
BRANCH  23  24
ATOM     24  C   UNL     1       2.350   3.325  20.854  0.00  0.00    +0.000 C 
BRANCH  24  25
ATOM     25  N   UNL     1       2.772   2.307  19.874  0.00  0.00    +0.000 NA
ATOM     26  C   UNL     1       2.332   2.593  18.489  0.00  0.00    +0.000 C 
ATOM     27  C   UNL     1       3.000   3.800  17.784  0.00  0.00    +0.000 C 
ATOM     28  N   UNL     1       4.469   3.766  17.911  0.00  0.00    +0.000 N 
ATOM     29  C   UNL     1       4.994   3.438  19.244  0.00  0.00    +0.000 C 
ATOM     30  C   UNL     1       4.259   2.205  19.832  0.00  0.00    +0.000 C 
BRANCH  28  31
ATOM     31  C   UNL     1       5.277   4.075  16.830  0.00  0.00    +0.000 A 
ATOM     32  C   UNL     1       6.544   4.658  17.001  0.00  0.00    +0.000 A 
ATOM     33  C   UNL     1       7.311   5.119  15.925  0.00  0.00    +0.000 A 
ATOM     34  C   UNL     1       6.840   4.975  14.629  0.00  0.00    +0.000 A 
ATOM     35  C   UNL     1       5.623   4.342  14.415  0.00  0.00    +0.000 A 
ATOM     36  C   UNL     1       4.859   3.894  15.502  0.00  0.00    +0.000 A 
ENDBRANCH  28  31
ENDBRANCH  24  25
ENDBRANCH  23  24
ENDBRANCH  22  23
ENDBRANCH   3  22
TORSDOF 9
ENDMDL
MODEL 5
REMARK VINA RESULT:      -8.2      4.959     10.383
REMARK  Name = 
REMARK  9 active torsions:
REMARK  status: ('A' for Active; 'I' for Inactive)
REMARK    1  A    between atoms: C_2  and  C_19
REMARK    2  A    between atoms: N_3  and  C_4
REMARK    3  A    between atoms: C_4  and  C_5
REMARK    4  A    between atoms: C_5  and  C_6
REMARK    5  A    between atoms: C_6  and  N_7
REMARK    6  A    between atoms: N_10  and  C_11
REMARK    7  A    between atoms: C_24  and  C_25
REMARK    8  A    between atoms: C_25  and  C_26
REMARK    9  A    between atoms: C_26  and  C_27
REMARK                            x       y       z     vdW  Elec       q    Type
REMARK                         _______ _______ _______ _____ _____    ______ ____
ROOT
ATOM      1  O   UNL     1      -1.466  10.907  18.373  0.00  0.00    +0.000 OA
ATOM      2  C   UNL     1      -0.434  11.006  19.027  0.00  0.00    +0.000 C 
ATOM      3  N   UNL     1      -0.035  12.170  19.658  0.00  0.00    +0.000 N 
ATOM      4  H   UNL     1       0.900  12.232  20.055  0.00  0.00    +0.000 HD
ENDROOT
BRANCH   2   5
ATOM      5  C   UNL     1       0.484   9.822  19.174  0.00  0.00    +0.000 A 
ATOM      6  C   UNL     1       0.556   9.187  20.424  0.00  0.00    +0.000 A 
ATOM      7  C   UNL     1       1.425   8.113  20.639  0.00  0.00    +0.000 A 
ATOM      8  C   UNL     1       2.210   7.653  19.578  0.00  0.00    +0.000 A 
ATOM      9  N   UNL     1       3.117   6.638  19.553  0.00  0.00    +0.000 NA
ATOM     10  C   UNL     1       3.489   6.557  18.289  0.00  0.00    +0.000 A 
ATOM     11  O   UNL     1       2.906   7.507  17.465  0.00  0.00    +0.000 OA
ATOM     12  C   UNL     1       2.084   8.232  18.323  0.00  0.00    +0.000 A 
ATOM     13  C   UNL     1       1.233   9.326  18.071  0.00  0.00    +0.000 A 
BRANCH  10  14
ATOM     14  C   UNL     1       4.265   5.387  17.766  0.00  0.00    +0.000 C 
BRANCH  14  15
ATOM     15  C   UNL     1       3.570   4.097  17.351  0.00  0.00    +0.000 C 
BRANCH  15  16
ATOM     16  C   UNL     1       2.839   3.523  18.564  0.00  0.00    +0.000 A 
ATOM     17  C   UNL     1       1.435   3.533  18.637  0.00  0.00    +0.000 A 
ATOM     18  C   UNL     1       0.770   3.122  19.800  0.00  0.00    +0.000 A 
ATOM     19  C   UNL     1       1.498   2.692  20.908  0.00  0.00    +0.000 A 
ATOM     20  C   UNL     1       2.889   2.670  20.851  0.00  0.00    +0.000 A 
ATOM     21  C   UNL     1       3.553   3.082  19.689  0.00  0.00    +0.000 A 
ENDBRANCH  15  16
ENDBRANCH  14  15
ENDBRANCH  10  14
ENDBRANCH   2   5
BRANCH   3  22
ATOM     22  C   UNL     1      -0.784  13.421  19.643  0.00  0.00    +0.000 C 
BRANCH  22  23
ATOM     23  C   UNL     1      -0.053  14.592  20.300  0.00  0.00    +0.000 C 
BRANCH  23  24
ATOM     24  C   UNL     1       1.289  14.998  19.660  0.00  0.00    +0.000 C 
BRANCH  24  25
ATOM     25  N   UNL     1       2.361  13.985  19.652  0.00  0.00    +0.000 NA
ATOM     26  C   UNL     1       3.024  13.826  18.337  0.00  0.00    +0.000 C 
ATOM     27  C   UNL     1       3.900  15.010  17.855  0.00  0.00    +0.000 C 
ATOM     28  N   UNL     1       4.833  15.466  18.903  0.00  0.00    +0.000 N 
ATOM     29  C   UNL     1       4.269  15.601  20.253  0.00  0.00    +0.000 C 
ATOM     30  C   UNL     1       3.432  14.348  20.624  0.00  0.00    +0.000 C 
BRANCH  28  31
ATOM     31  C   UNL     1       6.143  15.783  18.589  0.00  0.00    +0.000 A 
ATOM     32  C   UNL     1       7.012  14.839  18.017  0.00  0.00    +0.000 A 
ATOM     33  C   UNL     1       8.377  15.088  17.833  0.00  0.00    +0.000 A 
ATOM     34  C   UNL     1       8.909  16.318  18.189  0.00  0.00    +0.000 A 
ATOM     35  C   UNL     1       8.068  17.301  18.694  0.00  0.00    +0.000 A 
ATOM     36  C   UNL     1       6.705  17.035  18.883  0.00  0.00    +0.000 A 
ENDBRANCH  28  31
ENDBRANCH  24  25
ENDBRANCH  23  24
ENDBRANCH  22  23
ENDBRANCH   3  22
TORSDOF 9
ENDMDL
MODEL 6
REMARK VINA RESULT:      -8.1      1.316      2.005
REMARK  Name = 
REMARK  9 active torsions:
REMARK  status: ('A' for Active; 'I' for Inactive)
REMARK    1  A    between atoms: C_2  and  C_19
REMARK    2  A    between atoms: N_3  and  C_4
REMARK    3  A    between atoms: C_4  and  C_5
REMARK    4  A    between atoms: C_5  and  C_6
REMARK    5  A    between atoms: C_6  and  N_7
REMARK    6  A    between atoms: N_10  and  C_11
REMARK    7  A    between atoms: C_24  and  C_25
REMARK    8  A    between atoms: C_25  and  C_26
REMARK    9  A    between atoms: C_26  and  C_27
REMARK                            x       y       z     vdW  Elec       q    Type
REMARK                         _______ _______ _______ _____ _____    ______ ____
ROOT
ATOM      1  O   UNL     1       2.236   7.847  19.581  0.00  0.00    +0.000 OA
ATOM      2  C   UNL     1       1.483   7.712  20.539  0.00  0.00    +0.000 C 
ATOM      3  N   UNL     1       1.301   6.516  21.208  0.00  0.00    +0.000 N 
ATOM      4  H   UNL     1       0.553   6.433  21.894  0.00  0.00    +0.000 HD
ENDROOT
BRANCH   2   5
ATOM      5  C   UNL     1       0.688   8.886  21.045  0.00  0.00    +0.000 A 
ATOM      6  C   UNL     1       0.611   9.089  22.432  0.00  0.00    +0.000 A 
ATOM      7  C   UNL     1      -0.151  10.132  22.968  0.00  0.00    +0.000 A 
ATOM      8  C   UNL     1      -0.820  10.998  22.099  0.00  0.00    +0.000 A 
ATOM      9  N   UNL     1      -1.612  12.067  22.388  0.00  0.00    +0.000 NA
ATOM     10  C   UNL     1      -1.899  12.595  21.212  0.00  0.00    +0.000 A 
ATOM     11  O   UNL     1      -1.373  11.898  20.136  0.00  0.00    +0.000 OA
ATOM     12  C   UNL     1      -0.683  10.843  20.726  0.00  0.00    +0.000 A 
ATOM     13  C   UNL     1       0.061   9.796  20.149  0.00  0.00    +0.000 A 
BRANCH  10  14
ATOM     14  C   UNL     1      -2.516  13.953  21.085  0.00  0.00    +0.000 C 
BRANCH  14  15
ATOM     15  C   UNL     1      -3.117  14.667  22.289  0.00  0.00    +0.000 C 
BRANCH  15  16
ATOM     16  C   UNL     1      -4.511  14.097  22.548  0.00  0.00    +0.000 A 
ATOM     17  C   UNL     1      -5.611  14.482  21.763  0.00  0.00    +0.000 A 
ATOM     18  C   UNL     1      -6.909  14.056  22.079  0.00  0.00    +0.000 A 
ATOM     19  C   UNL     1      -7.126  13.235  23.184  0.00  0.00    +0.000 A 
ATOM     20  C   UNL     1      -6.047  12.839  23.969  0.00  0.00    +0.000 A 
ATOM     21  C   UNL     1      -4.751  13.266  23.654  0.00  0.00    +0.000 A 
ENDBRANCH  15  16
ENDBRANCH  14  15
ENDBRANCH  10  14
ENDBRANCH   2   5
BRANCH   3  22
ATOM     22  C   UNL     1       1.979   5.268  20.880  0.00  0.00    +0.000 C 
BRANCH  22  23
ATOM     23  C   UNL     1       1.035   4.125  20.507  0.00  0.00    +0.000 C 
BRANCH  23  24
ATOM     24  C   UNL     1       1.671   2.941  19.754  0.00  0.00    +0.000 C 
BRANCH  24  25
ATOM     25  N   UNL     1       1.504   2.910  18.289  0.00  0.00    +0.000 NA
ATOM     26  C   UNL     1       1.638   4.237  17.644  0.00  0.00    +0.000 C 
ATOM     27  C   UNL     1       3.054   4.868  17.644  0.00  0.00    +0.000 C 
ATOM     28  N   UNL     1       4.080   3.914  17.186  0.00  0.00    +0.000 N 
ATOM     29  C   UNL     1       3.991   2.555  17.737  0.00  0.00    +0.000 C 
ATOM     30  C   UNL     1       2.533   2.031  17.663  0.00  0.00    +0.000 C 
BRANCH  28  31
ATOM     31  C   UNL     1       5.083   4.320  16.322  0.00  0.00    +0.000 A 
ATOM     32  C   UNL     1       5.073   3.962  14.963  0.00  0.00    +0.000 A 
ATOM     33  C   UNL     1       6.148   4.229  14.107  0.00  0.00    +0.000 A 
ATOM     34  C   UNL     1       7.262   4.903  14.587  0.00  0.00    +0.000 A 
ATOM     35  C   UNL     1       7.278   5.335  15.906  0.00  0.00    +0.000 A 
ATOM     36  C   UNL     1       6.200   5.051  16.755  0.00  0.00    +0.000 A 
ENDBRANCH  28  31
ENDBRANCH  24  25
ENDBRANCH  23  24
ENDBRANCH  22  23
ENDBRANCH   3  22
TORSDOF 9
ENDMDL
MODEL 7
REMARK VINA RESULT:      -8.1      3.042     10.437
REMARK  Name = 
REMARK  9 active torsions:
REMARK  status: ('A' for Active; 'I' for Inactive)
REMARK    1  A    between atoms: C_2  and  C_19
REMARK    2  A    between atoms: N_3  and  C_4
REMARK    3  A    between atoms: C_4  and  C_5
REMARK    4  A    between atoms: C_5  and  C_6
REMARK    5  A    between atoms: C_6  and  N_7
REMARK    6  A    between atoms: N_10  and  C_11
REMARK    7  A    between atoms: C_24  and  C_25
REMARK    8  A    between atoms: C_25  and  C_26
REMARK    9  A    between atoms: C_26  and  C_27
REMARK                            x       y       z     vdW  Elec       q    Type
REMARK                         _______ _______ _______ _____ _____    ______ ____
ROOT
ATOM      1  O   UNL     1       0.645   9.797  23.538  0.00  0.00    +0.000 OA
ATOM      2  C   UNL     1       0.134  10.019  22.446  0.00  0.00    +0.000 C 
ATOM      3  N   UNL     1      -1.021  10.761  22.276  0.00  0.00    +0.000 N 
ATOM      4  H   UNL     1      -1.476  10.781  21.366  0.00  0.00    +0.000 HD
ENDROOT
BRANCH   2   5
ATOM      5  C   UNL     1       0.761   9.468  21.193  0.00  0.00    +0.000 A 
ATOM      6  C   UNL     1       0.651  10.215  20.010  0.00  0.00    +0.000 A 
ATOM      7  C   UNL     1       1.168   9.735  18.803  0.00  0.00    +0.000 A 
ATOM      8  C   UNL     1       1.829   8.505  18.790  0.00  0.00    +0.000 A 
ATOM      9  N   UNL     1       2.405   7.846  17.747  0.00  0.00    +0.000 NA
ATOM     10  C   UNL     1       2.978   6.790  18.297  0.00  0.00    +0.000 A 
ATOM     11  O   UNL     1       2.774   6.683  19.663  0.00  0.00    +0.000 OA
ATOM     12  C   UNL     1       2.005   7.801  19.974  0.00  0.00    +0.000 A 
ATOM     13  C   UNL     1       1.483   8.242  21.205  0.00  0.00    +0.000 A 
BRANCH  10  14
ATOM     14  C   UNL     1       3.961   5.944  17.548  0.00  0.00    +0.000 C 
BRANCH  14  15
ATOM     15  C   UNL     1       4.513   4.655  18.143  0.00  0.00    +0.000 C 
BRANCH  15  16
ATOM     16  C   UNL     1       3.341   3.801  18.628  0.00  0.00    +0.000 A 
ATOM     17  C   UNL     1       2.251   3.520  17.787  0.00  0.00    +0.000 A 
ATOM     18  C   UNL     1       1.122   2.843  18.270  0.00  0.00    +0.000 A 
ATOM     19  C   UNL     1       1.067   2.435  19.601  0.00  0.00    +0.000 A 
ATOM     20  C   UNL     1       2.141   2.700  20.447  0.00  0.00    +0.000 A 
ATOM     21  C   UNL     1       3.268   3.377  19.964  0.00  0.00    +0.000 A 
ENDBRANCH  15  16
ENDBRANCH  14  15
ENDBRANCH  10  14
ENDBRANCH   2   5
BRANCH   3  22
ATOM     22  C   UNL     1      -1.774  11.385  23.357  0.00  0.00    +0.000 C 
BRANCH  22  23
ATOM     23  C   UNL     1      -2.287  12.787  23.030  0.00  0.00    +0.000 C 
BRANCH  23  24
ATOM     24  C   UNL     1      -1.349  13.954  23.394  0.00  0.00    +0.000 C 
BRANCH  24  25
ATOM     25  N   UNL     1      -1.375  15.136  22.512  0.00  0.00    +0.000 NA
ATOM     26  C   UNL     1      -0.160  15.977  22.603  0.00  0.00    +0.000 C 
ATOM     27  C   UNL     1       1.148  15.368  22.038  0.00  0.00    +0.000 C 
ATOM     28  N   UNL     1       0.954  14.805  20.688  0.00  0.00    +0.000 N 
ATOM     29  C   UNL     1      -0.258  13.997  20.495  0.00  0.00    +0.000 C 
ATOM     30  C   UNL     1      -1.496  14.721  21.085  0.00  0.00    +0.000 C 
BRANCH  28  31
ATOM     31  C   UNL     1       1.901  15.006  19.699  0.00  0.00    +0.000 A 
ATOM     32  C   UNL     1       1.980  16.219  18.991  0.00  0.00    +0.000 A 
ATOM     33  C   UNL     1       2.823  16.391  17.888  0.00  0.00    +0.000 A 
ATOM     34  C   UNL     1       3.647  15.353  17.479  0.00  0.00    +0.000 A 
ATOM     35  C   UNL     1       3.648  14.164  18.196  0.00  0.00    +0.000 A 
ATOM     36  C   UNL     1       2.791  14.000  19.293  0.00  0.00    +0.000 A 
ENDBRANCH  28  31
ENDBRANCH  24  25
ENDBRANCH  23  24
ENDBRANCH  22  23
ENDBRANCH   3  22
TORSDOF 9
ENDMDL
MODEL 8
REMARK VINA RESULT:      -8.0      3.388      5.220
REMARK  Name = 
REMARK  9 active torsions:
REMARK  status: ('A' for Active; 'I' for Inactive)
REMARK    1  A    between atoms: C_2  and  C_19
REMARK    2  A    between atoms: N_3  and  C_4
REMARK    3  A    between atoms: C_4  and  C_5
REMARK    4  A    between atoms: C_5  and  C_6
REMARK    5  A    between atoms: C_6  and  N_7
REMARK    6  A    between atoms: N_10  and  C_11
REMARK    7  A    between atoms: C_24  and  C_25
REMARK    8  A    between atoms: C_25  and  C_26
REMARK    9  A    between atoms: C_26  and  C_27
REMARK                            x       y       z     vdW  Elec       q    Type
REMARK                         _______ _______ _______ _____ _____    ______ ____
ROOT
ATOM      1  O   UNL     1       2.165   7.833  18.666  0.00  0.00    +0.000 OA
ATOM      2  C   UNL     1       1.658   8.130  19.741  0.00  0.00    +0.000 C 
ATOM      3  N   UNL     1       1.559   7.257  20.810  0.00  0.00    +0.000 N 
ATOM      4  H   UNL     1       0.995   7.512  21.617  0.00  0.00    +0.000 HD
ENDROOT
BRANCH   2   5
ATOM      5  C   UNL     1       1.091   9.508  19.954  0.00  0.00    +0.000 A 
ATOM      6  C   UNL     1       0.532   9.812  21.206  0.00  0.00    +0.000 A 
ATOM      7  C   UNL     1      -0.054  11.057  21.452  0.00  0.00    +0.000 A 
ATOM      8  C   UNL     1      -0.054  12.018  20.437  0.00  0.00    +0.000 A 
ATOM      9  N   UNL     1      -0.561  13.282  20.447  0.00  0.00    +0.000 NA
ATOM     10  C   UNL     1      -0.201  13.793  19.284  0.00  0.00    +0.000 A 
ATOM     11  O   UNL     1       0.490  12.911  18.468  0.00  0.00    +0.000 OA
ATOM     12  C   UNL     1       0.565  11.745  19.225  0.00  0.00    +0.000 A 
ATOM     13  C   UNL     1       1.150  10.498  18.934  0.00  0.00    +0.000 A 
BRANCH  10  14
ATOM     14  C   UNL     1      -0.309  15.258  18.996  0.00  0.00    +0.000 C 
BRANCH  14  15
ATOM     15  C   UNL     1       0.708  16.252  19.544  0.00  0.00    +0.000 C 
BRANCH  15  16
ATOM     16  C   UNL     1       2.110  15.770  19.172  0.00  0.00    +0.000 A 
ATOM     17  C   UNL     1       2.985  15.261  20.147  0.00  0.00    +0.000 A 
ATOM     18  C   UNL     1       4.311  14.936  19.828  0.00  0.00    +0.000 A 
ATOM     19  C   UNL     1       4.781  15.112  18.528  0.00  0.00    +0.000 A 
ATOM     20  C   UNL     1       3.926  15.609  17.548  0.00  0.00    +0.000 A 
ATOM     21  C   UNL     1       2.602  15.934  17.868  0.00  0.00    +0.000 A 
ENDBRANCH  15  16
ENDBRANCH  14  15
ENDBRANCH  10  14
ENDBRANCH   2   5
BRANCH   3  22
ATOM     22  C   UNL     1       2.051   5.885  20.809  0.00  0.00    +0.000 C 
BRANCH  22  23
ATOM     23  C   UNL     1       1.020   4.853  20.352  0.00  0.00    +0.000 C 
BRANCH  23  24
ATOM     24  C   UNL     1       1.446   3.376  20.460  0.00  0.00    +0.000 C 
BRANCH  24  25
ATOM     25  N   UNL     1       1.629   2.638  19.197  0.00  0.00    +0.000 NA
ATOM     26  C   UNL     1       1.581   3.495  17.990  0.00  0.00    +0.000 C 
ATOM     27  C   UNL     1       2.763   4.477  17.790  0.00  0.00    +0.000 C 
ATOM     28  N   UNL     1       4.067   3.806  17.951  0.00  0.00    +0.000 N 
ATOM     29  C   UNL     1       4.186   2.894  19.097  0.00  0.00    +0.000 C 
ATOM     30  C   UNL     1       2.954   1.955  19.177  0.00  0.00    +0.000 C 
BRANCH  28  31
ATOM     31  C   UNL     1       5.111   4.079  17.084  0.00  0.00    +0.000 A 
ATOM     32  C   UNL     1       6.365   4.508  17.553  0.00  0.00    +0.000 A 
ATOM     33  C   UNL     1       7.383   4.935  16.694  0.00  0.00    +0.000 A 
ATOM     34  C   UNL     1       7.184   4.911  15.321  0.00  0.00    +0.000 A 
ATOM     35  C   UNL     1       5.984   4.427  14.817  0.00  0.00    +0.000 A 
ATOM     36  C   UNL     1       4.968   4.013  15.689  0.00  0.00    +0.000 A 
ENDBRANCH  28  31
ENDBRANCH  24  25
ENDBRANCH  23  24
ENDBRANCH  22  23
ENDBRANCH   3  22
TORSDOF 9
ENDMDL
MODEL 9
REMARK VINA RESULT:      -8.0      2.177      3.276
REMARK  Name = 
REMARK  9 active torsions:
REMARK  status: ('A' for Active; 'I' for Inactive)
REMARK    1  A    between atoms: C_2  and  C_19
REMARK    2  A    between atoms: N_3  and  C_4
REMARK    3  A    between atoms: C_4  and  C_5
REMARK    4  A    between atoms: C_5  and  C_6
REMARK    5  A    between atoms: C_6  and  N_7
REMARK    6  A    between atoms: N_10  and  C_11
REMARK    7  A    between atoms: C_24  and  C_25
REMARK    8  A    between atoms: C_25  and  C_26
REMARK    9  A    between atoms: C_26  and  C_27
REMARK                            x       y       z     vdW  Elec       q    Type
REMARK                         _______ _______ _______ _____ _____    ______ ____
ROOT
ATOM      1  O   UNL     1       2.115   8.175  19.556  0.00  0.00    +0.000 OA
ATOM      2  C   UNL     1       1.425   7.941  20.542  0.00  0.00    +0.000 C 
ATOM      3  N   UNL     1       1.347   6.700  21.147  0.00  0.00    +0.000 N 
ATOM      4  H   UNL     1       0.645   6.534  21.864  0.00  0.00    +0.000 HD
ENDROOT
BRANCH   2   5
ATOM      5  C   UNL     1       0.596   9.036  21.160  0.00  0.00    +0.000 A 
ATOM      6  C   UNL     1       0.387   9.009  22.548  0.00  0.00    +0.000 A 
ATOM      7  C   UNL     1      -0.413   9.968  23.175  0.00  0.00    +0.000 A 
ATOM      8  C   UNL     1      -0.987  10.982  22.404  0.00  0.00    +0.000 A 
ATOM      9  N   UNL     1      -1.793  12.009  22.791  0.00  0.00    +0.000 NA
ATOM     10  C   UNL     1      -1.961  12.729  21.697  0.00  0.00    +0.000 A 
ATOM     11  O   UNL     1      -1.340  12.207  20.574  0.00  0.00    +0.000 OA
ATOM     12  C   UNL     1      -0.720  11.052  21.044  0.00  0.00    +0.000 A 
ATOM     13  C   UNL     1       0.066  10.096  20.373  0.00  0.00    +0.000 A 
BRANCH  10  14
ATOM     14  C   UNL     1      -2.550  14.106  21.740  0.00  0.00    +0.000 C 
BRANCH  14  15
ATOM     15  C   UNL     1      -1.677  15.336  21.950  0.00  0.00    +0.000 C 
BRANCH  15  16
ATOM     16  C   UNL     1      -1.474  15.540  23.452  0.00  0.00    +0.000 A 
ATOM     17  C   UNL     1      -2.431  15.095  24.380  0.00  0.00    +0.000 A 
ATOM     18  C   UNL     1      -2.305  15.392  25.745  0.00  0.00    +0.000 A 
ATOM     19  C   UNL     1      -1.219  16.135  26.202  0.00  0.00    +0.000 A 
ATOM     20  C   UNL     1      -0.258  16.577  25.297  0.00  0.00    +0.000 A 
ATOM     21  C   UNL     1      -0.385  16.282  23.934  0.00  0.00    +0.000 A 
ENDBRANCH  15  16
ENDBRANCH  14  15
ENDBRANCH  10  14
ENDBRANCH   2   5
BRANCH   3  22
ATOM     22  C   UNL     1       2.075   5.515  20.708  0.00  0.00    +0.000 C 
BRANCH  22  23
ATOM     23  C   UNL     1       1.179   4.320  20.380  0.00  0.00    +0.000 C 
BRANCH  23  24
ATOM     24  C   UNL     1       1.822   2.929  20.537  0.00  0.00    +0.000 C 
BRANCH  24  25
ATOM     25  N   UNL     1       2.115   2.182  19.300  0.00  0.00    +0.000 NA
ATOM     26  C   UNL     1       1.845   2.948  18.060  0.00  0.00    +0.000 C 
ATOM     27  C   UNL     1       2.785   4.144  17.767  0.00  0.00    +0.000 C 
ATOM     28  N   UNL     1       4.206   3.772  17.899  0.00  0.00    +0.000 N 
ATOM     29  C   UNL     1       4.554   2.965  19.076  0.00  0.00    +0.000 C 
ATOM     30  C   UNL     1       3.553   1.793  19.250  0.00  0.00    +0.000 C 
BRANCH  28  31
ATOM     31  C   UNL     1       5.138   4.214  16.976  0.00  0.00    +0.000 A 
ATOM     32  C   UNL     1       4.824   4.325  15.610  0.00  0.00    +0.000 A 
ATOM     33  C   UNL     1       5.788   4.621  14.640  0.00  0.00    +0.000 A 
ATOM     34  C   UNL     1       7.103   4.850  15.018  0.00  0.00    +0.000 A 
ATOM     35  C   UNL     1       7.437   4.817  16.366  0.00  0.00    +0.000 A 
ATOM     36  C   UNL     1       6.464   4.509  17.327  0.00  0.00    +0.000 A 
ENDBRANCH  28  31
ENDBRANCH  24  25
ENDBRANCH  23  24
ENDBRANCH  22  23
ENDBRANCH   3  22
TORSDOF 9
ENDMDL
