MODEL 1
REMARK VINA RESULT:      -8.5      0.000      0.000
REMARK  Name = 
REMARK  4 active torsions:
REMARK  status: ('A' for Active; 'I' for Inactive)
REMARK    1  A    between atoms: C_2  and  O_3
REMARK    2  A    between atoms: C_2  and  C_4
REMARK    3  A    between atoms: C_4  and  S_5
REMARK    4  A    between atoms: S_5  and  C_6
REMARK                            x       y       z     vdW  Elec       q    Type
REMARK                         _______ _______ _______ _____ _____    ______ ____
ROOT
ATOM      1  C   UNL     1       1.569   8.915  19.198  0.00  0.00    +0.000 A 
ATOM      2  N   UNL     1       2.231   9.315  18.107  0.00  0.00    +0.000 NA
ATOM      3  N   UNL     1       3.064   8.420  17.469  0.00  0.00    +0.000 NA
ATOM      4  C   UNL     1       3.227   7.158  17.931  0.00  0.00    +0.000 A 
ATOM      5  C   UNL     1       4.071   6.213  17.297  0.00  0.00    +0.000 A 
ATOM      6  C   UNL     1       4.789   6.540  16.120  0.00  0.00    +0.000 A 
ATOM      7  C   UNL     1       5.645   5.633  15.487  0.00  0.00    +0.000 A 
ATOM      8  C   UNL     1       5.804   4.366  16.012  0.00  0.00    +0.000 A 
ATOM      9  C   UNL     1       5.103   4.012  17.162  0.00  0.00    +0.000 A 
ATOM     10  C   UNL     1       4.224   4.908  17.830  0.00  0.00    +0.000 A 
ATOM     11  C   UNL     1       3.502   4.551  19.007  0.00  0.00    +0.000 A 
ATOM     12  C   UNL     1       3.593   3.269  19.610  0.00  0.00    +0.000 A 
ATOM     13  C   UNL     1       2.882   2.928  20.760  0.00  0.00    +0.000 A 
ATOM     14  C   UNL     1       2.048   3.863  21.343  0.00  0.00    +0.000 A 
ATOM     15  C   UNL     1       1.936   5.130  20.778  0.00  0.00    +0.000 A 
ATOM     16  C   UNL     1       2.652   5.510  19.615  0.00  0.00    +0.000 A 
ATOM     17  C   UNL     1       2.514   6.808  19.091  0.00  0.00    +0.000 A 
ATOM     18  N   UNL     1       1.694   7.688  19.713  0.00  0.00    +0.000 NA
ENDROOT
BRANCH   1  19
ATOM     19  S   UNL     1       0.417  10.032  19.967  0.00  0.00    +0.000 S 
BRANCH  19  20
ATOM     20  C   UNL     1      -0.103   9.028  21.405  0.00  0.00    +0.000 C 
BRANCH  20  22
ATOM     21  O   UNL     1       0.130   9.879  23.641  0.00  0.00    +0.000 OA
ATOM     22  C   UNL     1       0.658   9.375  22.665  0.00  0.00    +0.000 C 
BRANCH  22  23
ATOM     23  O   UNL     1       1.997   9.176  22.606  0.00  0.00    +0.000 OA
ATOM     24  H   UNL     1       2.379   8.880  23.457  0.00  0.00    +0.000 HD
ENDBRANCH  22  23
ENDBRANCH  20  22
ENDBRANCH  19  20
ENDBRANCH   1  19
TORSDOF 4
ENDMDL
MODEL 2
REMARK VINA RESULT:      -7.8      2.122      2.270
REMARK  Name = 
REMARK  4 active torsions:
REMARK  status: ('A' for Active; 'I' for Inactive)
REMARK    1  A    between atoms: C_2  and  O_3
REMARK    2  A    between atoms: C_2  and  C_4
REMARK    3  A    between atoms: C_4  and  S_5
REMARK    4  A    between atoms: S_5  and  C_6
REMARK                            x       y       z     vdW  Elec       q    Type
REMARK                         _______ _______ _______ _____ _____    ______ ____
ROOT
ATOM      1  C   UNL     1       1.558   9.013  19.115  0.00  0.00    +0.000 A 
ATOM      2  N   UNL     1       2.232   9.399  18.025  0.00  0.00    +0.000 NA
ATOM      3  N   UNL     1       3.068   8.495  17.406  0.00  0.00    +0.000 NA
ATOM      4  C   UNL     1       3.223   7.238  17.883  0.00  0.00    +0.000 A 
ATOM      5  C   UNL     1       4.070   6.283  17.268  0.00  0.00    +0.000 A 
ATOM      6  C   UNL     1       4.799   6.595  16.094  0.00  0.00    +0.000 A 
ATOM      7  C   UNL     1       5.659   5.679  15.479  0.00  0.00    +0.000 A 
ATOM      8  C   UNL     1       5.809   4.417  16.020  0.00  0.00    +0.000 A 
ATOM      9  C   UNL     1       5.096   4.078  17.167  0.00  0.00    +0.000 A 
ATOM     10  C   UNL     1       4.214   4.984  17.817  0.00  0.00    +0.000 A 
ATOM     11  C   UNL     1       3.480   4.642  18.990  0.00  0.00    +0.000 A 
ATOM     12  C   UNL     1       3.561   3.366  19.609  0.00  0.00    +0.000 A 
ATOM     13  C   UNL     1       2.838   3.041  20.756  0.00  0.00    +0.000 A 
ATOM     14  C   UNL     1       2.002   3.984  21.321  0.00  0.00    +0.000 A 
ATOM     15  C   UNL     1       1.899   5.246  20.740  0.00  0.00    +0.000 A 
ATOM     16  C   UNL     1       2.628   5.611  19.580  0.00  0.00    +0.000 A 
ATOM     17  C   UNL     1       2.498   6.903  19.040  0.00  0.00    +0.000 A 
ATOM     18  N   UNL     1       1.675   7.792  19.644  0.00  0.00    +0.000 NA
ENDROOT
BRANCH   1  19
ATOM     19  S   UNL     1       0.403  10.143  19.860  0.00  0.00    +0.000 S 
BRANCH  19  20
ATOM     20  C   UNL     1      -0.686  10.488  18.432  0.00  0.00    +0.000 C 
BRANCH  20  22
ATOM     21  O   UNL     1      -1.453  12.538  19.427  0.00  0.00    +0.000 OA
ATOM     22  C   UNL     1      -1.190  11.914  18.413  0.00  0.00    +0.000 C 
BRANCH  22  23
ATOM     23  O   UNL     1      -1.426  12.428  17.182  0.00  0.00    +0.000 OA
ATOM     24  H   UNL     1      -0.964  11.943  16.469  0.00  0.00    +0.000 HD
ENDBRANCH  22  23
ENDBRANCH  20  22
ENDBRANCH  19  20
ENDBRANCH   1  19
TORSDOF 4
ENDMDL
MODEL 3
REMARK VINA RESULT:      -7.8      4.845      6.867
REMARK  Name = 
REMARK  4 active torsions:
REMARK  status: ('A' for Active; 'I' for Inactive)
REMARK    1  A    between atoms: C_2  and  O_3
REMARK    2  A    between atoms: C_2  and  C_4
REMARK    3  A    between atoms: C_4  and  S_5
REMARK    4  A    between atoms: S_5  and  C_6
REMARK                            x       y       z     vdW  Elec       q    Type
REMARK                         _______ _______ _______ _____ _____    ______ ____
ROOT
ATOM      1  C   UNL     1       5.574   5.368  15.894  0.00  0.00    +0.000 A 
ATOM      2  N   UNL     1       5.202   6.622  15.616  0.00  0.00    +0.000 NA
ATOM      3  N   UNL     1       4.318   7.258  16.462  0.00  0.00    +0.000 NA
ATOM      4  C   UNL     1       3.819   6.634  17.555  0.00  0.00    +0.000 A 
ATOM      5  C   UNL     1       2.914   7.260  18.448  0.00  0.00    +0.000 A 
ATOM      6  C   UNL     1       2.488   8.597  18.247  0.00  0.00    +0.000 A 
ATOM      7  C   UNL     1       1.578   9.230  19.100  0.00  0.00    +0.000 A 
ATOM      8  C   UNL     1       1.072   8.544  20.186  0.00  0.00    +0.000 A 
ATOM      9  C   UNL     1       1.481   7.233  20.416  0.00  0.00    +0.000 A 
ATOM     10  C   UNL     1       2.404   6.559  19.570  0.00  0.00    +0.000 A 
ATOM     11  C   UNL     1       2.828   5.218  19.801  0.00  0.00    +0.000 A 
ATOM     12  C   UNL     1       2.372   4.440  20.897  0.00  0.00    +0.000 A 
ATOM     13  C   UNL     1       2.794   3.130  21.116  0.00  0.00    +0.000 A 
ATOM     14  C   UNL     1       3.695   2.553  20.242  0.00  0.00    +0.000 A 
ATOM     15  C   UNL     1       4.163   3.288  19.156  0.00  0.00    +0.000 A 
ATOM     16  C   UNL     1       3.747   4.619  18.901  0.00  0.00    +0.000 A 
ATOM     17  C   UNL     1       4.239   5.312  17.781  0.00  0.00    +0.000 A 
ATOM     18  N   UNL     1       5.110   4.693  16.950  0.00  0.00    +0.000 NA
ENDROOT
BRANCH   1  19
ATOM     19  S   UNL     1       6.789   4.578  14.862  0.00  0.00    +0.000 S 
BRANCH  19  20
ATOM     20  C   UNL     1       5.699   3.738  13.657  0.00  0.00    +0.000 C 
BRANCH  20  22
ATOM     21  O   UNL     1       7.211   4.155  11.834  0.00  0.00    +0.000 OA
ATOM     22  C   UNL     1       6.407   3.406  12.363  0.00  0.00    +0.000 C 
BRANCH  22  23
ATOM     23  O   UNL     1       6.017   2.252  11.770  0.00  0.00    +0.000 OA
ATOM     24  H   UNL     1       5.906   1.514  12.402  0.00  0.00    +0.000 HD
ENDBRANCH  22  23
ENDBRANCH  20  22
ENDBRANCH  19  20
ENDBRANCH   1  19
TORSDOF 4
ENDMDL
MODEL 4
REMARK VINA RESULT:      -7.6      1.833      2.106
REMARK  Name = 
REMARK  4 active torsions:
REMARK  status: ('A' for Active; 'I' for Inactive)
REMARK    1  A    between atoms: C_2  and  O_3
REMARK    2  A    between atoms: C_2  and  C_4
REMARK    3  A    between atoms: C_4  and  S_5
REMARK    4  A    between atoms: S_5  and  C_6
REMARK                            x       y       z     vdW  Elec       q    Type
REMARK                         _______ _______ _______ _____ _____    ______ ____
ROOT
ATOM      1  C   UNL     1       1.677   8.877  19.161  0.00  0.00    +0.000 A 
ATOM      2  N   UNL     1       2.338   9.254  18.062  0.00  0.00    +0.000 NA
ATOM      3  N   UNL     1       3.148   8.338  17.424  0.00  0.00    +0.000 NA
ATOM      4  C   UNL     1       3.288   7.076  17.895  0.00  0.00    +0.000 A 
ATOM      5  C   UNL     1       4.107   6.109  17.261  0.00  0.00    +0.000 A 
ATOM      6  C   UNL     1       4.822   6.413  16.076  0.00  0.00    +0.000 A 
ATOM      7  C   UNL     1       5.653   5.483  15.443  0.00  0.00    +0.000 A 
ATOM      8  C   UNL     1       5.790   4.217  15.977  0.00  0.00    +0.000 A 
ATOM      9  C   UNL     1       5.092   3.886  17.135  0.00  0.00    +0.000 A 
ATOM     10  C   UNL     1       4.237   4.805  17.804  0.00  0.00    +0.000 A 
ATOM     11  C   UNL     1       3.518   4.472  18.988  0.00  0.00    +0.000 A 
ATOM     12  C   UNL     1       3.586   3.193  19.601  0.00  0.00    +0.000 A 
ATOM     13  C   UNL     1       2.877   2.876  20.758  0.00  0.00    +0.000 A 
ATOM     14  C   UNL     1       2.068   3.832  21.341  0.00  0.00    +0.000 A 
ATOM     15  C   UNL     1       1.978   5.097  20.767  0.00  0.00    +0.000 A 
ATOM     16  C   UNL     1       2.693   5.454  19.595  0.00  0.00    +0.000 A 
ATOM     17  C   UNL     1       2.577   6.750  19.063  0.00  0.00    +0.000 A 
ATOM     18  N   UNL     1       1.781   7.651  19.684  0.00  0.00    +0.000 NA
ENDROOT
BRANCH   1  19
ATOM     19  S   UNL     1       0.555  10.024  19.931  0.00  0.00    +0.000 S 
BRANCH  19  20
ATOM     20  C   UNL     1       0.494  11.330  18.652  0.00  0.00    +0.000 C 
BRANCH  20  22
ATOM     21  O   UNL     1       1.873  13.031  19.647  0.00  0.00    +0.000 OA
ATOM     22  C   UNL     1       1.680  12.266  18.717  0.00  0.00    +0.000 C 
BRANCH  22  23
ATOM     23  O   UNL     1       2.474  12.271  17.619  0.00  0.00    +0.000 OA
ATOM     24  H   UNL     1       3.428  12.268  17.836  0.00  0.00    +0.000 HD
ENDBRANCH  22  23
ENDBRANCH  20  22
ENDBRANCH  19  20
ENDBRANCH   1  19
TORSDOF 4
ENDMDL
MODEL 5
REMARK VINA RESULT:      -7.6      5.017      7.424
REMARK  Name = 
REMARK  4 active torsions:
REMARK  status: ('A' for Active; 'I' for Inactive)
REMARK    1  A    between atoms: C_2  and  O_3
REMARK    2  A    between atoms: C_2  and  C_4
REMARK    3  A    between atoms: C_4  and  S_5
REMARK    4  A    between atoms: S_5  and  C_6
REMARK                            x       y       z     vdW  Elec       q    Type
REMARK                         _______ _______ _______ _____ _____    ______ ____
ROOT
ATOM      1  C   UNL     1       5.540   4.814  15.926  0.00  0.00    +0.000 A 
ATOM      2  N   UNL     1       5.649   3.604  16.484  0.00  0.00    +0.000 NA
ATOM      3  N   UNL     1       4.941   3.337  17.637  0.00  0.00    +0.000 NA
ATOM      4  C   UNL     1       4.150   4.274  18.210  0.00  0.00    +0.000 A 
ATOM      5  C   UNL     1       3.405   4.030  19.390  0.00  0.00    +0.000 A 
ATOM      6  C   UNL     1       3.439   2.768  20.034  0.00  0.00    +0.000 A 
ATOM      7  C   UNL     1       2.731   2.508  21.212  0.00  0.00    +0.000 A 
ATOM      8  C   UNL     1       1.961   3.505  21.778  0.00  0.00    +0.000 A 
ATOM      9  C   UNL     1       1.900   4.752  21.162  0.00  0.00    +0.000 A 
ATOM     10  C   UNL     1       2.606   5.051  19.964  0.00  0.00    +0.000 A 
ATOM     11  C   UNL     1       2.545   6.325  19.328  0.00  0.00    +0.000 A 
ATOM     12  C   UNL     1       1.772   7.404  19.830  0.00  0.00    +0.000 A 
ATOM     13  C   UNL     1       1.718   8.646  19.199  0.00  0.00    +0.000 A 
ATOM     14  C   UNL     1       2.436   8.848  18.036  0.00  0.00    +0.000 A 
ATOM     15  C   UNL     1       3.206   7.811  17.517  0.00  0.00    +0.000 A 
ATOM     16  C   UNL     1       3.289   6.539  18.139  0.00  0.00    +0.000 A 
ATOM     17  C   UNL     1       4.092   5.529  17.580  0.00  0.00    +0.000 A 
ATOM     18  N   UNL     1       4.787   5.787  16.447  0.00  0.00    +0.000 NA
ENDROOT
BRANCH   1  19
ATOM     19  S   UNL     1       6.373   5.134  14.386  0.00  0.00    +0.000 S 
BRANCH  19  20
ATOM     20  C   UNL     1       5.752   3.736  13.382  0.00  0.00    +0.000 C 
BRANCH  20  22
ATOM     21  O   UNL     1       7.350   4.266  11.665  0.00  0.00    +0.000 OA
ATOM     22  C   UNL     1       6.639   3.430  12.196  0.00  0.00    +0.000 C 
BRANCH  22  23
ATOM     23  O   UNL     1       6.521   2.177  11.693  0.00  0.00    +0.000 OA
ATOM     24  H   UNL     1       7.384   1.748  11.526  0.00  0.00    +0.000 HD
ENDBRANCH  22  23
ENDBRANCH  20  22
ENDBRANCH  19  20
ENDBRANCH   1  19
TORSDOF 4
ENDMDL
MODEL 6
REMARK VINA RESULT:      -7.5      2.198      4.236
REMARK  Name = 
REMARK  4 active torsions:
REMARK  status: ('A' for Active; 'I' for Inactive)
REMARK    1  A    between atoms: C_2  and  O_3
REMARK    2  A    between atoms: C_2  and  C_4
REMARK    3  A    between atoms: C_4  and  S_5
REMARK    4  A    between atoms: S_5  and  C_6
REMARK                            x       y       z     vdW  Elec       q    Type
REMARK                         _______ _______ _______ _____ _____    ______ ____
ROOT
ATOM      1  C   UNL     1       1.827   8.988  18.900  0.00  0.00    +0.000 A 
ATOM      2  N   UNL     1       1.242   8.497  19.999  0.00  0.00    +0.000 NA
ATOM      3  N   UNL     1       1.522   7.202  20.380  0.00  0.00    +0.000 NA
ATOM      4  C   UNL     1       2.366   6.424  19.661  0.00  0.00    +0.000 A 
ATOM      5  C   UNL     1       2.679   5.092  20.028  0.00  0.00    +0.000 A 
ATOM      6  C   UNL     1       2.128   4.500  21.192  0.00  0.00    +0.000 A 
ATOM      7  C   UNL     1       2.403   3.180  21.564  0.00  0.00    +0.000 A 
ATOM      8  C   UNL     1       3.245   2.414  20.783  0.00  0.00    +0.000 A 
ATOM      9  C   UNL     1       3.810   2.972  19.640  0.00  0.00    +0.000 A 
ATOM     10  C   UNL     1       3.553   4.310  19.232  0.00  0.00    +0.000 A 
ATOM     11  C   UNL     1       4.131   4.887  18.063  0.00  0.00    +0.000 A 
ATOM     12  C   UNL     1       5.016   4.180  17.208  0.00  0.00    +0.000 A 
ATOM     13  C   UNL     1       5.577   4.754  16.068  0.00  0.00    +0.000 A 
ATOM     14  C   UNL     1       5.272   6.063  15.748  0.00  0.00    +0.000 A 
ATOM     15  C   UNL     1       4.406   6.785  16.565  0.00  0.00    +0.000 A 
ATOM     16  C   UNL     1       3.813   6.228  17.726  0.00  0.00    +0.000 A 
ATOM     17  C   UNL     1       2.934   6.996  18.510  0.00  0.00    +0.000 A 
ATOM     18  N   UNL     1       2.659   8.269  18.140  0.00  0.00    +0.000 NA
ENDROOT
BRANCH   1  19
ATOM     19  S   UNL     1       1.547  10.689  18.459  0.00  0.00    +0.000 S 
BRANCH  19  20
ATOM     20  C   UNL     1      -0.277  10.760  18.570  0.00  0.00    +0.000 C 
BRANCH  20  22
ATOM     21  O   UNL     1      -0.951  12.862  19.522  0.00  0.00    +0.000 OA
ATOM     22  C   UNL     1      -0.809  12.175  18.526  0.00  0.00    +0.000 C 
BRANCH  22  23
ATOM     23  O   UNL     1      -1.214  12.603  17.306  0.00  0.00    +0.000 OA
ATOM     24  H   UNL     1      -0.743  13.406  17.005  0.00  0.00    +0.000 HD
ENDBRANCH  22  23
ENDBRANCH  20  22
ENDBRANCH  19  20
ENDBRANCH   1  19
TORSDOF 4
ENDMDL
MODEL 7
REMARK VINA RESULT:      -7.5      4.892      6.929
REMARK  Name = 
REMARK  4 active torsions:
REMARK  status: ('A' for Active; 'I' for Inactive)
REMARK    1  A    between atoms: C_2  and  O_3
REMARK    2  A    between atoms: C_2  and  C_4
REMARK    3  A    between atoms: C_4  and  S_5
REMARK    4  A    between atoms: S_5  and  C_6
REMARK                            x       y       z     vdW  Elec       q    Type
REMARK                         _______ _______ _______ _____ _____    ______ ____
ROOT
ATOM      1  C   UNL     1       5.545   5.533  15.721  0.00  0.00    +0.000 A 
ATOM      2  N   UNL     1       5.313   6.829  15.954  0.00  0.00    +0.000 NA
ATOM      3  N   UNL     1       4.438   7.178  16.960  0.00  0.00    +0.000 NA
ATOM      4  C   UNL     1       3.809   6.237  17.703  0.00  0.00    +0.000 A 
ATOM      5  C   UNL     1       2.908   6.562  18.748  0.00  0.00    +0.000 A 
ATOM      6  C   UNL     1       2.625   7.910  19.083  0.00  0.00    +0.000 A 
ATOM      7  C   UNL     1       1.724   8.257  20.095  0.00  0.00    +0.000 A 
ATOM      8  C   UNL     1       1.082   7.263  20.806  0.00  0.00    +0.000 A 
ATOM      9  C   UNL     1       1.348   5.929  20.506  0.00  0.00    +0.000 A 
ATOM     10  C   UNL     1       2.259   5.540  19.486  0.00  0.00    +0.000 A 
ATOM     11  C   UNL     1       2.537   4.177  19.176  0.00  0.00    +0.000 A 
ATOM     12  C   UNL     1       1.936   3.089  19.862  0.00  0.00    +0.000 A 
ATOM     13  C   UNL     1       2.216   1.759  19.552  0.00  0.00    +0.000 A 
ATOM     14  C   UNL     1       3.117   1.473  18.545  0.00  0.00    +0.000 A 
ATOM     15  C   UNL     1       3.725   2.516  17.851  0.00  0.00    +0.000 A 
ATOM     16  C   UNL     1       3.455   3.878  18.135  0.00  0.00    +0.000 A 
ATOM     17  C   UNL     1       4.086   4.894  17.396  0.00  0.00    +0.000 A 
ATOM     18  N   UNL     1       4.948   4.555  16.409  0.00  0.00    +0.000 NA
ENDROOT
BRANCH   1  19
ATOM     19  S   UNL     1       6.748   5.078  14.491  0.00  0.00    +0.000 S 
BRANCH  19  20
ATOM     20  C   UNL     1       5.906   3.647  13.723  0.00  0.00    +0.000 C 
BRANCH  20  22
ATOM     21  O   UNL     1       7.146   4.103  11.714  0.00  0.00    +0.000 OA
ATOM     22  C   UNL     1       6.421   3.344  12.334  0.00  0.00    +0.000 C 
BRANCH  22  23
ATOM     23  O   UNL     1       5.943   2.206  11.775  0.00  0.00    +0.000 OA
ATOM     24  H   UNL     1       5.711   1.522  12.436  0.00  0.00    +0.000 HD
ENDBRANCH  22  23
ENDBRANCH  20  22
ENDBRANCH  19  20
ENDBRANCH   1  19
TORSDOF 4
ENDMDL
MODEL 8
REMARK VINA RESULT:      -7.4      1.364      3.788
REMARK  Name = 
REMARK  4 active torsions:
REMARK  status: ('A' for Active; 'I' for Inactive)
REMARK    1  A    between atoms: C_2  and  O_3
REMARK    2  A    between atoms: C_2  and  C_4
REMARK    3  A    between atoms: C_4  and  S_5
REMARK    4  A    between atoms: S_5  and  C_6
REMARK                            x       y       z     vdW  Elec       q    Type
REMARK                         _______ _______ _______ _____ _____    ______ ____
ROOT
ATOM      1  C   UNL     1       1.852   8.870  18.950  0.00  0.00    +0.000 A 
ATOM      2  N   UNL     1       1.279   8.364  20.048  0.00  0.00    +0.000 NA
ATOM      3  N   UNL     1       1.571   7.067  20.412  0.00  0.00    +0.000 NA
ATOM      4  C   UNL     1       2.414   6.303  19.679  0.00  0.00    +0.000 A 
ATOM      5  C   UNL     1       2.739   4.968  20.028  0.00  0.00    +0.000 A 
ATOM      6  C   UNL     1       2.201   4.361  21.190  0.00  0.00    +0.000 A 
ATOM      7  C   UNL     1       2.489   3.039  21.546  0.00  0.00    +0.000 A 
ATOM      8  C   UNL     1       3.330   2.287  20.750  0.00  0.00    +0.000 A 
ATOM      9  C   UNL     1       3.882   2.861  19.608  0.00  0.00    +0.000 A 
ATOM     10  C   UNL     1       3.612   4.201  19.217  0.00  0.00    +0.000 A 
ATOM     11  C   UNL     1       4.176   4.795  18.051  0.00  0.00    +0.000 A 
ATOM     12  C   UNL     1       5.060   4.104  17.180  0.00  0.00    +0.000 A 
ATOM     13  C   UNL     1       5.608   4.694  16.043  0.00  0.00    +0.000 A 
ATOM     14  C   UNL     1       5.292   6.004  15.739  0.00  0.00    +0.000 A 
ATOM     15  C   UNL     1       4.427   6.711  16.571  0.00  0.00    +0.000 A 
ATOM     16  C   UNL     1       3.847   6.137  17.730  0.00  0.00    +0.000 A 
ATOM     17  C   UNL     1       2.969   6.891  18.529  0.00  0.00    +0.000 A 
ATOM     18  N   UNL     1       2.682   8.166  18.176  0.00  0.00    +0.000 NA
ENDROOT
BRANCH   1  19
ATOM     19  S   UNL     1       1.557  10.574  18.529  0.00  0.00    +0.000 S 
BRANCH  19  20
ATOM     20  C   UNL     1       0.266  10.995  19.755  0.00  0.00    +0.000 C 
BRANCH  20  22
ATOM     21  O   UNL     1       1.202  12.680  21.192  0.00  0.00    +0.000 OA
ATOM     22  C   UNL     1       0.840  11.525  21.049  0.00  0.00    +0.000 C 
BRANCH  22  23
ATOM     23  O   UNL     1       1.020  10.601  22.024  0.00  0.00    +0.000 OA
ATOM     24  H   UNL     1       1.466  10.960  22.817  0.00  0.00    +0.000 HD
ENDBRANCH  22  23
ENDBRANCH  20  22
ENDBRANCH  19  20
ENDBRANCH   1  19
TORSDOF 4
ENDMDL
MODEL 9
REMARK VINA RESULT:      -7.4      4.541      6.707
REMARK  Name = 
REMARK  4 active torsions:
REMARK  status: ('A' for Active; 'I' for Inactive)
REMARK    1  A    between atoms: C_2  and  O_3
REMARK    2  A    between atoms: C_2  and  C_4
REMARK    3  A    between atoms: C_4  and  S_5
REMARK    4  A    between atoms: S_5  and  C_6
REMARK                            x       y       z     vdW  Elec       q    Type
REMARK                         _______ _______ _______ _____ _____    ______ ____
ROOT
ATOM      1  C   UNL     1       5.471   4.877  16.341  0.00  0.00    +0.000 A 
ATOM      2  N   UNL     1       5.205   6.122  15.931  0.00  0.00    +0.000 NA
ATOM      3  N   UNL     1       4.333   6.893  16.670  0.00  0.00    +0.000 NA
ATOM      4  C   UNL     1       3.742   6.411  17.788  0.00  0.00    +0.000 A 
ATOM      5  C   UNL     1       2.846   7.179  18.573  0.00  0.00    +0.000 A 
ATOM      6  C   UNL     1       2.528   8.517  18.230  0.00  0.00    +0.000 A 
ATOM      7  C   UNL     1       1.631   9.289  18.975  0.00  0.00    +0.000 A 
ATOM      8  C   UNL     1       1.027   8.744  20.091  0.00  0.00    +0.000 A 
ATOM      9  C   UNL     1       1.328   7.435  20.459  0.00  0.00    +0.000 A 
ATOM     10  C   UNL     1       2.236   6.623  19.726  0.00  0.00    +0.000 A 
ATOM     11  C   UNL     1       2.549   5.283  20.098  0.00  0.00    +0.000 A 
ATOM     12  C   UNL     1       1.988   4.645  21.235  0.00  0.00    +0.000 A 
ATOM     13  C   UNL     1       2.302   3.334  21.593  0.00  0.00    +0.000 A 
ATOM     14  C   UNL     1       3.198   2.618  20.822  0.00  0.00    +0.000 A 
ATOM     15  C   UNL     1       3.766   3.213  19.699  0.00  0.00    +0.000 A 
ATOM     16  C   UNL     1       3.461   4.540  19.304  0.00  0.00    +0.000 A 
ATOM     17  C   UNL     1       4.053   5.090  18.154  0.00  0.00    +0.000 A 
ATOM     18  N   UNL     1       4.912   4.337  17.428  0.00  0.00    +0.000 NA
ENDROOT
BRANCH   1  19
ATOM     19  S   UNL     1       6.670   3.912  15.448  0.00  0.00    +0.000 S 
BRANCH  19  20
ATOM     20  C   UNL     1       6.040   4.103  13.742  0.00  0.00    +0.000 C 
BRANCH  20  22
ATOM     21  O   UNL     1       7.277   4.072  11.680  0.00  0.00    +0.000 OA
ATOM     22  C   UNL     1       7.102   4.577  12.776  0.00  0.00    +0.000 C 
BRANCH  22  23
ATOM     23  O   UNL     1       7.922   5.547  13.249  0.00  0.00    +0.000 OA
ATOM     24  H   UNL     1       8.805   5.212  13.505  0.00  0.00    +0.000 HD
ENDBRANCH  22  23
ENDBRANCH  20  22
ENDBRANCH  19  20
ENDBRANCH   1  19
TORSDOF 4
ENDMDL
