MODEL 1
REMARK VINA RESULT:      -8.7      0.000      0.000
REMARK  Name = 
REMARK  6 active torsions:
REMARK  status: ('A' for Active; 'I' for Inactive)
REMARK    1  A    between atoms: C_2  and  C_15
REMARK    2  A    between atoms: N_3  and  C_4
REMARK    3  A    between atoms: N_7  and  C_8
REMARK    4  A    between atoms: C_19  and  N_20
REMARK    5  A    between atoms: N_20  and  S_21
REMARK    6  A    between atoms: S_21  and  C_24
REMARK                            x       y       z     vdW  Elec       q    Type
REMARK                         _______ _______ _______ _____ _____    ______ ____
ROOT
ATOM      1  C   UNL     1       2.778   6.289  19.244  0.00  0.00    +0.000 A 
ATOM      2  C   UNL     1       2.661   5.175  20.085  0.00  0.00    +0.000 A 
ATOM      3  C   UNL     1       3.178   3.943  19.686  0.00  0.00    +0.000 A 
ATOM      4  C   UNL     1       3.802   3.823  18.444  0.00  0.00    +0.000 A 
ATOM      5  C   UNL     1       3.952   4.943  17.626  0.00  0.00    +0.000 A 
ATOM      6  C   UNL     1       3.461   6.182  18.028  0.00  0.00    +0.000 A 
ENDROOT
BRANCH   1   8
ATOM      7  O   UNL     1       2.167   8.518  18.899  0.00  0.00    +0.000 OA
ATOM      8  C   UNL     1       2.147   7.565  19.669  0.00  0.00    +0.000 C 
ATOM      9  N   UNL     1       1.624   7.562  20.948  0.00  0.00    +0.000 N 
ATOM     10  H   UNL     1       1.733   6.749  21.541  0.00  0.00    +0.000 HD
BRANCH   9  11
ATOM     11  C   UNL     1       1.028   8.663  21.528  0.00  0.00    +0.000 A 
ATOM     12  C   UNL     1       1.189   9.249  22.794  0.00  0.00    +0.000 A 
ATOM     13  N   UNL     1       0.407  10.316  22.964  0.00  0.00    +0.000 NA
ATOM     14  N   UNL     1      -0.308  10.405  21.814  0.00  0.00    +0.000 N 
ATOM     15  C   UNL     1       0.081   9.441  20.906  0.00  0.00    +0.000 A 
BRANCH  14  16
ATOM     16  C   UNL     1      -1.328  11.386  21.669  0.00  0.00    +0.000 A 
ATOM     17  C   UNL     1      -2.008  11.837  22.811  0.00  0.00    +0.000 A 
ATOM     18  C   UNL     1      -3.041  12.767  22.695  0.00  0.00    +0.000 A 
ATOM     19  C   UNL     1      -3.404  13.252  21.441  0.00  0.00    +0.000 A 
ATOM     20  C   UNL     1      -2.729  12.814  20.302  0.00  0.00    +0.000 A 
ATOM     21  C   UNL     1      -1.690  11.885  20.410  0.00  0.00    +0.000 A 
ENDBRANCH  14  16
ENDBRANCH   9  11
ENDBRANCH   1   8
BRANCH   5  22
ATOM     22  N   UNL     1       4.569   4.798  16.357  0.00  0.00    +0.000 N 
ATOM     23  H   UNL     1       4.279   4.027  15.759  0.00  0.00    +0.000 HD
BRANCH  22  24
ATOM     24  S   UNL     1       6.194   5.217  16.175  0.00  0.00    +0.000 S 
ATOM     25  O   UNL     1       6.244   6.664  16.229  0.00  0.00    +0.000 OA
ATOM     26  O   UNL     1       7.003   4.401  17.055  0.00  0.00    +0.000 OA
BRANCH  24  27
ATOM     27  C   UNL     1       6.559   4.740  14.496  0.00  0.00    +0.000 A 
ATOM     28  C   UNL     1       5.765   3.771  13.866  0.00  0.00    +0.000 A 
ATOM     29  C   UNL     1       6.023   3.427  12.537  0.00  0.00    +0.000 A 
ATOM     30  C   UNL     1       7.061   4.052  11.843  0.00  0.00    +0.000 A 
ATOM     31  C   UNL     1       7.838   5.028  12.467  0.00  0.00    +0.000 A 
ATOM     32  C   UNL     1       7.583   5.384  13.793  0.00  0.00    +0.000 A 
ENDBRANCH  24  27
ENDBRANCH  22  24
ENDBRANCH   5  22
TORSDOF 6
ENDMDL
MODEL 2
REMARK VINA RESULT:      -8.7      3.112      5.214
REMARK  Name = 
REMARK  6 active torsions:
REMARK  status: ('A' for Active; 'I' for Inactive)
REMARK    1  A    between atoms: C_2  and  C_15
REMARK    2  A    between atoms: N_3  and  C_4
REMARK    3  A    between atoms: N_7  and  C_8
REMARK    4  A    between atoms: C_19  and  N_20
REMARK    5  A    between atoms: N_20  and  S_21
REMARK    6  A    between atoms: S_21  and  C_24
REMARK                            x       y       z     vdW  Elec       q    Type
REMARK                         _______ _______ _______ _____ _____    ______ ____
ROOT
ATOM      1  C   UNL     1       3.476   6.887  17.770  0.00  0.00    +0.000 A 
ATOM      2  C   UNL     1       4.271   7.417  16.745  0.00  0.00    +0.000 A 
ATOM      3  C   UNL     1       5.214   6.612  16.108  0.00  0.00    +0.000 A 
ATOM      4  C   UNL     1       5.369   5.282  16.501  0.00  0.00    +0.000 A 
ATOM      5  C   UNL     1       4.549   4.746  17.495  0.00  0.00    +0.000 A 
ATOM      6  C   UNL     1       3.588   5.536  18.119  0.00  0.00    +0.000 A 
ENDROOT
BRANCH   1   8
ATOM      7  O   UNL     1       2.259   7.560  19.648  0.00  0.00    +0.000 OA
ATOM      8  C   UNL     1       2.538   7.795  18.478  0.00  0.00    +0.000 C 
ATOM      9  N   UNL     1       2.023   8.820  17.708  0.00  0.00    +0.000 N 
ATOM     10  H   UNL     1       2.248   8.881  16.724  0.00  0.00    +0.000 HD
BRANCH   9  11
ATOM     11  C   UNL     1       1.113   9.744  18.183  0.00  0.00    +0.000 A 
ATOM     12  C   UNL     1       1.267  10.841  19.046  0.00  0.00    +0.000 A 
ATOM     13  N   UNL     1       0.119  11.484  19.260  0.00  0.00    +0.000 NA
ATOM     14  N   UNL     1      -0.807  10.776  18.567  0.00  0.00    +0.000 N 
ATOM     15  C   UNL     1      -0.224   9.739  17.867  0.00  0.00    +0.000 A 
BRANCH  14  16
ATOM     16  C   UNL     1      -2.186  11.118  18.639  0.00  0.00    +0.000 A 
ATOM     17  C   UNL     1      -3.095  10.472  17.787  0.00  0.00    +0.000 A 
ATOM     18  C   UNL     1      -4.447  10.816  17.807  0.00  0.00    +0.000 A 
ATOM     19  C   UNL     1      -4.900  11.807  18.674  0.00  0.00    +0.000 A 
ATOM     20  C   UNL     1      -4.005  12.450  19.529  0.00  0.00    +0.000 A 
ATOM     21  C   UNL     1      -2.649  12.108  19.518  0.00  0.00    +0.000 A 
ENDBRANCH  14  16
ENDBRANCH   9  11
ENDBRANCH   1   8
BRANCH   5  22
ATOM     22  N   UNL     1       4.737   3.400  17.897  0.00  0.00    +0.000 N 
ATOM     23  H   UNL     1       5.645   2.966  17.742  0.00  0.00    +0.000 HD
BRANCH  22  24
ATOM     24  S   UNL     1       3.446   2.317  17.788  0.00  0.00    +0.000 S 
ATOM     25  O   UNL     1       2.600   2.807  16.718  0.00  0.00    +0.000 OA
ATOM     26  O   UNL     1       3.953   0.963  17.789  0.00  0.00    +0.000 OA
BRANCH  24  27
ATOM     27  C   UNL     1       2.562   2.573  19.316  0.00  0.00    +0.000 A 
ATOM     28  C   UNL     1       3.251   2.490  20.534  0.00  0.00    +0.000 A 
ATOM     29  C   UNL     1       2.571   2.731  21.729  0.00  0.00    +0.000 A 
ATOM     30  C   UNL     1       1.213   3.059  21.705  0.00  0.00    +0.000 A 
ATOM     31  C   UNL     1       0.535   3.159  20.491  0.00  0.00    +0.000 A 
ATOM     32  C   UNL     1       1.209   2.926  19.291  0.00  0.00    +0.000 A 
ENDBRANCH  24  27
ENDBRANCH  22  24
ENDBRANCH   5  22
TORSDOF 6
ENDMDL
MODEL 3
REMARK VINA RESULT:      -8.7      2.184      2.865
REMARK  Name = 
REMARK  6 active torsions:
REMARK  status: ('A' for Active; 'I' for Inactive)
REMARK    1  A    between atoms: C_2  and  C_15
REMARK    2  A    between atoms: N_3  and  C_4
REMARK    3  A    between atoms: N_7  and  C_8
REMARK    4  A    between atoms: C_19  and  N_20
REMARK    5  A    between atoms: N_20  and  S_21
REMARK    6  A    between atoms: S_21  and  C_24
REMARK                            x       y       z     vdW  Elec       q    Type
REMARK                         _______ _______ _______ _____ _____    ______ ____
ROOT
ATOM      1  C   UNL     1       2.509   5.533  18.834  0.00  0.00    +0.000 A 
ATOM      2  C   UNL     1       1.469   4.594  18.815  0.00  0.00    +0.000 A 
ATOM      3  C   UNL     1       1.690   3.321  18.292  0.00  0.00    +0.000 A 
ATOM      4  C   UNL     1       2.946   2.990  17.781  0.00  0.00    +0.000 A 
ATOM      5  C   UNL     1       3.990   3.913  17.838  0.00  0.00    +0.000 A 
ATOM      6  C   UNL     1       3.784   5.178  18.381  0.00  0.00    +0.000 A 
ENDROOT
BRANCH   1   8
ATOM      7  O   UNL     1       2.599   7.863  18.667  0.00  0.00    +0.000 OA
ATOM      8  C   UNL     1       2.215   6.904  19.327  0.00  0.00    +0.000 C 
ATOM      9  N   UNL     1       1.555   6.961  20.539  0.00  0.00    +0.000 N 
ATOM     10  H   UNL     1       1.354   6.111  21.050  0.00  0.00    +0.000 HD
BRANCH   9  11
ATOM     11  C   UNL     1       1.224   8.144  21.169  0.00  0.00    +0.000 A 
ATOM     12  C   UNL     1       1.818   8.819  22.248  0.00  0.00    +0.000 A 
ATOM     13  N   UNL     1       1.175   9.946  22.557  0.00  0.00    +0.000 NA
ATOM     14  N   UNL     1       0.124   9.989  21.701  0.00  0.00    +0.000 N 
ATOM     15  C   UNL     1       0.154   8.929  20.817  0.00  0.00    +0.000 A 
BRANCH  14  16
ATOM     16  C   UNL     1      -0.851  11.020  21.801  0.00  0.00    +0.000 A 
ATOM     17  C   UNL     1      -1.430  11.292  23.050  0.00  0.00    +0.000 A 
ATOM     18  C   UNL     1      -2.418  12.270  23.171  0.00  0.00    +0.000 A 
ATOM     19  C   UNL     1      -2.835  12.981  22.048  0.00  0.00    +0.000 A 
ATOM     20  C   UNL     1      -2.260  12.722  20.804  0.00  0.00    +0.000 A 
ATOM     21  C   UNL     1      -1.266  11.746  20.676  0.00  0.00    +0.000 A 
ENDBRANCH  14  16
ENDBRANCH   9  11
ENDBRANCH   1   8
BRANCH   5  22
ATOM     22  N   UNL     1       5.252   3.567  17.294  0.00  0.00    +0.000 N 
ATOM     23  H   UNL     1       5.927   3.091  17.889  0.00  0.00    +0.000 HD
BRANCH  22  24
ATOM     24  S   UNL     1       5.964   4.581  16.147  0.00  0.00    +0.000 S 
ATOM     25  O   UNL     1       6.911   3.762  15.418  0.00  0.00    +0.000 OA
ATOM     26  O   UNL     1       4.933   5.332  15.463  0.00  0.00    +0.000 OA
BRANCH  24  27
ATOM     27  C   UNL     1       6.909   5.725  17.136  0.00  0.00    +0.000 A 
ATOM     28  C   UNL     1       6.999   7.068  16.744  0.00  0.00    +0.000 A 
ATOM     29  C   UNL     1       7.703   7.973  17.540  0.00  0.00    +0.000 A 
ATOM     30  C   UNL     1       8.308   7.540  18.722  0.00  0.00    +0.000 A 
ATOM     31  C   UNL     1       8.203   6.207  19.119  0.00  0.00    +0.000 A 
ATOM     32  C   UNL     1       7.494   5.296  18.333  0.00  0.00    +0.000 A 
ENDBRANCH  24  27
ENDBRANCH  22  24
ENDBRANCH   5  22
TORSDOF 6
ENDMDL
MODEL 4
REMARK VINA RESULT:      -8.6      1.247      1.390
REMARK  Name = 
REMARK  6 active torsions:
REMARK  status: ('A' for Active; 'I' for Inactive)
REMARK    1  A    between atoms: C_2  and  C_15
REMARK    2  A    between atoms: N_3  and  C_4
REMARK    3  A    between atoms: N_7  and  C_8
REMARK    4  A    between atoms: C_19  and  N_20
REMARK    5  A    between atoms: N_20  and  S_21
REMARK    6  A    between atoms: S_21  and  C_24
REMARK                            x       y       z     vdW  Elec       q    Type
REMARK                         _______ _______ _______ _____ _____    ______ ____
ROOT
ATOM      1  C   UNL     1       2.659   5.009  19.065  0.00  0.00    +0.000 A 
ATOM      2  C   UNL     1       1.892   4.005  18.460  0.00  0.00    +0.000 A 
ATOM      3  C   UNL     1       2.454   3.203  17.467  0.00  0.00    +0.000 A 
ATOM      4  C   UNL     1       3.776   3.411  17.074  0.00  0.00    +0.000 A 
ATOM      5  C   UNL     1       4.549   4.385  17.706  0.00  0.00    +0.000 A 
ATOM      6  C   UNL     1       4.004   5.174  18.715  0.00  0.00    +0.000 A 
ENDROOT
BRANCH   1   8
ATOM      7  O   UNL     1       1.302   5.387  20.930  0.00  0.00    +0.000 OA
ATOM      8  C   UNL     1       2.004   5.894  20.063  0.00  0.00    +0.000 C 
ATOM      9  N   UNL     1       2.224   7.246  19.880  0.00  0.00    +0.000 N 
ATOM     10  H   UNL     1       2.752   7.573  19.082  0.00  0.00    +0.000 HD
BRANCH   9  11
ATOM     11  C   UNL     1       1.674   8.221  20.687  0.00  0.00    +0.000 A 
ATOM     12  C   UNL     1       1.865   8.520  22.046  0.00  0.00    +0.000 A 
ATOM     13  N   UNL     1       1.126   9.554  22.448  0.00  0.00    +0.000 NA
ATOM     14  N   UNL     1       0.410   9.911  21.353  0.00  0.00    +0.000 N 
ATOM     15  C   UNL     1       0.755   9.147  20.256  0.00  0.00    +0.000 A 
BRANCH  14  16
ATOM     16  C   UNL     1      -0.573  10.937  21.432  0.00  0.00    +0.000 A 
ATOM     17  C   UNL     1      -0.960  11.414  22.694  0.00  0.00    +0.000 A 
ATOM     18  C   UNL     1      -1.950  12.390  22.805  0.00  0.00    +0.000 A 
ATOM     19  C   UNL     1      -2.561  12.896  21.660  0.00  0.00    +0.000 A 
ATOM     20  C   UNL     1      -2.177  12.433  20.402  0.00  0.00    +0.000 A 
ATOM     21  C   UNL     1      -1.182  11.458  20.282  0.00  0.00    +0.000 A 
ENDBRANCH  14  16
ENDBRANCH   9  11
ENDBRANCH   1   8
BRANCH   5  22
ATOM     22  N   UNL     1       5.884   4.597  17.278  0.00  0.00    +0.000 N 
ATOM     23  H   UNL     1       6.642   4.407  17.930  0.00  0.00    +0.000 HD
BRANCH  22  24
ATOM     24  S   UNL     1       6.217   5.860  16.208  0.00  0.00    +0.000 S 
ATOM     25  O   UNL     1       4.995   6.631  16.103  0.00  0.00    +0.000 OA
ATOM     26  O   UNL     1       7.472   6.481  16.572  0.00  0.00    +0.000 OA
BRANCH  24  27
ATOM     27  C   UNL     1       6.450   5.029  14.647  0.00  0.00    +0.000 A 
ATOM     28  C   UNL     1       5.488   4.111  14.203  0.00  0.00    +0.000 A 
ATOM     29  C   UNL     1       5.648   3.491  12.963  0.00  0.00    +0.000 A 
ATOM     30  C   UNL     1       6.757   3.792  12.169  0.00  0.00    +0.000 A 
ATOM     31  C   UNL     1       7.703   4.720  12.605  0.00  0.00    +0.000 A 
ATOM     32  C   UNL     1       7.548   5.350  13.841  0.00  0.00    +0.000 A 
ENDBRANCH  24  27
ENDBRANCH  22  24
ENDBRANCH   5  22
TORSDOF 6
ENDMDL
MODEL 5
REMARK VINA RESULT:      -8.6      2.804      3.389
REMARK  Name = 
REMARK  6 active torsions:
REMARK  status: ('A' for Active; 'I' for Inactive)
REMARK    1  A    between atoms: C_2  and  C_15
REMARK    2  A    between atoms: N_3  and  C_4
REMARK    3  A    between atoms: N_7  and  C_8
REMARK    4  A    between atoms: C_19  and  N_20
REMARK    5  A    between atoms: N_20  and  S_21
REMARK    6  A    between atoms: S_21  and  C_24
REMARK                            x       y       z     vdW  Elec       q    Type
REMARK                         _______ _______ _______ _____ _____    ______ ____
ROOT
ATOM      1  C   UNL     1       2.684   6.117  18.287  0.00  0.00    +0.000 A 
ATOM      2  C   UNL     1       1.762   5.069  18.171  0.00  0.00    +0.000 A 
ATOM      3  C   UNL     1       2.148   3.863  17.589  0.00  0.00    +0.000 A 
ATOM      4  C   UNL     1       3.452   3.708  17.116  0.00  0.00    +0.000 A 
ATOM      5  C   UNL     1       4.379   4.739  17.269  0.00  0.00    +0.000 A 
ATOM      6  C   UNL     1       4.008   5.938  17.871  0.00  0.00    +0.000 A 
ENDROOT
BRANCH   1   8
ATOM      7  O   UNL     1       2.097   7.528  20.056  0.00  0.00    +0.000 OA
ATOM      8  C   UNL     1       2.215   7.414  18.841  0.00  0.00    +0.000 C 
ATOM      9  N   UNL     1       1.908   8.376  17.899  0.00  0.00    +0.000 N 
ATOM     10  H   UNL     1       1.957   8.158  16.912  0.00  0.00    +0.000 HD
BRANCH   9  11
ATOM     11  C   UNL     1       1.428   9.630  18.222  0.00  0.00    +0.000 A 
ATOM     12  C   UNL     1       0.156  10.061  18.630  0.00  0.00    +0.000 A 
ATOM     13  N   UNL     1       0.109  11.377  18.839  0.00  0.00    +0.000 NA
ATOM     14  N   UNL     1       1.351  11.821  18.525  0.00  0.00    +0.000 N 
ATOM     15  C   UNL     1       2.187  10.775  18.189  0.00  0.00    +0.000 A 
BRANCH  14  16
ATOM     16  C   UNL     1       1.650  13.212  18.540  0.00  0.00    +0.000 A 
ATOM     17  C   UNL     1       0.645  14.121  18.904  0.00  0.00    +0.000 A 
ATOM     18  C   UNL     1       0.896  15.493  18.888  0.00  0.00    +0.000 A 
ATOM     19  C   UNL     1       2.150  15.967  18.509  0.00  0.00    +0.000 A 
ATOM     20  C   UNL     1       3.156  15.070  18.152  0.00  0.00    +0.000 A 
ATOM     21  C   UNL     1       2.913  13.693  18.169  0.00  0.00    +0.000 A 
ENDBRANCH  14  16
ENDBRANCH   9  11
ENDBRANCH   1   8
BRANCH   5  22
ATOM     22  N   UNL     1       5.692   4.572  16.762  0.00  0.00    +0.000 N 
ATOM     23  H   UNL     1       6.392   4.130  17.355  0.00  0.00    +0.000 HD
BRANCH  22  24
ATOM     24  S   UNL     1       6.330   5.737  15.719  0.00  0.00    +0.000 S 
ATOM     25  O   UNL     1       5.309   6.756  15.583  0.00  0.00    +0.000 OA
ATOM     26  O   UNL     1       7.676   6.067  16.134  0.00  0.00    +0.000 OA
BRANCH  24  27
ATOM     27  C   UNL     1       6.432   4.883  14.157  0.00  0.00    +0.000 A 
ATOM     28  C   UNL     1       7.516   5.131  13.304  0.00  0.00    +0.000 A 
ATOM     29  C   UNL     1       7.620   4.433  12.099  0.00  0.00    +0.000 A 
ATOM     30  C   UNL     1       6.651   3.488  11.755  0.00  0.00    +0.000 A 
ATOM     31  C   UNL     1       5.583   3.229  12.614  0.00  0.00    +0.000 A 
ATOM     32  C   UNL     1       5.475   3.918  13.824  0.00  0.00    +0.000 A 
ENDBRANCH  24  27
ENDBRANCH  22  24
ENDBRANCH   5  22
TORSDOF 6
ENDMDL
MODEL 6
REMARK VINA RESULT:      -8.6      2.906      3.539
REMARK  Name = 
REMARK  6 active torsions:
REMARK  status: ('A' for Active; 'I' for Inactive)
REMARK    1  A    between atoms: C_2  and  C_15
REMARK    2  A    between atoms: N_3  and  C_4
REMARK    3  A    between atoms: N_7  and  C_8
REMARK    4  A    between atoms: C_19  and  N_20
REMARK    5  A    between atoms: N_20  and  S_21
REMARK    6  A    between atoms: S_21  and  C_24
REMARK                            x       y       z     vdW  Elec       q    Type
REMARK                         _______ _______ _______ _____ _____    ______ ____
ROOT
ATOM      1  C   UNL     1       2.905   6.019  18.809  0.00  0.00    +0.000 A 
ATOM      2  C   UNL     1       2.119   5.124  18.073  0.00  0.00    +0.000 A 
ATOM      3  C   UNL     1       2.663   3.919  17.632  0.00  0.00    +0.000 A 
ATOM      4  C   UNL     1       3.994   3.612  17.920  0.00  0.00    +0.000 A 
ATOM      5  C   UNL     1       4.762   4.488  18.688  0.00  0.00    +0.000 A 
ATOM      6  C   UNL     1       4.219   5.682  19.152  0.00  0.00    +0.000 A 
ENDROOT
BRANCH   1   8
ATOM      7  O   UNL     1       2.072   7.539  20.377  0.00  0.00    +0.000 OA
ATOM      8  C   UNL     1       2.315   7.327  19.194  0.00  0.00    +0.000 C 
ATOM      9  N   UNL     1       2.051   8.183  18.142  0.00  0.00    +0.000 N 
ATOM     10  H   UNL     1       2.210   7.882  17.189  0.00  0.00    +0.000 HD
BRANCH   9  11
ATOM     11  C   UNL     1       1.476   9.427  18.301  0.00  0.00    +0.000 A 
ATOM     12  C   UNL     1       0.134   9.821  18.426  0.00  0.00    +0.000 A 
ATOM     13  N   UNL     1       0.002  11.142  18.556  0.00  0.00    +0.000 NA
ATOM     14  N   UNL     1       1.268  11.624  18.474  0.00  0.00    +0.000 N 
ATOM     15  C   UNL     1       2.188  10.601  18.363  0.00  0.00    +0.000 A 
BRANCH  14  16
ATOM     16  C   UNL     1       1.511  13.026  18.479  0.00  0.00    +0.000 A 
ATOM     17  C   UNL     1       2.795  13.495  18.161  0.00  0.00    +0.000 A 
ATOM     18  C   UNL     1       3.075  14.862  18.197  0.00  0.00    +0.000 A 
ATOM     19  C   UNL     1       2.078  15.767  18.553  0.00  0.00    +0.000 A 
ATOM     20  C   UNL     1       0.798  15.309  18.864  0.00  0.00    +0.000 A 
ATOM     21  C   UNL     1       0.509  13.942  18.826  0.00  0.00    +0.000 A 
ENDBRANCH  14  16
ENDBRANCH   9  11
ENDBRANCH   1   8
BRANCH   5  22
ATOM     22  N   UNL     1       6.119   4.171  18.951  0.00  0.00    +0.000 N 
ATOM     23  H   UNL     1       6.397   3.975  19.911  0.00  0.00    +0.000 HD
BRANCH  22  24
ATOM     24  S   UNL     1       7.332   4.905  18.035  0.00  0.00    +0.000 S 
ATOM     25  O   UNL     1       7.423   6.271  18.510  0.00  0.00    +0.000 OA
ATOM     26  O   UNL     1       8.492   4.042  17.993  0.00  0.00    +0.000 OA
BRANCH  24  27
ATOM     27  C   UNL     1       6.633   4.964  16.395  0.00  0.00    +0.000 A 
ATOM     28  C   UNL     1       6.782   3.863  15.541  0.00  0.00    +0.000 A 
ATOM     29  C   UNL     1       6.200   3.891  14.272  0.00  0.00    +0.000 A 
ATOM     30  C   UNL     1       5.468   5.009  13.864  0.00  0.00    +0.000 A 
ATOM     31  C   UNL     1       5.306   6.095  14.723  0.00  0.00    +0.000 A 
ATOM     32  C   UNL     1       5.878   6.073  15.996  0.00  0.00    +0.000 A 
ENDBRANCH  24  27
ENDBRANCH  22  24
ENDBRANCH   5  22
TORSDOF 6
ENDMDL
MODEL 7
REMARK VINA RESULT:      -8.6      1.992      2.646
REMARK  Name = 
REMARK  6 active torsions:
REMARK  status: ('A' for Active; 'I' for Inactive)
REMARK    1  A    between atoms: C_2  and  C_15
REMARK    2  A    between atoms: N_3  and  C_4
REMARK    3  A    between atoms: N_7  and  C_8
REMARK    4  A    between atoms: C_19  and  N_20
REMARK    5  A    between atoms: N_20  and  S_21
REMARK    6  A    between atoms: S_21  and  C_24
REMARK                            x       y       z     vdW  Elec       q    Type
REMARK                         _______ _______ _______ _____ _____    ______ ____
ROOT
ATOM      1  C   UNL     1       3.078   6.010  18.974  0.00  0.00    +0.000 A 
ATOM      2  C   UNL     1       3.165   5.018  19.959  0.00  0.00    +0.000 A 
ATOM      3  C   UNL     1       3.700   3.770  19.645  0.00  0.00    +0.000 A 
ATOM      4  C   UNL     1       4.139   3.510  18.346  0.00  0.00    +0.000 A 
ATOM      5  C   UNL     1       4.088   4.513  17.378  0.00  0.00    +0.000 A 
ATOM      6  C   UNL     1       3.578   5.770  17.689  0.00  0.00    +0.000 A 
ENDROOT
BRANCH   1   8
ATOM      7  O   UNL     1       2.422   8.201  18.494  0.00  0.00    +0.000 OA
ATOM      8  C   UNL     1       2.431   7.300  19.325  0.00  0.00    +0.000 C 
ATOM      9  N   UNL     1       1.928   7.372  20.610  0.00  0.00    +0.000 N 
ATOM     10  H   UNL     1       2.059   6.602  21.253  0.00  0.00    +0.000 HD
BRANCH   9  11
ATOM     11  C   UNL     1       1.320   8.499  21.126  0.00  0.00    +0.000 A 
ATOM     12  C   UNL     1       1.437   9.128  22.377  0.00  0.00    +0.000 A 
ATOM     13  N   UNL     1       0.660  10.207  22.477  0.00  0.00    +0.000 NA
ATOM     14  N   UNL     1      -0.006  10.262  21.297  0.00  0.00    +0.000 N 
ATOM     15  C   UNL     1       0.407   9.263  20.440  0.00  0.00    +0.000 A 
BRANCH  14  16
ATOM     16  C   UNL     1      -1.010  11.247  21.077  0.00  0.00    +0.000 A 
ATOM     17  C   UNL     1      -1.558  11.920  22.180  0.00  0.00    +0.000 A 
ATOM     18  C   UNL     1      -2.572  12.861  21.998  0.00  0.00    +0.000 A 
ATOM     19  C   UNL     1      -3.046  13.135  20.718  0.00  0.00    +0.000 A 
ATOM     20  C   UNL     1      -2.503  12.475  19.616  0.00  0.00    +0.000 A 
ATOM     21  C   UNL     1      -1.484  11.534  19.789  0.00  0.00    +0.000 A 
ENDBRANCH  14  16
ENDBRANCH   9  11
ENDBRANCH   1   8
BRANCH   5  22
ATOM     22  N   UNL     1       4.518   4.225  16.058  0.00  0.00    +0.000 N 
ATOM     23  H   UNL     1       4.456   3.265  15.722  0.00  0.00    +0.000 HD
BRANCH  22  24
ATOM     24  S   UNL     1       5.818   5.083  15.405  0.00  0.00    +0.000 S 
ATOM     25  O   UNL     1       6.632   4.109  14.707  0.00  0.00    +0.000 OA
ATOM     26  O   UNL     1       5.325   6.270  14.741  0.00  0.00    +0.000 OA
BRANCH  24  27
ATOM     27  C   UNL     1       6.735   5.601  16.845  0.00  0.00    +0.000 A 
ATOM     28  C   UNL     1       7.293   4.635  17.692  0.00  0.00    +0.000 A 
ATOM     29  C   UNL     1       8.047   5.039  18.796  0.00  0.00    +0.000 A 
ATOM     30  C   UNL     1       8.246   6.398  19.046  0.00  0.00    +0.000 A 
ATOM     31  C   UNL     1       7.704   7.357  18.190  0.00  0.00    +0.000 A 
ATOM     32  C   UNL     1       6.955   6.963  17.080  0.00  0.00    +0.000 A 
ENDBRANCH  24  27
ENDBRANCH  22  24
ENDBRANCH   5  22
TORSDOF 6
ENDMDL
MODEL 8
REMARK VINA RESULT:      -8.5      2.196      2.951
REMARK  Name = 
REMARK  6 active torsions:
REMARK  status: ('A' for Active; 'I' for Inactive)
REMARK    1  A    between atoms: C_2  and  C_15
REMARK    2  A    between atoms: N_3  and  C_4
REMARK    3  A    between atoms: N_7  and  C_8
REMARK    4  A    between atoms: C_19  and  N_20
REMARK    5  A    between atoms: N_20  and  S_21
REMARK    6  A    between atoms: S_21  and  C_24
REMARK                            x       y       z     vdW  Elec       q    Type
REMARK                         _______ _______ _______ _____ _____    ______ ____
ROOT
ATOM      1  C   UNL     1       2.554   5.464  18.840  0.00  0.00    +0.000 A 
ATOM      2  C   UNL     1       1.536   4.505  18.908  0.00  0.00    +0.000 A 
ATOM      3  C   UNL     1       1.748   3.226  18.394  0.00  0.00    +0.000 A 
ATOM      4  C   UNL     1       2.973   2.909  17.807  0.00  0.00    +0.000 A 
ATOM      5  C   UNL     1       3.999   3.854  17.777  0.00  0.00    +0.000 A 
ATOM      6  C   UNL     1       3.804   5.125  18.309  0.00  0.00    +0.000 A 
ENDROOT
BRANCH   1   8
ATOM      7  O   UNL     1       2.669   7.792  18.672  0.00  0.00    +0.000 OA
ATOM      8  C   UNL     1       2.266   6.838  19.326  0.00  0.00    +0.000 C 
ATOM      9  N   UNL     1       1.587   6.902  20.528  0.00  0.00    +0.000 N 
ATOM     10  H   UNL     1       1.370   6.056  21.037  0.00  0.00    +0.000 HD
BRANCH   9  11
ATOM     11  C   UNL     1       1.258   8.089  21.151  0.00  0.00    +0.000 A 
ATOM     12  C   UNL     1       1.871   8.787  22.204  0.00  0.00    +0.000 A 
ATOM     13  N   UNL     1       1.222   9.909  22.516  0.00  0.00    +0.000 NA
ATOM     14  N   UNL     1       0.147   9.927  21.689  0.00  0.00    +0.000 N 
ATOM     15  C   UNL     1       0.167   8.856  20.818  0.00  0.00    +0.000 A 
BRANCH  14  16
ATOM     16  C   UNL     1      -0.839  10.947  21.801  0.00  0.00    +0.000 A 
ATOM     17  C   UNL     1      -1.228  11.649  20.650  0.00  0.00    +0.000 A 
ATOM     18  C   UNL     1      -2.162  12.681  20.736  0.00  0.00    +0.000 A 
ATOM     19  C   UNL     1      -2.712  13.021  21.970  0.00  0.00    +0.000 A 
ATOM     20  C   UNL     1      -2.336  12.325  23.118  0.00  0.00    +0.000 A 
ATOM     21  C   UNL     1      -1.403  11.286  23.039  0.00  0.00    +0.000 A 
ENDBRANCH  14  16
ENDBRANCH   9  11
ENDBRANCH   1   8
BRANCH   5  22
ATOM     22  N   UNL     1       5.229   3.522  17.155  0.00  0.00    +0.000 N 
ATOM     23  H   UNL     1       5.908   2.971  17.678  0.00  0.00    +0.000 HD
BRANCH  22  24
ATOM     24  S   UNL     1       5.935   4.617  16.081  0.00  0.00    +0.000 S 
ATOM     25  O   UNL     1       6.912   3.863  15.323  0.00  0.00    +0.000 OA
ATOM     26  O   UNL     1       4.898   5.383  15.426  0.00  0.00    +0.000 OA
BRANCH  24  27
ATOM     27  C   UNL     1       6.838   5.721  17.152  0.00  0.00    +0.000 A 
ATOM     28  C   UNL     1       7.415   5.224  18.329  0.00  0.00    +0.000 A 
ATOM     29  C   UNL     1       8.158   6.078  19.147  0.00  0.00    +0.000 A 
ATOM     30  C   UNL     1       8.329   7.416  18.786  0.00  0.00    +0.000 A 
ATOM     31  C   UNL     1       7.769   7.904  17.606  0.00  0.00    +0.000 A 
ATOM     32  C   UNL     1       7.031   7.056  16.778  0.00  0.00    +0.000 A 
ENDBRANCH  24  27
ENDBRANCH  22  24
ENDBRANCH   5  22
TORSDOF 6
ENDMDL
MODEL 9
REMARK VINA RESULT:      -8.5      2.478      3.071
REMARK  Name = 
REMARK  6 active torsions:
REMARK  status: ('A' for Active; 'I' for Inactive)
REMARK    1  A    between atoms: C_2  and  C_15
REMARK    2  A    between atoms: N_3  and  C_4
REMARK    3  A    between atoms: N_7  and  C_8
REMARK    4  A    between atoms: C_19  and  N_20
REMARK    5  A    between atoms: N_20  and  S_21
REMARK    6  A    between atoms: S_21  and  C_24
REMARK                            x       y       z     vdW  Elec       q    Type
REMARK                         _______ _______ _______ _____ _____    ______ ____
ROOT
ATOM      1  C   UNL     1       2.667   6.567  19.180  0.00  0.00    +0.000 A 
ATOM      2  C   UNL     1       2.593   5.510  20.097  0.00  0.00    +0.000 A 
ATOM      3  C   UNL     1       3.154   4.274  19.781  0.00  0.00    +0.000 A 
ATOM      4  C   UNL     1       3.782   4.092  18.549  0.00  0.00    +0.000 A 
ATOM      5  C   UNL     1       3.889   5.157  17.655  0.00  0.00    +0.000 A 
ATOM      6  C   UNL     1       3.353   6.402  17.972  0.00  0.00    +0.000 A 
ENDROOT
BRANCH   1   8
ATOM      7  O   UNL     1       1.694   8.065  20.687  0.00  0.00    +0.000 OA
ATOM      8  C   UNL     1       1.990   7.845  19.518  0.00  0.00    +0.000 C 
ATOM      9  N   UNL     1       1.714   8.664  18.440  0.00  0.00    +0.000 N 
ATOM     10  H   UNL     1       1.922   8.356  17.500  0.00  0.00    +0.000 HD
BRANCH   9  11
ATOM     11  C   UNL     1       1.062   9.876  18.554  0.00  0.00    +0.000 A 
ATOM     12  C   UNL     1      -0.304  10.196  18.604  0.00  0.00    +0.000 A 
ATOM     13  N   UNL     1      -0.516  11.508  18.712  0.00  0.00    +0.000 NA
ATOM     14  N   UNL     1       0.724  12.059  18.690  0.00  0.00    +0.000 N 
ATOM     15  C   UNL     1       1.704  11.088  18.640  0.00  0.00    +0.000 A 
BRANCH  14  16
ATOM     16  C   UNL     1       0.889  13.472  18.692  0.00  0.00    +0.000 A 
ATOM     17  C   UNL     1      -0.250  14.291  18.750  0.00  0.00    +0.000 A 
ATOM     18  C   UNL     1      -0.121  15.680  18.712  0.00  0.00    +0.000 A 
ATOM     19  C   UNL     1       1.141  16.260  18.615  0.00  0.00    +0.000 A 
ATOM     20  C   UNL     1       2.278  15.454  18.564  0.00  0.00    +0.000 A 
ATOM     21  C   UNL     1       2.158  14.061  18.605  0.00  0.00    +0.000 A 
ENDBRANCH  14  16
ENDBRANCH   9  11
ENDBRANCH   1   8
BRANCH   5  22
ATOM     22  N   UNL     1       4.510   4.947  16.397  0.00  0.00    +0.000 N 
ATOM     23  H   UNL     1       4.182   4.180  15.813  0.00  0.00    +0.000 HD
BRANCH  22  24
ATOM     24  S   UNL     1       6.159   5.268  16.225  0.00  0.00    +0.000 S 
ATOM     25  O   UNL     1       6.300   6.707  16.321  0.00  0.00    +0.000 OA
ATOM     26  O   UNL     1       6.913   4.377  17.079  0.00  0.00    +0.000 OA
BRANCH  24  27
ATOM     27  C   UNL     1       6.493   4.818  14.532  0.00  0.00    +0.000 A 
ATOM     28  C   UNL     1       7.571   5.411  13.860  0.00  0.00    +0.000 A 
ATOM     29  C   UNL     1       7.859   5.029  12.549  0.00  0.00    +0.000 A 
ATOM     30  C   UNL     1       7.081   4.056  11.917  0.00  0.00    +0.000 A 
ATOM     31  C   UNL     1       6.021   3.454  12.595  0.00  0.00    +0.000 A 
ATOM     32  C   UNL     1       5.729   3.825  13.909  0.00  0.00    +0.000 A 
ENDBRANCH  24  27
ENDBRANCH  22  24
ENDBRANCH   5  22
TORSDOF 6
ENDMDL
