MODEL 1
REMARK VINA RESULT:      -6.4      0.000      0.000
REMARK  Name = 
REMARK  2 active torsions:
REMARK  status: ('A' for Active; 'I' for Inactive)
REMARK    1  A    between atoms: C_5  and  C_6
REMARK    2  A    between atoms: C_11  and  C_12
REMARK                            x       y       z     vdW  Elec       q    Type
REMARK                         _______ _______ _______ _____ _____    ______ ____
ROOT
ATOM      1  C   UNL     1       3.719   6.098  17.612  0.00  0.00    +0.000 A 
ATOM      2  N   UNL     1       4.570   6.778  16.802  0.00  0.00    +0.000 NA
ATOM      3  C   UNL     1       5.347   6.059  15.988  0.00  0.00    +0.000 A 
ATOM      4  N   UNL     1       5.365   4.723  15.913  0.00  0.00    +0.000 NA
ATOM      5  C   UNL     1       4.506   4.080  16.733  0.00  0.00    +0.000 A 
ATOM      6  C   UNL     1       3.641   4.705  17.620  0.00  0.00    +0.000 A 
ENDROOT
BRANCH   1  11
ATOM      7 BR   UNL     1       0.425  10.329  19.548  0.00  0.00    +0.000 Br
ATOM      8  C   UNL     1       1.485   8.805  19.306  0.00  0.00    +0.000 A 
ATOM      9  C   UNL     1       1.669   7.852  20.271  0.00  0.00    +0.000 A 
ATOM     10  C   UNL     1       2.549   6.823  19.814  0.00  0.00    +0.000 A 
ATOM     11  C   UNL     1       2.927   6.981  18.489  0.00  0.00    +0.000 A 
ATOM     12  S   UNL     1       2.302   8.468  17.864  0.00  0.00    +0.000 S 
ENDBRANCH   1  11
BRANCH   6  13
ATOM     13  C   UNL     1       2.735   3.908  18.453  0.00  0.00    +0.000 A 
ATOM     14  C   UNL     1       1.352   3.606  18.212  0.00  0.00    +0.000 A 
ATOM     15  C   UNL     1       0.763   2.926  19.256  0.00  0.00    +0.000 A 
ATOM     16  S   UNL     1       1.888   2.539  20.479  0.00  0.00    +0.000 S 
ATOM     17  C   UNL     1       3.152   3.335  19.643  0.00  0.00    +0.000 A 
ENDBRANCH   6  13
TORSDOF 2
ENDMDL
MODEL 2
REMARK VINA RESULT:      -6.3      3.566      5.386
REMARK  Name = 
REMARK  2 active torsions:
REMARK  status: ('A' for Active; 'I' for Inactive)
REMARK    1  A    between atoms: C_5  and  C_6
REMARK    2  A    between atoms: C_11  and  C_12
REMARK                            x       y       z     vdW  Elec       q    Type
REMARK                         _______ _______ _______ _____ _____    ______ ____
ROOT
ATOM      1  C   UNL     1       3.587   4.183  19.707  0.00  0.00    +0.000 A 
ATOM      2  N   UNL     1       3.710   2.953  20.265  0.00  0.00    +0.000 NA
ATOM      3  C   UNL     1       2.756   2.569  21.119  0.00  0.00    +0.000 A 
ATOM      4  N   UNL     1       1.697   3.303  21.479  0.00  0.00    +0.000 NA
ATOM      5  C   UNL     1       1.607   4.521  20.904  0.00  0.00    +0.000 A 
ATOM      6  C   UNL     1       2.523   5.038  19.997  0.00  0.00    +0.000 A 
ENDROOT
BRANCH   1  11
ATOM      7 BR   UNL     1       6.876   4.764  15.087  0.00  0.00    +0.000 Br
ATOM      8  C   UNL     1       6.103   4.782  16.792  0.00  0.00    +0.000 A 
ATOM      9  C   UNL     1       6.622   5.481  17.849  0.00  0.00    +0.000 A 
ATOM     10  C   UNL     1       5.838   5.284  19.027  0.00  0.00    +0.000 A 
ATOM     11  C   UNL     1       4.703   4.521  18.803  0.00  0.00    +0.000 A 
ATOM     12  S   UNL     1       4.685   3.943  17.172  0.00  0.00    +0.000 S 
ENDBRANCH   1  11
BRANCH   6  13
ATOM     13  C   UNL     1       2.318   6.370  19.418  0.00  0.00    +0.000 A 
ATOM     14  C   UNL     1       2.541   6.786  18.062  0.00  0.00    +0.000 A 
ATOM     15  C   UNL     1       2.357   8.140  17.882  0.00  0.00    +0.000 A 
ATOM     16  S   UNL     1       1.801   8.902  19.303  0.00  0.00    +0.000 S 
ATOM     17  C   UNL     1       1.864   7.434  20.180  0.00  0.00    +0.000 A 
ENDBRANCH   6  13
TORSDOF 2
ENDMDL
MODEL 3
REMARK VINA RESULT:      -6.3      2.305      4.438
REMARK  Name = 
REMARK  2 active torsions:
REMARK  status: ('A' for Active; 'I' for Inactive)
REMARK    1  A    between atoms: C_5  and  C_6
REMARK    2  A    between atoms: C_11  and  C_12
REMARK                            x       y       z     vdW  Elec       q    Type
REMARK                         _______ _______ _______ _____ _____    ______ ____
ROOT
ATOM      1  C   UNL     1       3.795   5.153  17.424  0.00  0.00    +0.000 A 
ATOM      2  N   UNL     1       4.630   4.384  16.679  0.00  0.00    +0.000 NA
ATOM      3  C   UNL     1       5.477   5.015  15.860  0.00  0.00    +0.000 A 
ATOM      4  N   UNL     1       5.562   6.341  15.705  0.00  0.00    +0.000 NA
ATOM      5  C   UNL     1       4.717   7.074  16.461  0.00  0.00    +0.000 A 
ATOM      6  C   UNL     1       3.794   6.546  17.355  0.00  0.00    +0.000 A 
ENDROOT
BRANCH   1  11
ATOM      7 BR   UNL     1       1.476   2.395  21.842  0.00  0.00    +0.000 Br
ATOM      8  C   UNL     1       1.886   3.191  20.197  0.00  0.00    +0.000 A 
ATOM      9  C   UNL     1       1.000   3.275  19.157  0.00  0.00    +0.000 A 
ATOM     10  C   UNL     1       1.599   3.905  18.023  0.00  0.00    +0.000 A 
ATOM     11  C   UNL     1       2.885   4.361  18.272  0.00  0.00    +0.000 A 
ATOM     12  S   UNL     1       3.389   3.888  19.858  0.00  0.00    +0.000 S 
ENDBRANCH   1  11
BRANCH   6  13
ATOM     13  C   UNL     1       2.936   7.437  18.142  0.00  0.00    +0.000 A 
ATOM     14  C   UNL     1       2.513   7.278  19.505  0.00  0.00    +0.000 A 
ATOM     15  C   UNL     1       1.612   8.243  19.901  0.00  0.00    +0.000 A 
ATOM     16  S   UNL     1       1.357   9.414  18.687  0.00  0.00    +0.000 S 
ATOM     17  C   UNL     1       2.404   8.599  17.606  0.00  0.00    +0.000 A 
ENDBRANCH   6  13
TORSDOF 2
ENDMDL
MODEL 4
REMARK VINA RESULT:      -6.3      2.601      3.817
REMARK  Name = 
REMARK  2 active torsions:
REMARK  status: ('A' for Active; 'I' for Inactive)
REMARK    1  A    between atoms: C_5  and  C_6
REMARK    2  A    between atoms: C_11  and  C_12
REMARK                            x       y       z     vdW  Elec       q    Type
REMARK                         _______ _______ _______ _____ _____    ______ ____
ROOT
ATOM      1  C   UNL     1       2.675   4.424  18.545  0.00  0.00    +0.000 A 
ATOM      2  N   UNL     1       1.621   3.573  18.629  0.00  0.00    +0.000 NA
ATOM      3  C   UNL     1       1.825   2.306  18.257  0.00  0.00    +0.000 A 
ATOM      4  N   UNL     1       2.980   1.809  17.798  0.00  0.00    +0.000 NA
ATOM      5  C   UNL     1       4.006   2.684  17.728  0.00  0.00    +0.000 A 
ATOM      6  C   UNL     1       3.931   4.023  18.089  0.00  0.00    +0.000 A 
ENDROOT
BRANCH   1  11
ATOM      7 BR   UNL     1       1.240   9.005  21.621  0.00  0.00    +0.000 Br
ATOM      8  C   UNL     1       1.738   7.775  20.299  0.00  0.00    +0.000 A 
ATOM      9  C   UNL     1       2.111   8.138  19.033  0.00  0.00    +0.000 A 
ATOM     10  C   UNL     1       2.406   6.988  18.237  0.00  0.00    +0.000 A 
ATOM     11  C   UNL     1       2.338   5.801  18.952  0.00  0.00    +0.000 A 
ATOM     12  S   UNL     1       1.780   6.105  20.561  0.00  0.00    +0.000 S 
ENDBRANCH   1  11
BRANCH   6  13
ATOM     13  C   UNL     1       5.116   4.881  17.990  0.00  0.00    +0.000 A 
ATOM     14  C   UNL     1       5.568   5.633  16.854  0.00  0.00    +0.000 A 
ATOM     15  C   UNL     1       6.785   6.244  17.067  0.00  0.00    +0.000 A 
ATOM     16  S   UNL     1       7.338   6.021  18.665  0.00  0.00    +0.000 S 
ATOM     17  C   UNL     1       5.981   5.056  19.058  0.00  0.00    +0.000 A 
ENDBRANCH   6  13
TORSDOF 2
ENDMDL
MODEL 5
REMARK VINA RESULT:      -6.2      2.784      3.932
REMARK  Name = 
REMARK  2 active torsions:
REMARK  status: ('A' for Active; 'I' for Inactive)
REMARK    1  A    between atoms: C_5  and  C_6
REMARK    2  A    between atoms: C_11  and  C_12
REMARK                            x       y       z     vdW  Elec       q    Type
REMARK                         _______ _______ _______ _____ _____    ______ ____
ROOT
ATOM      1  C   UNL     1       2.799   4.929  19.899  0.00  0.00    +0.000 A 
ATOM      2  N   UNL     1       1.977   4.697  20.953  0.00  0.00    +0.000 NA
ATOM      3  C   UNL     1       2.113   3.530  21.591  0.00  0.00    +0.000 A 
ATOM      4  N   UNL     1       2.984   2.568  21.268  0.00  0.00    +0.000 NA
ATOM      5  C   UNL     1       3.785   2.834  20.214  0.00  0.00    +0.000 A 
ATOM      6  C   UNL     1       3.752   4.006  19.470  0.00  0.00    +0.000 A 
ENDROOT
BRANCH   1  11
ATOM      7 BR   UNL     1       1.342  10.359  18.948  0.00  0.00    +0.000 Br
ATOM      8  C   UNL     1       1.935   8.585  18.860  0.00  0.00    +0.000 A 
ATOM      9  C   UNL     1       2.575   8.056  17.772  0.00  0.00    +0.000 A 
ATOM     10  C   UNL     1       2.882   6.676  17.979  0.00  0.00    +0.000 A 
ATOM     11  C   UNL     1       2.549   6.231  19.249  0.00  0.00    +0.000 A 
ATOM     12  S   UNL     1       1.740   7.482  20.127  0.00  0.00    +0.000 S 
ENDBRANCH   1  11
BRANCH   6  13
ATOM     13  C   UNL     1       4.683   4.199  18.354  0.00  0.00    +0.000 A 
ATOM     14  C   UNL     1       4.494   3.843  16.976  0.00  0.00    +0.000 A 
ATOM     15  C   UNL     1       5.617   4.059  16.208  0.00  0.00    +0.000 A 
ATOM     16  S   UNL     1       6.867   4.799  17.103  0.00  0.00    +0.000 S 
ATOM     17  C   UNL     1       5.929   4.776  18.535  0.00  0.00    +0.000 A 
ENDBRANCH   6  13
TORSDOF 2
ENDMDL
MODEL 6
REMARK VINA RESULT:      -6.1      1.072      1.269
REMARK  Name = 
REMARK  2 active torsions:
REMARK  status: ('A' for Active; 'I' for Inactive)
REMARK    1  A    between atoms: C_5  and  C_6
REMARK    2  A    between atoms: C_11  and  C_12
REMARK                            x       y       z     vdW  Elec       q    Type
REMARK                         _______ _______ _______ _____ _____    ______ ____
ROOT
ATOM      1  C   UNL     1       4.050   6.005  17.392  0.00  0.00    +0.000 A 
ATOM      2  N   UNL     1       5.035   6.655  16.722  0.00  0.00    +0.000 NA
ATOM      3  C   UNL     1       5.939   5.907  16.083  0.00  0.00    +0.000 A 
ATOM      4  N   UNL     1       5.960   4.569  16.059  0.00  0.00    +0.000 NA
ATOM      5  C   UNL     1       4.965   3.957  16.736  0.00  0.00    +0.000 A 
ATOM      6  C   UNL     1       3.961   4.614  17.435  0.00  0.00    +0.000 A 
ENDROOT
BRANCH   1  11
ATOM      7 BR   UNL     1       0.948   8.626  21.394  0.00  0.00    +0.000 Br
ATOM      8  C   UNL     1       1.804   8.056  19.829  0.00  0.00    +0.000 A 
ATOM      9  C   UNL     1       1.753   8.743  18.647  0.00  0.00    +0.000 A 
ATOM     10  C   UNL     1       2.473   8.055  17.622  0.00  0.00    +0.000 A 
ATOM     11  C   UNL     1       3.123   6.920  18.084  0.00  0.00    +0.000 A 
ATOM     12  S   UNL     1       2.728   6.641  19.745  0.00  0.00    +0.000 S 
ENDBRANCH   1  11
BRANCH   6  13
ATOM     13  C   UNL     1       2.917   3.848  18.122  0.00  0.00    +0.000 A 
ATOM     14  C   UNL     1       1.525   3.754  17.783  0.00  0.00    +0.000 A 
ATOM     15  C   UNL     1       0.796   3.039  18.708  0.00  0.00    +0.000 A 
ATOM     16  S   UNL     1       1.790   2.373  19.925  0.00  0.00    +0.000 S 
ATOM     17  C   UNL     1       3.189   3.093  19.250  0.00  0.00    +0.000 A 
ENDBRANCH   6  13
TORSDOF 2
ENDMDL
MODEL 7
REMARK VINA RESULT:      -6.1      2.651      3.855
REMARK  Name = 
REMARK  2 active torsions:
REMARK  status: ('A' for Active; 'I' for Inactive)
REMARK    1  A    between atoms: C_5  and  C_6
REMARK    2  A    between atoms: C_11  and  C_12
REMARK                            x       y       z     vdW  Elec       q    Type
REMARK                         _______ _______ _______ _____ _____    ______ ____
ROOT
ATOM      1  C   UNL     1       2.640   4.295  18.980  0.00  0.00    +0.000 A 
ATOM      2  N   UNL     1       1.527   3.554  19.210  0.00  0.00    +0.000 NA
ATOM      3  C   UNL     1       1.621   2.234  19.025  0.00  0.00    +0.000 A 
ATOM      4  N   UNL     1       2.718   1.584  18.619  0.00  0.00    +0.000 NA
ATOM      5  C   UNL     1       3.805   2.354  18.400  0.00  0.00    +0.000 A 
ATOM      6  C   UNL     1       3.845   3.733  18.561  0.00  0.00    +0.000 A 
ENDROOT
BRANCH   1  11
ATOM      7 BR   UNL     1       1.877   9.877  18.098  0.00  0.00    +0.000 Br
ATOM      8  C   UNL     1       2.073   8.147  18.787  0.00  0.00    +0.000 A 
ATOM      9  C   UNL     1       1.855   7.828  20.101  0.00  0.00    +0.000 A 
ATOM     10  C   UNL     1       2.111   6.443  20.341  0.00  0.00    +0.000 A 
ATOM     11  C   UNL     1       2.423   5.740  19.187  0.00  0.00    +0.000 A 
ATOM     12  S   UNL     1       2.529   6.821  17.841  0.00  0.00    +0.000 S 
ENDBRANCH   1  11
BRANCH   6  13
ATOM     13  C   UNL     1       5.088   4.470  18.312  0.00  0.00    +0.000 A 
ATOM     14  C   UNL     1       5.930   5.128  19.271  0.00  0.00    +0.000 A 
ATOM     15  C   UNL     1       6.964   5.826  18.684  0.00  0.00    +0.000 A 
ATOM     16  S   UNL     1       7.005   5.602  16.993  0.00  0.00    +0.000 S 
ATOM     17  C   UNL     1       5.604   4.620  17.035  0.00  0.00    +0.000 A 
ENDBRANCH   6  13
TORSDOF 2
ENDMDL
MODEL 8
REMARK VINA RESULT:      -6.0      2.984      4.621
REMARK  Name = 
REMARK  2 active torsions:
REMARK  status: ('A' for Active; 'I' for Inactive)
REMARK    1  A    between atoms: C_5  and  C_6
REMARK    2  A    between atoms: C_11  and  C_12
REMARK                            x       y       z     vdW  Elec       q    Type
REMARK                         _______ _______ _______ _____ _____    ______ ____
ROOT
ATOM      1  C   UNL     1       3.818   4.343  18.100  0.00  0.00    +0.000 A 
ATOM      2  N   UNL     1       3.982   3.062  17.683  0.00  0.00    +0.000 NA
ATOM      3  C   UNL     1       2.880   2.322  17.528  0.00  0.00    +0.000 A 
ATOM      4  N   UNL     1       1.630   2.736  17.762  0.00  0.00    +0.000 NA
ATOM      5  C   UNL     1       1.505   4.016  18.175  0.00  0.00    +0.000 A 
ATOM      6  C   UNL     1       2.565   4.892  18.369  0.00  0.00    +0.000 A 
ENDROOT
BRANCH   1  11
ATOM      7 BR   UNL     1       8.034   8.150  17.608  0.00  0.00    +0.000 Br
ATOM      8  C   UNL     1       6.899   6.729  18.056  0.00  0.00    +0.000 A 
ATOM      9  C   UNL     1       7.144   5.864  19.089  0.00  0.00    +0.000 A 
ATOM     10  C   UNL     1       6.124   4.867  19.173  0.00  0.00    +0.000 A 
ATOM     11  C   UNL     1       5.095   5.064  18.264  0.00  0.00    +0.000 A 
ATOM     12  S   UNL     1       5.463   6.398  17.227  0.00  0.00    +0.000 S 
ENDBRANCH   1  11
BRANCH   6  13
ATOM     13  C   UNL     1       2.313   6.270  18.803  0.00  0.00    +0.000 A 
ATOM     14  C   UNL     1       2.143   6.755  20.144  0.00  0.00    +0.000 A 
ATOM     15  C   UNL     1       1.805   8.090  20.191  0.00  0.00    +0.000 A 
ATOM     16  S   UNL     1       1.808   8.802  18.641  0.00  0.00    +0.000 S 
ATOM     17  C   UNL     1       2.199   7.311  17.897  0.00  0.00    +0.000 A 
ENDBRANCH   6  13
TORSDOF 2
ENDMDL
MODEL 9
REMARK VINA RESULT:      -5.9      3.211      4.881
REMARK  Name = 
REMARK  2 active torsions:
REMARK  status: ('A' for Active; 'I' for Inactive)
REMARK    1  A    between atoms: C_5  and  C_6
REMARK    2  A    between atoms: C_11  and  C_12
REMARK                            x       y       z     vdW  Elec       q    Type
REMARK                         _______ _______ _______ _____ _____    ______ ____
ROOT
ATOM      1  C   UNL     1       5.209   4.647  15.801  0.00  0.00    +0.000 A 
ATOM      2  N   UNL     1       4.745   4.080  14.659  0.00  0.00    +0.000 NA
ATOM      3  C   UNL     1       5.606   3.949  13.646  0.00  0.00    +0.000 A 
ATOM      4  N   UNL     1       6.886   4.342  13.661  0.00  0.00    +0.000 NA
ATOM      5  C   UNL     1       7.312   4.901  14.813  0.00  0.00    +0.000 A 
ATOM      6  C   UNL     1       6.524   5.090  15.941  0.00  0.00    +0.000 A 
ENDROOT
BRANCH   1  11
ATOM      7 BR   UNL     1       1.380   3.447  19.852  0.00  0.00    +0.000 Br
ATOM      8  C   UNL     1       2.538   4.236  18.609  0.00  0.00    +0.000 A 
ATOM      9  C   UNL     1       2.753   5.585  18.529  0.00  0.00    +0.000 A 
ATOM     10  C   UNL     1       3.661   5.897  17.470  0.00  0.00    +0.000 A 
ATOM     11  C   UNL     1       4.174   4.770  16.846  0.00  0.00    +0.000 A 
ATOM     12  S   UNL     1       3.429   3.344  17.482  0.00  0.00    +0.000 S 
ENDBRANCH   1  11
BRANCH   6  13
ATOM     13  C   UNL     1       7.096   5.693  17.149  0.00  0.00    +0.000 A 
ATOM     14  C   UNL     1       7.461   7.065  17.362  0.00  0.00    +0.000 A 
ATOM     15  C   UNL     1       8.081   7.272  18.575  0.00  0.00    +0.000 A 
ATOM     16  S   UNL     1       8.123   5.851  19.519  0.00  0.00    +0.000 S 
ATOM     17  C   UNL     1       7.369   4.942  18.281  0.00  0.00    +0.000 A 
ENDBRANCH   6  13
TORSDOF 2
ENDMDL
