MODEL 1
REMARK VINA RESULT:      -7.4      0.000      0.000
REMARK  Name = 
REMARK  4 active torsions:
REMARK  status: ('A' for Active; 'I' for Inactive)
REMARK    1  A    between atoms: O_1  and  C_2
REMARK    2  A    between atoms: C_6  and  C_7
REMARK    3  A    between atoms: C_9  and  C_10
REMARK    4  A    between atoms: C_18  and  C_19
REMARK                            x       y       z     vdW  Elec       q    Type
REMARK                         _______ _______ _______ _____ _____    ______ ____
ROOT
ATOM      1  C   UNL     1       2.804   7.087  18.403  0.00  0.00    +0.000 A 
ATOM      2  C   UNL     1       3.746   6.806  17.409  0.00  0.00    +0.000 A 
ATOM      3  C   UNL     1       4.261   5.513  17.234  0.00  0.00    +0.000 A 
ATOM      4  C   UNL     1       3.763   4.532  18.093  0.00  0.00    +0.000 A 
ATOM      5  C   UNL     1       2.866   4.876  19.098  0.00  0.00    +0.000 A 
ATOM      6  N   UNL     1       2.359   6.122  19.246  0.00  0.00    +0.000 NA
ENDROOT
BRANCH   3   7
ATOM      7  C   UNL     1       5.279   5.234  16.181  0.00  0.00    +0.000 A 
ATOM      8  C   UNL     1       4.888   4.499  15.035  0.00  0.00    +0.000 A 
ATOM      9  C   UNL     1       5.760   4.253  13.969  0.00  0.00    +0.000 A 
ATOM     10  C   UNL     1       7.070   4.703  14.029  0.00  0.00    +0.000 A 
ATOM     11  C   UNL     1       7.501   5.407  15.149  0.00  0.00    +0.000 A 
ATOM     12  C   UNL     1       6.618   5.688  16.204  0.00  0.00    +0.000 A 
ATOM     13 CL   UNL     1       7.276   6.678  17.468  0.00  0.00    +0.000 Cl
ENDBRANCH   3   7
BRANCH   1  18
ATOM     14  C   UNL     1       2.111  10.801  17.996  0.00  0.00    +0.000 A 
ATOM     15  C   UNL     1       1.145  11.030  18.966  0.00  0.00    +0.000 A 
ATOM     16  C   UNL     1       0.721   9.969  19.762  0.00  0.00    +0.000 A 
ATOM     17  C   UNL     1       1.265   8.692  19.582  0.00  0.00    +0.000 A 
ATOM     18  C   UNL     1       2.242   8.441  18.600  0.00  0.00    +0.000 A 
ATOM     19  C   UNL     1       2.657   9.533  17.815  0.00  0.00    +0.000 A 
BRANCH  14  20
ATOM     20  O   UNL     1       2.565  11.803  17.188  0.00  0.00    +0.000 OA
ATOM     21  H   UNL     1       2.463  12.647  17.656  0.00  0.00    +0.000 HD
ENDBRANCH  14  20
ENDBRANCH   1  18
BRANCH   5  22
ATOM     22  C   UNL     1       2.468   3.880  20.093  0.00  0.00    +0.000 A 
ATOM     23  C   UNL     1       1.215   3.796  20.789  0.00  0.00    +0.000 A 
ATOM     24  C   UNL     1       1.165   2.742  21.673  0.00  0.00    +0.000 A 
ATOM     25  S   UNL     1       2.611   1.832  21.661  0.00  0.00    +0.000 S 
ATOM     26  C   UNL     1       3.304   2.843  20.465  0.00  0.00    +0.000 A 
ENDBRANCH   5  22
TORSDOF 4
ENDMDL
MODEL 2
REMARK VINA RESULT:      -7.4      5.251      9.629
REMARK  Name = 
REMARK  4 active torsions:
REMARK  status: ('A' for Active; 'I' for Inactive)
REMARK    1  A    between atoms: O_1  and  C_2
REMARK    2  A    between atoms: C_6  and  C_7
REMARK    3  A    between atoms: C_9  and  C_10
REMARK    4  A    between atoms: C_18  and  C_19
REMARK                            x       y       z     vdW  Elec       q    Type
REMARK                         _______ _______ _______ _____ _____    ______ ____
ROOT
ATOM      1  C   UNL     1       0.802  10.384  18.617  0.00  0.00    +0.000 A 
ATOM      2  C   UNL     1      -0.588  10.426  18.473  0.00  0.00    +0.000 A 
ATOM      3  C   UNL     1      -1.276  11.643  18.365  0.00  0.00    +0.000 A 
ATOM      4  C   UNL     1      -0.489  12.797  18.386  0.00  0.00    +0.000 A 
ATOM      5  C   UNL     1       0.883  12.700  18.583  0.00  0.00    +0.000 A 
ATOM      6  N   UNL     1       1.540  11.521  18.667  0.00  0.00    +0.000 NA
ENDROOT
BRANCH   3   7
ATOM      7  C   UNL     1      -2.760  11.671  18.230  0.00  0.00    +0.000 A 
ATOM      8  C   UNL     1      -3.535  12.102  19.334  0.00  0.00    +0.000 A 
ATOM      9  C   UNL     1      -4.928  12.225  19.269  0.00  0.00    +0.000 A 
ATOM     10  C   UNL     1      -5.600  11.882  18.106  0.00  0.00    +0.000 A 
ATOM     11  C   UNL     1      -4.877  11.429  17.007  0.00  0.00    +0.000 A 
ATOM     12  C   UNL     1      -3.476  11.341  17.056  0.00  0.00    +0.000 A 
ATOM     13 CL   UNL     1      -2.717  10.876  15.566  0.00  0.00    +0.000 Cl
ENDBRANCH   3   7
BRANCH   1  18
ATOM     14  C   UNL     1       2.166   7.105  19.969  0.00  0.00    +0.000 A 
ATOM     15  C   UNL     1       2.961   6.661  18.922  0.00  0.00    +0.000 A 
ATOM     16  C   UNL     1       3.061   7.438  17.771  0.00  0.00    +0.000 A 
ATOM     17  C   UNL     1       2.363   8.649  17.676  0.00  0.00    +0.000 A 
ATOM     18  C   UNL     1       1.547   9.112  18.726  0.00  0.00    +0.000 A 
ATOM     19  C   UNL     1       1.473   8.309  19.881  0.00  0.00    +0.000 A 
BRANCH  14  20
ATOM     20  O   UNL     1       2.033   6.385  21.120  0.00  0.00    +0.000 OA
ATOM     21  H   UNL     1       1.901   5.452  20.889  0.00  0.00    +0.000 HD
ENDBRANCH  14  20
ENDBRANCH   1  18
BRANCH   5  22
ATOM     22  C   UNL     1       1.681  13.914  18.762  0.00  0.00    +0.000 A 
ATOM     23  C   UNL     1       3.109  14.039  18.678  0.00  0.00    +0.000 A 
ATOM     24  C   UNL     1       3.548  15.322  18.912  0.00  0.00    +0.000 A 
ATOM     25  S   UNL     1       2.251  16.393  19.215  0.00  0.00    +0.000 S 
ATOM     26  C   UNL     1       1.098  15.141  19.024  0.00  0.00    +0.000 A 
ENDBRANCH   5  22
TORSDOF 4
ENDMDL
MODEL 3
REMARK VINA RESULT:      -7.4      4.335      7.542
REMARK  Name = 
REMARK  4 active torsions:
REMARK  status: ('A' for Active; 'I' for Inactive)
REMARK    1  A    between atoms: O_1  and  C_2
REMARK    2  A    between atoms: C_6  and  C_7
REMARK    3  A    between atoms: C_9  and  C_10
REMARK    4  A    between atoms: C_18  and  C_19
REMARK                            x       y       z     vdW  Elec       q    Type
REMARK                         _______ _______ _______ _____ _____    ______ ____
ROOT
ATOM      1  C   UNL     1       5.864   4.944  15.367  0.00  0.00    +0.000 A 
ATOM      2  C   UNL     1       4.806   4.383  16.088  0.00  0.00    +0.000 A 
ATOM      3  C   UNL     1       4.476   4.835  17.374  0.00  0.00    +0.000 A 
ATOM      4  C   UNL     1       5.249   5.885  17.873  0.00  0.00    +0.000 A 
ATOM      5  C   UNL     1       6.323   6.371  17.135  0.00  0.00    +0.000 A 
ATOM      6  N   UNL     1       6.621   5.941  15.887  0.00  0.00    +0.000 NA
ENDROOT
BRANCH   3   7
ATOM      7  C   UNL     1       3.355   4.214  18.137  0.00  0.00    +0.000 A 
ATOM      8  C   UNL     1       3.195   2.808  18.086  0.00  0.00    +0.000 A 
ATOM      9  C   UNL     1       2.214   2.139  18.826  0.00  0.00    +0.000 A 
ATOM     10  C   UNL     1       1.331   2.860  19.617  0.00  0.00    +0.000 A 
ATOM     11  C   UNL     1       1.439   4.246  19.674  0.00  0.00    +0.000 A 
ATOM     12  C   UNL     1       2.446   4.917  18.961  0.00  0.00    +0.000 A 
ATOM     13 CL   UNL     1       2.522   6.629  19.234  0.00  0.00    +0.000 Cl
ENDBRANCH   3   7
BRANCH   1  18
ATOM     14  C   UNL     1       5.806   3.096  12.047  0.00  0.00    +0.000 A 
ATOM     15  C   UNL     1       6.906   3.631  11.391  0.00  0.00    +0.000 A 
ATOM     16  C   UNL     1       7.676   4.594  12.037  0.00  0.00    +0.000 A 
ATOM     17  C   UNL     1       7.340   5.015  13.329  0.00  0.00    +0.000 A 
ATOM     18  C   UNL     1       6.224   4.487  14.008  0.00  0.00    +0.000 A 
ATOM     19  C   UNL     1       5.469   3.509  13.333  0.00  0.00    +0.000 A 
BRANCH  14  20
ATOM     20  O   UNL     1       5.017   2.149  11.463  0.00  0.00    +0.000 OA
ATOM     21  H   UNL     1       4.332   1.883  12.096  0.00  0.00    +0.000 HD
ENDBRANCH  14  20
ENDBRANCH   1  18
BRANCH   5  22
ATOM     22  C   UNL     1       7.226   7.360  17.726  0.00  0.00    +0.000 A 
ATOM     23  C   UNL     1       8.202   7.142  18.756  0.00  0.00    +0.000 A 
ATOM     24  C   UNL     1       8.881   8.289  19.098  0.00  0.00    +0.000 A 
ATOM     25  S   UNL     1       8.370   9.632  18.174  0.00  0.00    +0.000 S 
ATOM     26  C   UNL     1       7.242   8.677  17.307  0.00  0.00    +0.000 A 
ENDBRANCH   5  22
TORSDOF 4
ENDMDL
MODEL 4
REMARK VINA RESULT:      -7.2      1.001      1.372
REMARK  Name = 
REMARK  4 active torsions:
REMARK  status: ('A' for Active; 'I' for Inactive)
REMARK    1  A    between atoms: O_1  and  C_2
REMARK    2  A    between atoms: C_6  and  C_7
REMARK    3  A    between atoms: C_9  and  C_10
REMARK    4  A    between atoms: C_18  and  C_19
REMARK                            x       y       z     vdW  Elec       q    Type
REMARK                         _______ _______ _______ _____ _____    ______ ____
ROOT
ATOM      1  C   UNL     1       2.737   7.012  18.481  0.00  0.00    +0.000 A 
ATOM      2  C   UNL     1       3.687   6.755  17.489  0.00  0.00    +0.000 A 
ATOM      3  C   UNL     1       4.235   5.476  17.315  0.00  0.00    +0.000 A 
ATOM      4  C   UNL     1       3.757   4.481  18.172  0.00  0.00    +0.000 A 
ATOM      5  C   UNL     1       2.849   4.803  19.174  0.00  0.00    +0.000 A 
ATOM      6  N   UNL     1       2.312   6.036  19.321  0.00  0.00    +0.000 NA
ENDROOT
BRANCH   3   7
ATOM      7  C   UNL     1       5.262   5.222  16.265  0.00  0.00    +0.000 A 
ATOM      8  C   UNL     1       4.886   4.503  15.105  0.00  0.00    +0.000 A 
ATOM      9  C   UNL     1       5.768   4.281  14.041  0.00  0.00    +0.000 A 
ATOM     10  C   UNL     1       7.074   4.741  14.118  0.00  0.00    +0.000 A 
ATOM     11  C   UNL     1       7.491   5.431  15.252  0.00  0.00    +0.000 A 
ATOM     12  C   UNL     1       6.597   5.687  16.306  0.00  0.00    +0.000 A 
ATOM     13 CL   UNL     1       7.238   6.661  17.591  0.00  0.00    +0.000 Cl
ENDBRANCH   3   7
BRANCH   1  18
ATOM     14  C   UNL     1       0.890   9.950  20.032  0.00  0.00    +0.000 A 
ATOM     15  C   UNL     1       1.021  10.930  19.058  0.00  0.00    +0.000 A 
ATOM     16  C   UNL     1       1.710  10.630  17.885  0.00  0.00    +0.000 A 
ATOM     17  C   UNL     1       2.260   9.357  17.697  0.00  0.00    +0.000 A 
ATOM     18  C   UNL     1       2.141   8.352  18.677  0.00  0.00    +0.000 A 
ATOM     19  C   UNL     1       1.434   8.681  19.848  0.00  0.00    +0.000 A 
BRANCH  14  20
ATOM     20  O   UNL     1       0.226  10.187  21.199  0.00  0.00    +0.000 OA
ATOM     21  H   UNL     1       0.016  11.133  21.249  0.00  0.00    +0.000 HD
ENDBRANCH  14  20
ENDBRANCH   1  18
BRANCH   5  22
ATOM     22  C   UNL     1       2.472   3.796  20.167  0.00  0.00    +0.000 A 
ATOM     23  C   UNL     1       1.252   3.731  20.921  0.00  0.00    +0.000 A 
ATOM     24  C   UNL     1       1.215   2.660  21.785  0.00  0.00    +0.000 A 
ATOM     25  S   UNL     1       2.634   1.712  21.685  0.00  0.00    +0.000 S 
ATOM     26  C   UNL     1       3.296   2.730  20.477  0.00  0.00    +0.000 A 
ENDBRANCH   5  22
TORSDOF 4
ENDMDL
MODEL 5
REMARK VINA RESULT:      -7.2      4.470      7.544
REMARK  Name = 
REMARK  4 active torsions:
REMARK  status: ('A' for Active; 'I' for Inactive)
REMARK    1  A    between atoms: O_1  and  C_2
REMARK    2  A    between atoms: C_6  and  C_7
REMARK    3  A    between atoms: C_9  and  C_10
REMARK    4  A    between atoms: C_18  and  C_19
REMARK                            x       y       z     vdW  Elec       q    Type
REMARK                         _______ _______ _______ _____ _____    ______ ____
ROOT
ATOM      1  C   UNL     1       5.874   4.909  15.339  0.00  0.00    +0.000 A 
ATOM      2  C   UNL     1       4.816   4.341  16.053  0.00  0.00    +0.000 A 
ATOM      3  C   UNL     1       4.479   4.784  17.340  0.00  0.00    +0.000 A 
ATOM      4  C   UNL     1       5.247   5.835  17.848  0.00  0.00    +0.000 A 
ATOM      5  C   UNL     1       6.321   6.329  17.117  0.00  0.00    +0.000 A 
ATOM      6  N   UNL     1       6.625   5.907  15.868  0.00  0.00    +0.000 NA
ENDROOT
BRANCH   3   7
ATOM      7  C   UNL     1       3.358   4.155  18.095  0.00  0.00    +0.000 A 
ATOM      8  C   UNL     1       2.030   4.388  17.662  0.00  0.00    +0.000 A 
ATOM      9  C   UNL     1       0.926   3.780  18.271  0.00  0.00    +0.000 A 
ATOM     10  C   UNL     1       1.111   2.945  19.362  0.00  0.00    +0.000 A 
ATOM     11  C   UNL     1       2.398   2.710  19.834  0.00  0.00    +0.000 A 
ATOM     12  C   UNL     1       3.511   3.288  19.203  0.00  0.00    +0.000 A 
ATOM     13 CL   UNL     1       5.051   2.800  19.837  0.00  0.00    +0.000 Cl
ENDBRANCH   3   7
BRANCH   1  18
ATOM     14  C   UNL     1       5.858   3.053  12.023  0.00  0.00    +0.000 A 
ATOM     15  C   UNL     1       6.936   3.622  11.360  0.00  0.00    +0.000 A 
ATOM     16  C   UNL     1       7.677   4.613  11.999  0.00  0.00    +0.000 A 
ATOM     17  C   UNL     1       7.335   5.025  13.292  0.00  0.00    +0.000 A 
ATOM     18  C   UNL     1       6.241   4.462  13.978  0.00  0.00    +0.000 A 
ATOM     19  C   UNL     1       5.515   3.457  13.311  0.00  0.00    +0.000 A 
BRANCH  14  20
ATOM     20  O   UNL     1       5.098   2.078  11.446  0.00  0.00    +0.000 OA
ATOM     21  H   UNL     1       4.226   2.449  11.238  0.00  0.00    +0.000 HD
ENDBRANCH  14  20
ENDBRANCH   1  18
BRANCH   5  22
ATOM     22  C   UNL     1       7.217   7.318  17.716  0.00  0.00    +0.000 A 
ATOM     23  C   UNL     1       8.187   7.100  18.752  0.00  0.00    +0.000 A 
ATOM     24  C   UNL     1       8.861   8.248  19.102  0.00  0.00    +0.000 A 
ATOM     25  S   UNL     1       8.353   9.592  18.178  0.00  0.00    +0.000 S 
ATOM     26  C   UNL     1       7.233   8.637  17.301  0.00  0.00    +0.000 A 
ENDBRANCH   5  22
TORSDOF 4
ENDMDL
MODEL 6
REMARK VINA RESULT:      -7.2      5.117      8.111
REMARK  Name = 
REMARK  4 active torsions:
REMARK  status: ('A' for Active; 'I' for Inactive)
REMARK    1  A    between atoms: O_1  and  C_2
REMARK    2  A    between atoms: C_6  and  C_7
REMARK    3  A    between atoms: C_9  and  C_10
REMARK    4  A    between atoms: C_18  and  C_19
REMARK                            x       y       z     vdW  Elec       q    Type
REMARK                         _______ _______ _______ _____ _____    ______ ____
ROOT
ATOM      1  C   UNL     1      -1.157  11.463  18.307  0.00  0.00    +0.000 A 
ATOM      2  C   UNL     1      -0.471  10.252  18.426  0.00  0.00    +0.000 A 
ATOM      3  C   UNL     1       0.910  10.215  18.670  0.00  0.00    +0.000 A 
ATOM      4  C   UNL     1       1.543  11.452  18.808  0.00  0.00    +0.000 A 
ATOM      5  C   UNL     1       0.821  12.627  18.629  0.00  0.00    +0.000 A 
ATOM      6  N   UNL     1      -0.514  12.652  18.413  0.00  0.00    +0.000 NA
ENDROOT
BRANCH   3   7
ATOM      7  C   UNL     1       1.632   8.914  18.776  0.00  0.00    +0.000 A 
ATOM      8  C   UNL     1       2.440   8.494  17.692  0.00  0.00    +0.000 A 
ATOM      9  C   UNL     1       3.204   7.323  17.737  0.00  0.00    +0.000 A 
ATOM     10  C   UNL     1       3.157   6.508  18.859  0.00  0.00    +0.000 A 
ATOM     11  C   UNL     1       2.355   6.873  19.935  0.00  0.00    +0.000 A 
ATOM     12  C   UNL     1       1.616   8.067  19.908  0.00  0.00    +0.000 A 
ATOM     13 CL   UNL     1       0.764   8.436  21.374  0.00  0.00    +0.000 Cl
ENDBRANCH   3   7
BRANCH   1  18
ATOM     14  C   UNL     1      -4.884  12.028  18.797  0.00  0.00    +0.000 A 
ATOM     15  C   UNL     1      -5.403  11.662  17.563  0.00  0.00    +0.000 A 
ATOM     16  C   UNL     1      -4.536  11.222  16.567  0.00  0.00    +0.000 A 
ATOM     17  C   UNL     1      -3.159  11.153  16.812  0.00  0.00    +0.000 A 
ATOM     18  C   UNL     1      -2.614  11.524  18.056  0.00  0.00    +0.000 A 
ATOM     19  C   UNL     1      -3.515  11.958  19.047  0.00  0.00    +0.000 A 
BRANCH  14  20
ATOM     20  O   UNL     1      -5.686  12.465  19.809  0.00  0.00    +0.000 OA
ATOM     21  H   UNL     1      -6.442  12.936  19.424  0.00  0.00    +0.000 HD
ENDBRANCH  14  20
ENDBRANCH   1  18
BRANCH   5  22
ATOM     22  C   UNL     1       1.516  13.915  18.618  0.00  0.00    +0.000 A 
ATOM     23  C   UNL     1       0.974  15.200  18.960  0.00  0.00    +0.000 A 
ATOM     24  C   UNL     1       1.892  16.217  18.831  0.00  0.00    +0.000 A 
ATOM     25  S   UNL     1       3.417  15.638  18.320  0.00  0.00    +0.000 S 
ATOM     26  C   UNL     1       2.852  14.022  18.278  0.00  0.00    +0.000 A 
ENDBRANCH   5  22
TORSDOF 4
ENDMDL
MODEL 7
REMARK VINA RESULT:      -7.2      4.710      8.442
REMARK  Name = 
REMARK  4 active torsions:
REMARK  status: ('A' for Active; 'I' for Inactive)
REMARK    1  A    between atoms: O_1  and  C_2
REMARK    2  A    between atoms: C_6  and  C_7
REMARK    3  A    between atoms: C_9  and  C_10
REMARK    4  A    between atoms: C_18  and  C_19
REMARK                            x       y       z     vdW  Elec       q    Type
REMARK                         _______ _______ _______ _____ _____    ______ ____
ROOT
ATOM      1  C   UNL     1       0.814  12.682  18.568  0.00  0.00    +0.000 A 
ATOM      2  C   UNL     1      -0.571  12.736  18.395  0.00  0.00    +0.000 A 
ATOM      3  C   UNL     1      -1.360  11.577  18.444  0.00  0.00    +0.000 A 
ATOM      4  C   UNL     1      -0.681  10.382  18.696  0.00  0.00    +0.000 A 
ATOM      5  C   UNL     1       0.704  10.379  18.809  0.00  0.00    +0.000 A 
ATOM      6  N   UNL     1       1.454  11.505  18.780  0.00  0.00    +0.000 NA
ENDROOT
BRANCH   3   7
ATOM      7  C   UNL     1      -2.835  11.649  18.239  0.00  0.00    +0.000 A 
ATOM      8  C   UNL     1      -3.647  12.113  19.302  0.00  0.00    +0.000 A 
ATOM      9  C   UNL     1      -5.031  12.277  19.171  0.00  0.00    +0.000 A 
ATOM     10  C   UNL     1      -5.657  11.944  17.979  0.00  0.00    +0.000 A 
ATOM     11  C   UNL     1      -4.898  11.461  16.919  0.00  0.00    +0.000 A 
ATOM     12  C   UNL     1      -3.504  11.330  17.035  0.00  0.00    +0.000 A 
ATOM     13 CL   UNL     1      -2.691  10.830  15.586  0.00  0.00    +0.000 Cl
ENDBRANCH   3   7
BRANCH   1  18
ATOM     14  C   UNL     1       3.773  14.998  17.997  0.00  0.00    +0.000 A 
ATOM     15  C   UNL     1       3.280  16.221  18.431  0.00  0.00    +0.000 A 
ATOM     16  C   UNL     1       1.978  16.290  18.920  0.00  0.00    +0.000 A 
ATOM     17  C   UNL     1       1.182  15.140  18.969  0.00  0.00    +0.000 A 
ATOM     18  C   UNL     1       1.664  13.892  18.528  0.00  0.00    +0.000 A 
ATOM     19  C   UNL     1       2.986  13.851  18.046  0.00  0.00    +0.000 A 
BRANCH  14  20
ATOM     20  O   UNL     1       5.041  14.871  17.510  0.00  0.00    +0.000 OA
ATOM     21  H   UNL     1       5.336  15.736  17.185  0.00  0.00    +0.000 HD
ENDBRANCH  14  20
ENDBRANCH   1  18
BRANCH   5  22
ATOM     22  C   UNL     1       1.424   9.109  18.915  0.00  0.00    +0.000 A 
ATOM     23  C   UNL     1       1.540   8.268  20.072  0.00  0.00    +0.000 A 
ATOM     24  C   UNL     1       2.301   7.144  19.841  0.00  0.00    +0.000 A 
ATOM     25  S   UNL     1       2.866   7.079  18.230  0.00  0.00    +0.000 S 
ATOM     26  C   UNL     1       2.085   8.551  17.836  0.00  0.00    +0.000 A 
ENDBRANCH   5  22
TORSDOF 4
ENDMDL
MODEL 8
REMARK VINA RESULT:      -7.1      4.695      7.547
REMARK  Name = 
REMARK  4 active torsions:
REMARK  status: ('A' for Active; 'I' for Inactive)
REMARK    1  A    between atoms: O_1  and  C_2
REMARK    2  A    between atoms: C_6  and  C_7
REMARK    3  A    between atoms: C_9  and  C_10
REMARK    4  A    between atoms: C_18  and  C_19
REMARK                            x       y       z     vdW  Elec       q    Type
REMARK                         _______ _______ _______ _____ _____    ______ ____
ROOT
ATOM      1  C   UNL     1       0.822  12.693  18.615  0.00  0.00    +0.000 A 
ATOM      2  C   UNL     1       1.450  11.452  18.757  0.00  0.00    +0.000 A 
ATOM      3  C   UNL     1       0.709  10.263  18.829  0.00  0.00    +0.000 A 
ATOM      4  C   UNL     1      -0.677  10.395  18.729  0.00  0.00    +0.000 A 
ATOM      5  C   UNL     1      -1.251  11.658  18.641  0.00  0.00    +0.000 A 
ATOM      6  N   UNL     1      -0.528  12.798  18.552  0.00  0.00    +0.000 NA
ENDROOT
BRANCH   3   7
ATOM      7  C   UNL     1       1.393   8.948  18.998  0.00  0.00    +0.000 A 
ATOM      8  C   UNL     1       2.064   8.382  17.888  0.00  0.00    +0.000 A 
ATOM      9  C   UNL     1       2.788   7.188  17.979  0.00  0.00    +0.000 A 
ATOM     10  C   UNL     1       2.834   6.497  19.180  0.00  0.00    +0.000 A 
ATOM     11  C   UNL     1       2.167   7.006  20.289  0.00  0.00    +0.000 A 
ATOM     12  C   UNL     1       1.470   8.224  20.210  0.00  0.00    +0.000 A 
ATOM     13 CL   UNL     1       0.795   8.781  21.709  0.00  0.00    +0.000 Cl
ENDBRANCH   3   7
BRANCH   1  18
ATOM     14  C   UNL     1       3.592  15.199  17.911  0.00  0.00    +0.000 A 
ATOM     15  C   UNL     1       3.030  16.391  18.347  0.00  0.00    +0.000 A 
ATOM     16  C   UNL     1       1.744  16.378  18.881  0.00  0.00    +0.000 A 
ATOM     17  C   UNL     1       1.032  15.176  18.972  0.00  0.00    +0.000 A 
ATOM     18  C   UNL     1       1.584  13.958  18.530  0.00  0.00    +0.000 A 
ATOM     19  C   UNL     1       2.888  14.001  18.002  0.00  0.00    +0.000 A 
BRANCH  14  20
ATOM     20  O   UNL     1       4.848  15.152  17.381  0.00  0.00    +0.000 OA
ATOM     21  H   UNL     1       4.774  15.073  16.416  0.00  0.00    +0.000 HD
ENDBRANCH  14  20
ENDBRANCH   1  18
BRANCH   5  22
ATOM     22  C   UNL     1      -2.707  11.802  18.695  0.00  0.00    +0.000 A 
ATOM     23  C   UNL     1      -3.664  11.348  17.726  0.00  0.00    +0.000 A 
ATOM     24  C   UNL     1      -4.960  11.655  18.072  0.00  0.00    +0.000 A 
ATOM     25  S   UNL     1      -5.043  12.471  19.570  0.00  0.00    +0.000 S 
ATOM     26  C   UNL     1      -3.343  12.408  19.763  0.00  0.00    +0.000 A 
ENDBRANCH   5  22
TORSDOF 4
ENDMDL
MODEL 9
REMARK VINA RESULT:      -7.1      5.206      8.303
REMARK  Name = 
REMARK  4 active torsions:
REMARK  status: ('A' for Active; 'I' for Inactive)
REMARK    1  A    between atoms: O_1  and  C_2
REMARK    2  A    between atoms: C_6  and  C_7
REMARK    3  A    between atoms: C_9  and  C_10
REMARK    4  A    between atoms: C_18  and  C_19
REMARK                            x       y       z     vdW  Elec       q    Type
REMARK                         _______ _______ _______ _____ _____    ______ ____
ROOT
ATOM      1  C   UNL     1      -1.145  11.890  18.911  0.00  0.00    +0.000 A 
ATOM      2  C   UNL     1      -0.523  10.640  18.939  0.00  0.00    +0.000 A 
ATOM      3  C   UNL     1       0.874  10.517  18.905  0.00  0.00    +0.000 A 
ATOM      4  C   UNL     1       1.595  11.713  18.864  0.00  0.00    +0.000 A 
ATOM      5  C   UNL     1       0.924  12.928  18.785  0.00  0.00    +0.000 A 
ATOM      6  N   UNL     1      -0.424  13.037  18.839  0.00  0.00    +0.000 NA
ENDROOT
BRANCH   3   7
ATOM      7  C   UNL     1       1.523   9.175  18.917  0.00  0.00    +0.000 A 
ATOM      8  C   UNL     1       2.201   8.736  17.754  0.00  0.00    +0.000 A 
ATOM      9  C   UNL     1       2.895   7.522  17.705  0.00  0.00    +0.000 A 
ATOM     10  C   UNL     1       2.902   6.683  18.809  0.00  0.00    +0.000 A 
ATOM     11  C   UNL     1       2.226   7.066  19.963  0.00  0.00    +0.000 A 
ATOM     12  C   UNL     1       1.560   8.301  20.028  0.00  0.00    +0.000 A 
ATOM     13 CL   UNL     1       0.870   8.682  21.575  0.00  0.00    +0.000 Cl
ENDBRANCH   3   7
BRANCH   1  18
ATOM     14  C   UNL     1      -4.817  11.764  17.937  0.00  0.00    +0.000 A 
ATOM     15  C   UNL     1      -5.437  12.315  19.049  0.00  0.00    +0.000 A 
ATOM     16  C   UNL     1      -4.655  12.738  20.121  0.00  0.00    +0.000 A 
ATOM     17  C   UNL     1      -3.262  12.604  20.071  0.00  0.00    +0.000 A 
ATOM     18  C   UNL     1      -2.616  12.042  18.953  0.00  0.00    +0.000 A 
ATOM     19  C   UNL     1      -3.432  11.631  17.882  0.00  0.00    +0.000 A 
BRANCH  14  20
ATOM     20  O   UNL     1      -5.533  11.334  16.859  0.00  0.00    +0.000 OA
ATOM     21  H   UNL     1      -5.743  12.100  16.301  0.00  0.00    +0.000 HD
ENDBRANCH  14  20
ENDBRANCH   1  18
BRANCH   5  22
ATOM     22  C   UNL     1       1.678  14.166  18.584  0.00  0.00    +0.000 A 
ATOM     23  C   UNL     1       2.949  14.315  17.933  0.00  0.00    +0.000 A 
ATOM     24  C   UNL     1       3.394  15.618  17.923  0.00  0.00    +0.000 A 
ATOM     25  S   UNL     1       2.282  16.676  18.675  0.00  0.00    +0.000 S 
ATOM     26  C   UNL     1       1.199  15.392  19.008  0.00  0.00    +0.000 A 
ENDBRANCH   5  22
TORSDOF 4
ENDMDL
