MODEL 1
REMARK VINA RESULT:      -6.3      0.000      0.000
REMARK  Name = 
REMARK  14 active torsions:
REMARK  status: ('A' for Active; 'I' for Inactive)
REMARK    1  A    between atoms: C_1  and  C_2
REMARK    2  A    between atoms: C_2  and  C_3
REMARK    3  A    between atoms: C_3  and  C_4
REMARK    4  A    between atoms: C_4  and  N_5
REMARK    5  A    between atoms: C_12  and  O_13
REMARK    6  A    between atoms: O_13  and  C_14
REMARK    7  A    between atoms: C_15  and  O_16
REMARK    8  A    between atoms: O_16  and  C_17
REMARK    9  A    between atoms: C_21  and  O_22
REMARK   10  A    between atoms: O_22  and  C_23
REMARK   11  A    between atoms: C_24  and  O_25
REMARK   12  A    between atoms: O_25  and  C_26
REMARK   13  A    between atoms: C_27  and  O_28
REMARK   14  A    between atoms: O_28  and  C_29
REMARK                            x       y       z     vdW  Elec       q    Type
REMARK                         _______ _______ _______ _____ _____    ______ ____
ROOT
ATOM      1  N   UNL     1       1.400  10.297  19.368  0.00  0.00    +0.000 NA
ATOM      2  C   UNL     1       0.362   9.555  20.115  0.00  0.00    +0.000 C 
ATOM      3  C   UNL     1      -0.745  10.379  20.693  0.00  0.00    +0.000 C 
ATOM      4  C   UNL     1      -0.760  11.767  20.059  0.00  0.00    +0.000 A 
ATOM      5  C   UNL     1       0.191  12.615  20.605  0.00  0.00    +0.000 A 
ATOM      6  C   UNL     1      -0.760  13.261  21.561  0.00  0.00    +0.000 A 
ATOM      7  C   UNL     1      -0.419  13.992  22.795  0.00  0.00    +0.000 A 
ATOM      8  C   UNL     1      -1.361  14.557  23.809  0.00  0.00    +0.000 A 
ATOM      9  C   UNL     1      -2.730  14.457  23.614  0.00  0.00    +0.000 A 
ATOM     10  C   UNL     1      -3.105  13.853  22.426  0.00  0.00    +0.000 A 
ATOM     11  C   UNL     1      -2.249  13.274  21.448  0.00  0.00    +0.000 A 
ATOM     12  C   UNL     1      -2.881  12.684  20.325  0.00  0.00    +0.000 A 
ATOM     13  C   UNL     1      -4.254  12.441  19.924  0.00  0.00    +0.000 A 
ATOM     14  C   UNL     1      -4.534  11.736  18.723  0.00  0.00    +0.000 A 
ATOM     15  C   UNL     1      -3.477  11.358  17.871  0.00  0.00    +0.000 A 
ATOM     16  C   UNL     1      -2.186  11.648  18.249  0.00  0.00    +0.000 A 
ATOM     17  C   UNL     1      -1.943  12.167  19.491  0.00  0.00    +0.000 A 
ATOM     18  C   UNL     1       1.191  11.854  19.480  0.00  0.00    +0.000 C 
ENDROOT
BRANCH   8  19
ATOM     19  O   UNL     1      -0.980  15.175  24.980  0.00  0.00    +0.000 OA
ATOM     20  C   UNL     1      -0.605  16.544  24.903  0.00  0.00    +0.000 C 
ENDBRANCH   8  19
BRANCH   9  21
ATOM     21  O   UNL     1      -3.841  14.946  24.237  0.00  0.00    +0.000 OA
ATOM     22  C   UNL     1      -4.341  16.267  24.345  0.00  0.00    +0.000 C 
ENDBRANCH   9  21
BRANCH  13  23
ATOM     23  O   UNL     1      -5.221  12.714  20.868  0.00  0.00    +0.000 OA
ATOM     24  C   UNL     1      -5.989  13.904  20.745  0.00  0.00    +0.000 C 
ENDBRANCH  13  23
BRANCH  14  25
ATOM     25  O   UNL     1      -5.828  11.315  18.560  0.00  0.00    +0.000 OA
ATOM     26  C   UNL     1      -6.642  12.067  17.680  0.00  0.00    +0.000 C 
ENDBRANCH  14  25
BRANCH  15  27
ATOM     27  O   UNL     1      -3.705  10.589  16.760  0.00  0.00    +0.000 OA
ATOM     28  C   UNL     1      -2.967  10.928  15.585  0.00  0.00    +0.000 C 
ENDBRANCH  15  27
BRANCH   1  29
ATOM     29  C   UNL     1       1.577   9.420  18.119  0.00  0.00    +0.000 C 
BRANCH  29  30
ATOM     30  C   UNL     1       2.556   8.314  17.588  0.00  0.00    +0.000 C 
BRANCH  30  32
ATOM     31  C   UNL     1       3.187   5.777  17.984  0.00  0.00    +0.000 C 
ATOM     32  C   UNL     1       2.553   7.051  18.556  0.00  0.00    +0.000 C 
ENDBRANCH  30  32
ENDBRANCH  29  30
ENDBRANCH   1  29
TORSDOF 8
ENDMDL
MODEL 2
REMARK VINA RESULT:      -5.9      2.212      6.300
REMARK  Name = 
REMARK  14 active torsions:
REMARK  status: ('A' for Active; 'I' for Inactive)
REMARK    1  A    between atoms: C_1  and  C_2
REMARK    2  A    between atoms: C_2  and  C_3
REMARK    3  A    between atoms: C_3  and  C_4
REMARK    4  A    between atoms: C_4  and  N_5
REMARK    5  A    between atoms: C_12  and  O_13
REMARK    6  A    between atoms: O_13  and  C_14
REMARK    7  A    between atoms: C_15  and  O_16
REMARK    8  A    between atoms: O_16  and  C_17
REMARK    9  A    between atoms: C_21  and  O_22
REMARK   10  A    between atoms: O_22  and  C_23
REMARK   11  A    between atoms: C_24  and  O_25
REMARK   12  A    between atoms: O_25  and  C_26
REMARK   13  A    between atoms: C_27  and  O_28
REMARK   14  A    between atoms: O_28  and  C_29
REMARK                            x       y       z     vdW  Elec       q    Type
REMARK                         _______ _______ _______ _____ _____    ______ ____
ROOT
ATOM      1  N   UNL     1       2.132  13.532  18.944  0.00  0.00    +0.000 NA
ATOM      2  C   UNL     1       1.144  14.626  18.834  0.00  0.00    +0.000 C 
ATOM      3  C   UNL     1      -0.295  14.221  18.915  0.00  0.00    +0.000 C 
ATOM      4  C   UNL     1      -0.417  12.806  19.474  0.00  0.00    +0.000 A 
ATOM      5  C   UNL     1      -0.169  11.831  18.520  0.00  0.00    +0.000 A 
ATOM      6  C   UNL     1      -1.612  11.612  18.195  0.00  0.00    +0.000 A 
ATOM      7  C   UNL     1      -2.165  11.014  16.966  0.00  0.00    +0.000 A 
ATOM      8  C   UNL     1      -3.604  10.879  16.587  0.00  0.00    +0.000 A 
ATOM      9  C   UNL     1      -4.594  11.305  17.459  0.00  0.00    +0.000 A 
ATOM     10  C   UNL     1      -4.130  11.799  18.666  0.00  0.00    +0.000 A 
ATOM     11  C   UNL     1      -2.774  11.975  19.059  0.00  0.00    +0.000 A 
ATOM     12  C   UNL     1      -2.557  12.534  20.344  0.00  0.00    +0.000 A 
ATOM     13  C   UNL     1      -3.404  13.066  21.395  0.00  0.00    +0.000 A 
ATOM     14  C   UNL     1      -2.827  13.628  22.564  0.00  0.00    +0.000 A 
ATOM     15  C   UNL     1      -1.429  13.579  22.747  0.00  0.00    +0.000 A 
ATOM     16  C   UNL     1      -0.652  13.020  21.759  0.00  0.00    +0.000 A 
ATOM     17  C   UNL     1      -1.224  12.651  20.573  0.00  0.00    +0.000 A 
ATOM     18  C   UNL     1       1.432  12.120  18.965  0.00  0.00    +0.000 C 
ENDROOT
BRANCH   8  19
ATOM     19  O   UNL     1      -4.058  10.368  15.390  0.00  0.00    +0.000 OA
ATOM     20  C   UNL     1      -3.091  10.114  14.380  0.00  0.00    +0.000 C 
ENDBRANCH   8  19
BRANCH   9  21
ATOM     21  O   UNL     1      -5.955  11.228  17.500  0.00  0.00    +0.000 OA
ATOM     22  C   UNL     1      -6.856  11.263  18.593  0.00  0.00    +0.000 C 
ENDBRANCH   9  21
BRANCH  13  23
ATOM     23  O   UNL     1      -4.741  13.205  21.086  0.00  0.00    +0.000 OA
ATOM     24  C   UNL     1      -5.205  14.448  20.573  0.00  0.00    +0.000 C 
ENDBRANCH  13  23
BRANCH  14  25
ATOM     25  O   UNL     1      -3.673  14.346  23.368  0.00  0.00    +0.000 OA
ATOM     26  C   UNL     1      -4.206  13.679  24.497  0.00  0.00    +0.000 C 
ENDBRANCH  14  25
BRANCH  15  27
ATOM     27  O   UNL     1      -0.835  14.203  23.812  0.00  0.00    +0.000 OA
ATOM     28  C   UNL     1      -0.500  15.581  23.640  0.00  0.00    +0.000 C 
ENDBRANCH  15  27
BRANCH   1  29
ATOM     29  C   UNL     1       3.159  14.130  19.917  0.00  0.00    +0.000 C 
BRANCH  29  30
ATOM     30  C   UNL     1       4.081  15.395  20.023  0.00  0.00    +0.000 C 
BRANCH  30  32
ATOM     31  C   UNL     1       5.433  14.700  17.861  0.00  0.00    +0.000 C 
ATOM     32  C   UNL     1       4.649  15.796  18.592  0.00  0.00    +0.000 C 
ENDBRANCH  30  32
ENDBRANCH  29  30
ENDBRANCH   1  29
TORSDOF 8
ENDMDL
MODEL 3
REMARK VINA RESULT:      -5.8      1.002      1.044
REMARK  Name = 
REMARK  14 active torsions:
REMARK  status: ('A' for Active; 'I' for Inactive)
REMARK    1  A    between atoms: C_1  and  C_2
REMARK    2  A    between atoms: C_2  and  C_3
REMARK    3  A    between atoms: C_3  and  C_4
REMARK    4  A    between atoms: C_4  and  N_5
REMARK    5  A    between atoms: C_12  and  O_13
REMARK    6  A    between atoms: O_13  and  C_14
REMARK    7  A    between atoms: C_15  and  O_16
REMARK    8  A    between atoms: O_16  and  C_17
REMARK    9  A    between atoms: C_21  and  O_22
REMARK   10  A    between atoms: O_22  and  C_23
REMARK   11  A    between atoms: C_24  and  O_25
REMARK   12  A    between atoms: O_25  and  C_26
REMARK   13  A    between atoms: C_27  and  O_28
REMARK   14  A    between atoms: O_28  and  C_29
REMARK                            x       y       z     vdW  Elec       q    Type
REMARK                         _______ _______ _______ _____ _____    ______ ____
ROOT
ATOM      1  N   UNL     1       1.456  10.068  19.294  0.00  0.00    +0.000 NA
ATOM      2  C   UNL     1       0.362   9.462  20.083  0.00  0.00    +0.000 C 
ATOM      3  C   UNL     1      -0.775  10.371  20.433  0.00  0.00    +0.000 C 
ATOM      4  C   UNL     1      -0.732  11.630  19.571  0.00  0.00    +0.000 A 
ATOM      5  C   UNL     1       0.187  12.561  20.029  0.00  0.00    +0.000 A 
ATOM      6  C   UNL     1      -0.821  13.359  20.793  0.00  0.00    +0.000 A 
ATOM      7  C   UNL     1      -0.559  14.291  21.904  0.00  0.00    +0.000 A 
ATOM      8  C   UNL     1      -1.563  15.019  22.738  0.00  0.00    +0.000 A 
ATOM      9  C   UNL     1      -2.916  14.884  22.469  0.00  0.00    +0.000 A 
ATOM     10  C   UNL     1      -3.214  14.084  21.378  0.00  0.00    +0.000 A 
ATOM     11  C   UNL     1      -2.298  13.349  20.576  0.00  0.00    +0.000 A 
ATOM     12  C   UNL     1      -2.858  12.573  19.529  0.00  0.00    +0.000 A 
ATOM     13  C   UNL     1      -4.202  12.262  19.081  0.00  0.00    +0.000 A 
ATOM     14  C   UNL     1      -4.405  11.362  18.002  0.00  0.00    +0.000 A 
ATOM     15  C   UNL     1      -3.295  10.846  17.302  0.00  0.00    +0.000 A 
ATOM     16  C   UNL     1      -2.031  11.199  17.714  0.00  0.00    +0.000 A 
ATOM     17  C   UNL     1      -1.869  11.924  18.862  0.00  0.00    +0.000 A 
ATOM     18  C   UNL     1       1.255  11.621  19.123  0.00  0.00    +0.000 C 
ENDROOT
BRANCH   8  19
ATOM     19  O   UNL     1      -1.257  15.829  23.810  0.00  0.00    +0.000 OA
ATOM     20  C   UNL     1      -1.337  15.253  25.107  0.00  0.00    +0.000 C 
ENDBRANCH   8  19
BRANCH   9  21
ATOM     21  O   UNL     1      -4.063  15.470  22.921  0.00  0.00    +0.000 OA
ATOM     22  C   UNL     1      -5.048  15.008  23.828  0.00  0.00    +0.000 C 
ENDBRANCH   9  21
BRANCH  13  23
ATOM     23  O   UNL     1      -5.229  12.690  19.895  0.00  0.00    +0.000 OA
ATOM     24  C   UNL     1      -6.102  13.710  19.426  0.00  0.00    +0.000 C 
ENDBRANCH  13  23
BRANCH  14  25
ATOM     25  O   UNL     1      -5.689  10.916  17.823  0.00  0.00    +0.000 OA
ATOM     26  C   UNL     1      -6.183   9.987  18.771  0.00  0.00    +0.000 C 
ENDBRANCH  14  25
BRANCH  15  27
ATOM     27  O   UNL     1      -3.455   9.898  16.326  0.00  0.00    +0.000 OA
ATOM     28  C   UNL     1      -3.066  10.271  15.003  0.00  0.00    +0.000 C 
ENDBRANCH  15  27
BRANCH   1  29
ATOM     29  C   UNL     1       1.710   8.991  18.228  0.00  0.00    +0.000 C 
BRANCH  29  30
ATOM     30  C   UNL     1       2.875   8.045  17.767  0.00  0.00    +0.000 C 
BRANCH  30  32
ATOM     31  C   UNL     1       2.404   6.314  19.708  0.00  0.00    +0.000 C 
ATOM     32  C   UNL     1       2.584   6.543  18.202  0.00  0.00    +0.000 C 
ENDBRANCH  30  32
ENDBRANCH  29  30
ENDBRANCH   1  29
TORSDOF 8
ENDMDL
MODEL 4
REMARK VINA RESULT:      -5.8      2.181      6.419
REMARK  Name = 
REMARK  14 active torsions:
REMARK  status: ('A' for Active; 'I' for Inactive)
REMARK    1  A    between atoms: C_1  and  C_2
REMARK    2  A    between atoms: C_2  and  C_3
REMARK    3  A    between atoms: C_3  and  C_4
REMARK    4  A    between atoms: C_4  and  N_5
REMARK    5  A    between atoms: C_12  and  O_13
REMARK    6  A    between atoms: O_13  and  C_14
REMARK    7  A    between atoms: C_15  and  O_16
REMARK    8  A    between atoms: O_16  and  C_17
REMARK    9  A    between atoms: C_21  and  O_22
REMARK   10  A    between atoms: O_22  and  C_23
REMARK   11  A    between atoms: C_24  and  O_25
REMARK   12  A    between atoms: O_25  and  C_26
REMARK   13  A    between atoms: C_27  and  O_28
REMARK   14  A    between atoms: O_28  and  C_29
REMARK                            x       y       z     vdW  Elec       q    Type
REMARK                         _______ _______ _______ _____ _____    ______ ____
ROOT
ATOM      1  N   UNL     1       2.058  13.474  19.321  0.00  0.00    +0.000 NA
ATOM      2  C   UNL     1       1.111  14.598  19.159  0.00  0.00    +0.000 C 
ATOM      3  C   UNL     1      -0.342  14.238  19.174  0.00  0.00    +0.000 C 
ATOM      4  C   UNL     1      -0.535  12.832  19.735  0.00  0.00    +0.000 A 
ATOM      5  C   UNL     1      -0.274  11.843  18.800  0.00  0.00    +0.000 A 
ATOM      6  C   UNL     1      -1.707  11.667  18.410  0.00  0.00    +0.000 A 
ATOM      7  C   UNL     1      -2.221  11.078  17.160  0.00  0.00    +0.000 A 
ATOM      8  C   UNL     1      -3.644  10.985  16.714  0.00  0.00    +0.000 A 
ATOM      9  C   UNL     1      -4.659  11.449  17.537  0.00  0.00    +0.000 A 
ATOM     10  C   UNL     1      -4.236  11.937  18.762  0.00  0.00    +0.000 A 
ATOM     11  C   UNL     1      -2.896  12.073  19.217  0.00  0.00    +0.000 A 
ATOM     12  C   UNL     1      -2.720  12.634  20.507  0.00  0.00    +0.000 A 
ATOM     13  C   UNL     1      -3.598  13.200  21.514  0.00  0.00    +0.000 A 
ATOM     14  C   UNL     1      -3.057  13.753  22.705  0.00  0.00    +0.000 A 
ATOM     15  C   UNL     1      -1.672  13.661  22.954  0.00  0.00    +0.000 A 
ATOM     16  C   UNL     1      -0.868  13.071  22.006  0.00  0.00    +0.000 A 
ATOM     17  C   UNL     1      -1.396  12.711  20.797  0.00  0.00    +0.000 A 
ATOM     18  C   UNL     1       1.313  12.085  19.317  0.00  0.00    +0.000 C 
ENDROOT
BRANCH   8  19
ATOM     19  O   UNL     1      -4.058  10.481  15.502  0.00  0.00    +0.000 OA
ATOM     20  C   UNL     1      -3.051  10.139  14.559  0.00  0.00    +0.000 C 
ENDBRANCH   8  19
BRANCH   9  21
ATOM     21  O   UNL     1      -6.023  11.415  17.516  0.00  0.00    +0.000 OA
ATOM     22  C   UNL     1      -6.984  12.220  18.176  0.00  0.00    +0.000 C 
ENDBRANCH   9  21
BRANCH  13  23
ATOM     23  O   UNL     1      -4.914  13.379  21.143  0.00  0.00    +0.000 OA
ATOM     24  C   UNL     1      -5.923  12.612  21.786  0.00  0.00    +0.000 C 
ENDBRANCH  13  23
BRANCH  14  25
ATOM     25  O   UNL     1      -3.916  14.503  23.465  0.00  0.00    +0.000 OA
ATOM     26  C   UNL     1      -4.062  15.866  23.113  0.00  0.00    +0.000 C 
ENDBRANCH  14  25
BRANCH  15  27
ATOM     27  O   UNL     1      -1.108  14.273  24.041  0.00  0.00    +0.000 OA
ATOM     28  C   UNL     1      -0.513  15.552  23.817  0.00  0.00    +0.000 C 
ENDBRANCH  15  27
BRANCH   1  29
ATOM     29  C   UNL     1       3.057  14.046  20.337  0.00  0.00    +0.000 C 
BRANCH  29  30
ATOM     30  C   UNL     1       3.032  14.840  21.691  0.00  0.00    +0.000 C 
BRANCH  30  32
ATOM     31  C   UNL     1       3.468  17.169  20.518  0.00  0.00    +0.000 C 
ATOM     32  C   UNL     1       3.915  16.159  21.583  0.00  0.00    +0.000 C 
ENDBRANCH  30  32
ENDBRANCH  29  30
ENDBRANCH   1  29
TORSDOF 8
ENDMDL
MODEL 5
REMARK VINA RESULT:      -5.8      2.930      4.839
REMARK  Name = 
REMARK  14 active torsions:
REMARK  status: ('A' for Active; 'I' for Inactive)
REMARK    1  A    between atoms: C_1  and  C_2
REMARK    2  A    between atoms: C_2  and  C_3
REMARK    3  A    between atoms: C_3  and  C_4
REMARK    4  A    between atoms: C_4  and  N_5
REMARK    5  A    between atoms: C_12  and  O_13
REMARK    6  A    between atoms: O_13  and  C_14
REMARK    7  A    between atoms: C_15  and  O_16
REMARK    8  A    between atoms: O_16  and  C_17
REMARK    9  A    between atoms: C_21  and  O_22
REMARK   10  A    between atoms: O_22  and  C_23
REMARK   11  A    between atoms: C_24  and  O_25
REMARK   12  A    between atoms: O_25  and  C_26
REMARK   13  A    between atoms: C_27  and  O_28
REMARK   14  A    between atoms: O_28  and  C_29
REMARK                            x       y       z     vdW  Elec       q    Type
REMARK                         _______ _______ _______ _____ _____    ______ ____
ROOT
ATOM      1  N   UNL     1       0.356   9.849  19.231  0.00  0.00    +0.000 NA
ATOM      2  C   UNL     1      -0.354  11.008  18.648  0.00  0.00    +0.000 C 
ATOM      3  C   UNL     1      -0.753  12.083  19.610  0.00  0.00    +0.000 C 
ATOM      4  C   UNL     1      -0.002  11.922  20.928  0.00  0.00    +0.000 A 
ATOM      5  C   UNL     1      -0.558  10.950  21.745  0.00  0.00    +0.000 A 
ATOM      6  C   UNL     1      -1.363  11.918  22.552  0.00  0.00    +0.000 A 
ATOM      7  C   UNL     1      -2.555  11.620  23.367  0.00  0.00    +0.000 A 
ATOM      8  C   UNL     1      -3.424  12.591  24.098  0.00  0.00    +0.000 A 
ATOM      9  C   UNL     1      -3.113  13.942  24.091  0.00  0.00    +0.000 A 
ATOM     10  C   UNL     1      -1.952  14.266  23.408  0.00  0.00    +0.000 A 
ATOM     11  C   UNL     1      -1.112  13.385  22.674  0.00  0.00    +0.000 A 
ATOM     12  C   UNL     1       0.009  13.969  22.032  0.00  0.00    +0.000 A 
ATOM     13  C   UNL     1       0.513  15.319  21.863  0.00  0.00    +0.000 A 
ATOM     14  C   UNL     1       1.669  15.557  21.073  0.00  0.00    +0.000 A 
ATOM     15  C   UNL     1       2.384  14.469  20.533  0.00  0.00    +0.000 A 
ATOM     16  C   UNL     1       1.915  13.194  20.753  0.00  0.00    +0.000 A 
ATOM     17  C   UNL     1       0.706  13.013  21.366  0.00  0.00    +0.000 A 
ATOM     18  C   UNL     1       0.400   9.929  20.804  0.00  0.00    +0.000 C 
ENDROOT
BRANCH   8  19
ATOM     19  O   UNL     1      -4.567  12.257  24.791  0.00  0.00    +0.000 OA
ATOM     20  C   UNL     1      -5.813  12.586  24.192  0.00  0.00    +0.000 C 
ENDBRANCH   8  19
BRANCH   9  21
ATOM     21  O   UNL     1      -3.586  15.054  24.723  0.00  0.00    +0.000 OA
ATOM     22  C   UNL     1      -3.017  16.341  24.891  0.00  0.00    +0.000 C 
ENDBRANCH   9  21
BRANCH  13  23
ATOM     23  O   UNL     1      -0.310  16.335  22.300  0.00  0.00    +0.000 OA
ATOM     24  C   UNL     1      -1.206  16.943  21.378  0.00  0.00    +0.000 C 
ENDBRANCH  13  23
BRANCH  14  25
ATOM     25  O   UNL     1       1.914  16.865  20.743  0.00  0.00    +0.000 OA
ATOM     26  C   UNL     1       2.876  17.554  21.520  0.00  0.00    +0.000 C 
ENDBRANCH  14  25
BRANCH  15  27
ATOM     27  O   UNL     1       3.440  14.669  19.684  0.00  0.00    +0.000 OA
ATOM     28  C   UNL     1       3.159  14.588  18.285  0.00  0.00    +0.000 C 
ENDBRANCH  15  27
BRANCH   1  29
ATOM     29  C   UNL     1       1.502   9.645  18.229  0.00  0.00    +0.000 C 
BRANCH  29  30
ATOM     30  C   UNL     1       2.493   8.509  17.792  0.00  0.00    +0.000 C 
BRANCH  30  32
ATOM     31  C   UNL     1       2.600   5.894  18.168  0.00  0.00    +0.000 C 
ATOM     32  C   UNL     1       2.417   7.280  18.800  0.00  0.00    +0.000 C 
ENDBRANCH  30  32
ENDBRANCH  29  30
ENDBRANCH   1  29
TORSDOF 8
ENDMDL
MODEL 6
REMARK VINA RESULT:      -5.7      0.967      1.156
REMARK  Name = 
REMARK  14 active torsions:
REMARK  status: ('A' for Active; 'I' for Inactive)
REMARK    1  A    between atoms: C_1  and  C_2
REMARK    2  A    between atoms: C_2  and  C_3
REMARK    3  A    between atoms: C_3  and  C_4
REMARK    4  A    between atoms: C_4  and  N_5
REMARK    5  A    between atoms: C_12  and  O_13
REMARK    6  A    between atoms: O_13  and  C_14
REMARK    7  A    between atoms: C_15  and  O_16
REMARK    8  A    between atoms: O_16  and  C_17
REMARK    9  A    between atoms: C_21  and  O_22
REMARK   10  A    between atoms: O_22  and  C_23
REMARK   11  A    between atoms: C_24  and  O_25
REMARK   12  A    between atoms: O_25  and  C_26
REMARK   13  A    between atoms: C_27  and  O_28
REMARK   14  A    between atoms: O_28  and  C_29
REMARK                            x       y       z     vdW  Elec       q    Type
REMARK                         _______ _______ _______ _____ _____    ______ ____
ROOT
ATOM      1  N   UNL     1       1.018  10.338  20.891  0.00  0.00    +0.000 NA
ATOM      2  C   UNL     1      -0.200   9.723  21.461  0.00  0.00    +0.000 C 
ATOM      3  C   UNL     1      -1.340  10.655  21.730  0.00  0.00    +0.000 C 
ATOM      4  C   UNL     1      -1.127  11.979  21.001  0.00  0.00    +0.000 A 
ATOM      5  C   UNL     1      -0.249  12.820  21.667  0.00  0.00    +0.000 A 
ATOM      6  C   UNL     1      -1.326  13.600  22.350  0.00  0.00    +0.000 A 
ATOM      7  C   UNL     1      -1.193  14.420  23.568  0.00  0.00    +0.000 A 
ATOM      8  C   UNL     1      -2.278  15.124  24.316  0.00  0.00    +0.000 A 
ATOM      9  C   UNL     1      -3.583  15.080  23.848  0.00  0.00    +0.000 A 
ATOM     10  C   UNL     1      -3.750  14.391  22.658  0.00  0.00    +0.000 A 
ATOM     11  C   UNL     1      -2.756  13.683  21.929  0.00  0.00    +0.000 A 
ATOM     12  C   UNL     1      -3.188  13.027  20.748  0.00  0.00    +0.000 A 
ATOM     13  C   UNL     1      -4.464  12.823  20.088  0.00  0.00    +0.000 A 
ATOM     14  C   UNL     1      -4.543  12.029  18.914  0.00  0.00    +0.000 A 
ATOM     15  C   UNL     1      -3.364  11.520  18.332  0.00  0.00    +0.000 A 
ATOM     16  C   UNL     1      -2.160  11.773  18.948  0.00  0.00    +0.000 A 
ATOM     17  C   UNL     1      -2.138  12.388  20.169  0.00  0.00    +0.000 A 
ATOM     18  C   UNL     1       0.903  11.909  20.837  0.00  0.00    +0.000 C 
ENDROOT
BRANCH   8  19
ATOM     19  O   UNL     1      -2.100  15.823  25.490  0.00  0.00    +0.000 OA
ATOM     20  C   UNL     1      -1.686  17.179  25.385  0.00  0.00    +0.000 C 
ENDBRANCH   8  19
BRANCH   9  21
ATOM     21  O   UNL     1      -4.760  15.682  24.186  0.00  0.00    +0.000 OA
ATOM     22  C   UNL     1      -6.098  15.361  23.851  0.00  0.00    +0.000 C 
ENDBRANCH   9  21
BRANCH  13  23
ATOM     23  O   UNL     1      -5.581  13.231  20.786  0.00  0.00    +0.000 OA
ATOM     24  C   UNL     1      -6.312  12.273  21.540  0.00  0.00    +0.000 C 
ENDBRANCH  13  23
BRANCH  14  25
ATOM     25  O   UNL     1      -5.803  11.664  18.517  0.00  0.00    +0.000 OA
ATOM     26  C   UNL     1      -6.398  12.430  17.486  0.00  0.00    +0.000 C 
ENDBRANCH  14  25
BRANCH  15  27
ATOM     27  O   UNL     1      -3.416  10.667  17.261  0.00  0.00    +0.000 OA
ATOM     28  C   UNL     1      -2.921  11.170  16.019  0.00  0.00    +0.000 C 
ENDBRANCH  15  27
BRANCH   1  29
ATOM     29  C   UNL     1       1.383   9.344  19.779  0.00  0.00    +0.000 C 
BRANCH  29  30
ATOM     30  C   UNL     1       1.369   9.278  18.210  0.00  0.00    +0.000 C 
BRANCH  30  32
ATOM     31  C   UNL     1       2.624   6.957  18.372  0.00  0.00    +0.000 C 
ATOM     32  C   UNL     1       2.525   8.321  17.679  0.00  0.00    +0.000 C 
ENDBRANCH  30  32
ENDBRANCH  29  30
ENDBRANCH   1  29
TORSDOF 8
ENDMDL
MODEL 7
REMARK VINA RESULT:      -5.7      2.858      4.208
REMARK  Name = 
REMARK  14 active torsions:
REMARK  status: ('A' for Active; 'I' for Inactive)
REMARK    1  A    between atoms: C_1  and  C_2
REMARK    2  A    between atoms: C_2  and  C_3
REMARK    3  A    between atoms: C_3  and  C_4
REMARK    4  A    between atoms: C_4  and  N_5
REMARK    5  A    between atoms: C_12  and  O_13
REMARK    6  A    between atoms: O_13  and  C_14
REMARK    7  A    between atoms: C_15  and  O_16
REMARK    8  A    between atoms: O_16  and  C_17
REMARK    9  A    between atoms: C_21  and  O_22
REMARK   10  A    between atoms: O_22  and  C_23
REMARK   11  A    between atoms: C_24  and  O_25
REMARK   12  A    between atoms: O_25  and  C_26
REMARK   13  A    between atoms: C_27  and  O_28
REMARK   14  A    between atoms: O_28  and  C_29
REMARK                            x       y       z     vdW  Elec       q    Type
REMARK                         _______ _______ _______ _____ _____    ______ ____
ROOT
ATOM      1  N   UNL     1       0.406   9.799  19.620  0.00  0.00    +0.000 NA
ATOM      2  C   UNL     1      -0.590  10.571  18.847  0.00  0.00    +0.000 C 
ATOM      3  C   UNL     1      -1.208  11.737  19.554  0.00  0.00    +0.000 C 
ATOM      4  C   UNL     1      -0.392  12.100  20.791  0.00  0.00    +0.000 A 
ATOM      5  C   UNL     1      -0.659  11.272  21.870  0.00  0.00    +0.000 A 
ATOM      6  C   UNL     1      -1.647  12.203  22.494  0.00  0.00    +0.000 A 
ATOM      7  C   UNL     1      -2.697  11.860  23.471  0.00  0.00    +0.000 A 
ATOM      8  C   UNL     1      -3.753  12.760  24.028  0.00  0.00    +0.000 A 
ATOM      9  C   UNL     1      -3.787  14.097  23.662  0.00  0.00    +0.000 A 
ATOM     10  C   UNL     1      -2.769  14.492  22.810  0.00  0.00    +0.000 A 
ATOM     11  C   UNL     1      -1.765  13.668  22.232  0.00  0.00    +0.000 A 
ATOM     12  C   UNL     1      -0.848  14.309  21.360  0.00  0.00    +0.000 A 
ATOM     13  C   UNL     1      -0.701  15.648  20.819  0.00  0.00    +0.000 A 
ATOM     14  C   UNL     1       0.329  15.933  19.885  0.00  0.00    +0.000 A 
ATOM     15  C   UNL     1       1.271  14.937  19.556  0.00  0.00    +0.000 A 
ATOM     16  C   UNL     1       1.141  13.690  20.124  0.00  0.00    +0.000 A 
ATOM     17  C   UNL     1       0.038  13.400  20.879  0.00  0.00    +0.000 A 
ATOM     18  C   UNL     1       0.487  10.291  21.114  0.00  0.00    +0.000 C 
ENDROOT
BRANCH   8  19
ATOM     19  O   UNL     1      -4.750  12.363  24.891  0.00  0.00    +0.000 OA
ATOM     20  C   UNL     1      -6.075  12.313  24.378  0.00  0.00    +0.000 C 
ENDBRANCH   8  19
BRANCH   9  21
ATOM     21  O   UNL     1      -4.498  15.195  24.050  0.00  0.00    +0.000 OA
ATOM     22  C   UNL     1      -5.087  16.237  23.292  0.00  0.00    +0.000 C 
ENDBRANCH   9  21
BRANCH  13  23
ATOM     23  O   UNL     1      -1.735  16.524  21.077  0.00  0.00    +0.000 OA
ATOM     24  C   UNL     1      -1.516  17.604  21.975  0.00  0.00    +0.000 C 
ENDBRANCH  13  23
BRANCH  14  25
ATOM     25  O   UNL     1       0.229  17.130  19.225  0.00  0.00    +0.000 OA
ATOM     26  C   UNL     1      -0.508  17.137  18.016  0.00  0.00    +0.000 C 
ENDBRANCH  14  25
BRANCH  15  27
ATOM     27  O   UNL     1       2.212  15.148  18.583  0.00  0.00    +0.000 OA
ATOM     28  C   UNL     1       3.182  14.117  18.398  0.00  0.00    +0.000 C 
ENDBRANCH  15  27
BRANCH   1  29
ATOM     29  C   UNL     1       1.529   9.612  18.589  0.00  0.00    +0.000 C 
BRANCH  29  30
ATOM     30  C   UNL     1       2.147   8.461  17.718  0.00  0.00    +0.000 C 
BRANCH  30  32
ATOM     31  C   UNL     1       3.563   6.252  18.040  0.00  0.00    +0.000 C 
ATOM     32  C   UNL     1       2.518   7.208  18.627  0.00  0.00    +0.000 C 
ENDBRANCH  30  32
ENDBRANCH  29  30
ENDBRANCH   1  29
TORSDOF 8
ENDMDL
MODEL 8
REMARK VINA RESULT:      -5.7      1.552      2.366
REMARK  Name = 
REMARK  14 active torsions:
REMARK  status: ('A' for Active; 'I' for Inactive)
REMARK    1  A    between atoms: C_1  and  C_2
REMARK    2  A    between atoms: C_2  and  C_3
REMARK    3  A    between atoms: C_3  and  C_4
REMARK    4  A    between atoms: C_4  and  N_5
REMARK    5  A    between atoms: C_12  and  O_13
REMARK    6  A    between atoms: O_13  and  C_14
REMARK    7  A    between atoms: C_15  and  O_16
REMARK    8  A    between atoms: O_16  and  C_17
REMARK    9  A    between atoms: C_21  and  O_22
REMARK   10  A    between atoms: O_22  and  C_23
REMARK   11  A    between atoms: C_24  and  O_25
REMARK   12  A    between atoms: O_25  and  C_26
REMARK   13  A    between atoms: C_27  and  O_28
REMARK   14  A    between atoms: O_28  and  C_29
REMARK                            x       y       z     vdW  Elec       q    Type
REMARK                         _______ _______ _______ _____ _____    ______ ____
ROOT
ATOM      1  N   UNL     1       0.421  11.003  21.616  0.00  0.00    +0.000 NA
ATOM      2  C   UNL     1      -0.723  10.496  22.403  0.00  0.00    +0.000 C 
ATOM      3  C   UNL     1      -1.766  11.506  22.767  0.00  0.00    +0.000 C 
ATOM      4  C   UNL     1      -1.605  12.765  21.920  0.00  0.00    +0.000 A 
ATOM      5  C   UNL     1      -0.599  13.598  22.385  0.00  0.00    +0.000 A 
ATOM      6  C   UNL     1      -1.524  14.480  23.161  0.00  0.00    +0.000 A 
ATOM      7  C   UNL     1      -1.171  15.370  24.282  0.00  0.00    +0.000 A 
ATOM      8  C   UNL     1      -2.098  16.181  25.128  0.00  0.00    +0.000 A 
ATOM      9  C   UNL     1      -3.458  16.181  24.862  0.00  0.00    +0.000 A 
ATOM     10  C   UNL     1      -3.835  15.425  23.764  0.00  0.00    +0.000 A 
ATOM     11  C   UNL     1      -2.996  14.615  22.950  0.00  0.00    +0.000 A 
ATOM     12  C   UNL     1      -3.630  13.909  21.897  0.00  0.00    +0.000 A 
ATOM     13  C   UNL     1      -5.000  13.734  21.449  0.00  0.00    +0.000 A 
ATOM     14  C   UNL     1      -5.292  12.870  20.361  0.00  0.00    +0.000 A 
ATOM     15  C   UNL     1      -4.238  12.258  19.651  0.00  0.00    +0.000 A 
ATOM     16  C   UNL     1      -2.945  12.483  20.062  0.00  0.00    +0.000 A 
ATOM     17  C   UNL     1      -2.711  13.175  21.219  0.00  0.00    +0.000 A 
ATOM     18  C   UNL     1       0.371  12.570  21.464  0.00  0.00    +0.000 C 
ENDROOT
BRANCH   8  19
ATOM     19  O   UNL     1      -1.712  16.945  26.208  0.00  0.00    +0.000 OA
ATOM     20  C   UNL     1      -1.470  18.327  25.976  0.00  0.00    +0.000 C 
ENDBRANCH   8  19
BRANCH   9  21
ATOM     21  O   UNL     1      -4.542  16.869  25.325  0.00  0.00    +0.000 OA
ATOM     22  C   UNL     1      -5.564  17.566  24.635  0.00  0.00    +0.000 C 
ENDBRANCH   9  21
BRANCH  13  23
ATOM     23  O   UNL     1      -5.978  14.249  22.272  0.00  0.00    +0.000 OA
ATOM     24  C   UNL     1      -6.759  15.345  21.813  0.00  0.00    +0.000 C 
ENDBRANCH  13  23
BRANCH  14  25
ATOM     25  O   UNL     1      -6.613  12.551  20.183  0.00  0.00    +0.000 OA
ATOM     26  C   UNL     1      -7.083  11.380  20.825  0.00  0.00    +0.000 C 
ENDBRANCH  14  25
BRANCH  15  27
ATOM     27  O   UNL     1      -4.491  11.341  18.666  0.00  0.00    +0.000 OA
ATOM     28  C   UNL     1      -4.775  11.861  17.366  0.00  0.00    +0.000 C 
ENDBRANCH  15  27
BRANCH   1  29
ATOM     29  C   UNL     1       0.568   9.919  20.538  0.00  0.00    +0.000 C 
BRANCH  29  30
ATOM     30  C   UNL     1       0.296   9.743  19.002  0.00  0.00    +0.000 C 
BRANCH  30  32
ATOM     31  C   UNL     1       2.262   8.425  17.825  0.00  0.00    +0.000 C 
ATOM     32  C   UNL     1       1.659   9.789  18.182  0.00  0.00    +0.000 C 
ENDBRANCH  30  32
ENDBRANCH  29  30
ENDBRANCH   1  29
TORSDOF 8
ENDMDL
MODEL 9
REMARK VINA RESULT:      -5.7      2.848      6.729
REMARK  Name = 
REMARK  14 active torsions:
REMARK  status: ('A' for Active; 'I' for Inactive)
REMARK    1  A    between atoms: C_1  and  C_2
REMARK    2  A    between atoms: C_2  and  C_3
REMARK    3  A    between atoms: C_3  and  C_4
REMARK    4  A    between atoms: C_4  and  N_5
REMARK    5  A    between atoms: C_12  and  O_13
REMARK    6  A    between atoms: O_13  and  C_14
REMARK    7  A    between atoms: C_15  and  O_16
REMARK    8  A    between atoms: O_16  and  C_17
REMARK    9  A    between atoms: C_21  and  O_22
REMARK   10  A    between atoms: O_22  and  C_23
REMARK   11  A    between atoms: C_24  and  O_25
REMARK   12  A    between atoms: O_25  and  C_26
REMARK   13  A    between atoms: C_27  and  O_28
REMARK   14  A    between atoms: O_28  and  C_29
REMARK                            x       y       z     vdW  Elec       q    Type
REMARK                         _______ _______ _______ _____ _____    ______ ____
ROOT
ATOM      1  N   UNL     1      -4.456  15.727  23.690  0.00  0.00    +0.000 NA
ATOM      2  C   UNL     1      -4.408  16.206  22.292  0.00  0.00    +0.000 C 
ATOM      3  C   UNL     1      -3.657  15.342  21.328  0.00  0.00    +0.000 C 
ATOM      4  C   UNL     1      -3.426  13.957  21.926  0.00  0.00    +0.000 A 
ATOM      5  C   UNL     1      -2.364  13.930  22.817  0.00  0.00    +0.000 A 
ATOM      6  C   UNL     1      -1.374  13.440  21.809  0.00  0.00    +0.000 A 
ATOM      7  C   UNL     1       0.094  13.552  21.878  0.00  0.00    +0.000 A 
ATOM      8  C   UNL     1       1.088  13.156  20.835  0.00  0.00    +0.000 A 
ATOM      9  C   UNL     1       0.657  12.570  19.654  0.00  0.00    +0.000 A 
ATOM     10  C   UNL     1      -0.710  12.365  19.573  0.00  0.00    +0.000 A 
ATOM     11  C   UNL     1      -1.695  12.751  20.523  0.00  0.00    +0.000 A 
ATOM     12  C   UNL     1      -3.041  12.454  20.193  0.00  0.00    +0.000 A 
ATOM     13  C   UNL     1      -3.721  11.888  19.042  0.00  0.00    +0.000 A 
ATOM     14  C   UNL     1      -5.138  11.797  19.023  0.00  0.00    +0.000 A 
ATOM     15  C   UNL     1      -5.879  12.165  20.164  0.00  0.00    +0.000 A 
ATOM     16  C   UNL     1      -5.206  12.648  21.262  0.00  0.00    +0.000 A 
ATOM     17  C   UNL     1      -3.862  12.890  21.183  0.00  0.00    +0.000 A 
ATOM     18  C   UNL     1      -3.548  14.456  23.897  0.00  0.00    +0.000 C 
ENDROOT
BRANCH   8  19
ATOM     19  O   UNL     1       2.449  13.346  20.931  0.00  0.00    +0.000 OA
ATOM     20  C   UNL     1       2.899  14.475  21.669  0.00  0.00    +0.000 C 
ENDBRANCH   8  19
BRANCH   9  21
ATOM     21  O   UNL     1       1.262  11.990  18.577  0.00  0.00    +0.000 OA
ATOM     22  C   UNL     1       1.820  10.699  18.408  0.00  0.00    +0.000 C 
ENDBRANCH   9  21
BRANCH  13  23
ATOM     23  O   UNL     1      -2.947  11.682  17.920  0.00  0.00    +0.000 OA
ATOM     24  C   UNL     1      -2.655  10.350  17.518  0.00  0.00    +0.000 C 
ENDBRANCH  13  23
BRANCH  14  25
ATOM     25  O   UNL     1      -5.706  11.511  17.808  0.00  0.00    +0.000 OA
ATOM     26  C   UNL     1      -6.138  12.610  17.027  0.00  0.00    +0.000 C 
ENDBRANCH  14  25
BRANCH  15  27
ATOM     27  O   UNL     1      -7.249  12.185  20.140  0.00  0.00    +0.000 OA
ATOM     28  C   UNL     1      -7.916  11.233  20.970  0.00  0.00    +0.000 C 
ENDBRANCH  15  27
BRANCH   1  29
ATOM     29  C   UNL     1      -5.934  15.942  24.048  0.00  0.00    +0.000 C 
BRANCH  29  30
ATOM     30  C   UNL     1      -7.331  15.922  23.334  0.00  0.00    +0.000 C 
BRANCH  30  32
ATOM     31  C   UNL     1      -7.413  13.444  24.250  0.00  0.00    +0.000 C 
ATOM     32  C   UNL     1      -7.850  14.429  23.159  0.00  0.00    +0.000 C 
ENDBRANCH  30  32
ENDBRANCH  29  30
ENDBRANCH   1  29
TORSDOF 8
ENDMDL
