MODEL 1
REMARK VINA RESULT:      -7.1      0.000      0.000
REMARK  Name = 
REMARK  9 active torsions:
REMARK  status: ('A' for Active; 'I' for Inactive)
REMARK    1  A    between atoms: C_1  and  C_2
REMARK    2  A    between atoms: C_2  and  N_3
REMARK    3  A    between atoms: C_7  and  C_8
REMARK    4  A    between atoms: C_8  and  N_9
REMARK    5  A    between atoms: N_9  and  S_10
REMARK    6  A    between atoms: S_10  and  C_13
REMARK    7  A    between atoms: C_17  and  N_18
REMARK    8  A    between atoms: C_20  and  O_21
REMARK    9  A    between atoms: O_21  and  C_22
REMARK                            x       y       z     vdW  Elec       q    Type
REMARK                         _______ _______ _______ _____ _____    ______ ____
ROOT
ATOM      1  S   UNL     1       3.374   3.435  17.746  0.00  0.00    +0.000 S 
ATOM      2  O   UNL     1       3.512   3.903  16.385  0.00  0.00    +0.000 OA
ATOM      3  O   UNL     1       2.575   2.278  18.104  0.00  0.00    +0.000 OA
ENDROOT
BRANCH   1   4
ATOM      4  C   UNL     1       2.857   4.818  18.733  0.00  0.00    +0.000 A 
ATOM      5  C   UNL     1       2.766   6.083  18.142  0.00  0.00    +0.000 A 
ATOM      6  C   UNL     1       2.323   7.176  18.877  0.00  0.00    +0.000 A 
ATOM      7 CL   UNL     1       2.246   8.713  18.089  0.00  0.00    +0.000 Cl
ATOM      8  C   UNL     1       1.911   7.021  20.204  0.00  0.00    +0.000 A 
ATOM      9  C   UNL     1       2.054   5.760  20.802  0.00  0.00    +0.000 A 
ATOM     10  C   UNL     1       2.515   4.646  20.079  0.00  0.00    +0.000 A 
BRANCH   8  11
ATOM     11  N   UNL     1       1.574   8.126  21.005  0.00  0.00    +0.000 N 
ATOM     12  H   UNL     1       0.613   8.086  21.345  0.00  0.00    +0.000 HD
ATOM     13  H   UNL     1       2.240   8.334  21.743  0.00  0.00    +0.000 HD
ENDBRANCH   8  11
BRANCH  10  14
ATOM     14  O   UNL     1       2.657   3.397  20.621  0.00  0.00    +0.000 OA
ATOM     15  C   UNL     1       1.583   2.896  21.416  0.00  0.00    +0.000 C 
ENDBRANCH  10  14
ENDBRANCH   1   4
BRANCH   1  16
ATOM     16  N   UNL     1       4.960   3.111  18.257  0.00  0.00    +0.000 NA
ATOM     17  H   UNL     1       5.002   2.203  18.728  0.00  0.00    +0.000 HD
BRANCH  16  18
ATOM     18  C   UNL     1       5.684   4.192  18.959  0.00  0.00    +0.000 C 
BRANCH  18  23
ATOM     19  N   UNL     1       6.273   5.384  16.813  0.00  0.00    +0.000 NA
ATOM     20  C   UNL     1       6.361   6.844  16.990  0.00  0.00    +0.000 C 
ATOM     21  C   UNL     1       7.632   7.066  17.779  0.00  0.00    +0.000 C 
ATOM     22  C   UNL     1       7.602   5.925  18.778  0.00  0.00    +0.000 C 
ATOM     23  C   UNL     1       6.807   4.804  18.085  0.00  0.00    +0.000 C 
BRANCH  19  25
ATOM     24  C   UNL     1       6.299   4.514  14.428  0.00  0.00    +0.000 C 
ATOM     25  C   UNL     1       7.085   4.883  15.681  0.00  0.00    +0.000 C 
ENDBRANCH  19  25
ENDBRANCH  18  23
ENDBRANCH  16  18
ENDBRANCH   1  16
TORSDOF 7
ENDMDL
MODEL 2
REMARK VINA RESULT:      -6.7      0.923      1.139
REMARK  Name = 
REMARK  9 active torsions:
REMARK  status: ('A' for Active; 'I' for Inactive)
REMARK    1  A    between atoms: C_1  and  C_2
REMARK    2  A    between atoms: C_2  and  N_3
REMARK    3  A    between atoms: C_7  and  C_8
REMARK    4  A    between atoms: C_8  and  N_9
REMARK    5  A    between atoms: N_9  and  S_10
REMARK    6  A    between atoms: S_10  and  C_13
REMARK    7  A    between atoms: C_17  and  N_18
REMARK    8  A    between atoms: C_20  and  O_21
REMARK    9  A    between atoms: O_21  and  C_22
REMARK                            x       y       z     vdW  Elec       q    Type
REMARK                         _______ _______ _______ _____ _____    ______ ____
ROOT
ATOM      1  S   UNL     1       4.137   3.030  19.300  0.00  0.00    +0.000 S 
ATOM      2  O   UNL     1       3.309   2.273  18.388  0.00  0.00    +0.000 OA
ATOM      3  O   UNL     1       4.649   2.480  20.541  0.00  0.00    +0.000 OA
ENDROOT
BRANCH   1   4
ATOM      4  C   UNL     1       3.287   4.549  19.651  0.00  0.00    +0.000 A 
ATOM      5  C   UNL     1       3.424   5.628  18.772  0.00  0.00    +0.000 A 
ATOM      6  C   UNL     1       2.738   6.815  18.997  0.00  0.00    +0.000 A 
ATOM      7 CL   UNL     1       2.961   8.112  17.877  0.00  0.00    +0.000 Cl
ATOM      8  C   UNL     1       1.858   6.934  20.078  0.00  0.00    +0.000 A 
ATOM      9  C   UNL     1       1.767   5.865  20.982  0.00  0.00    +0.000 A 
ATOM     10  C   UNL     1       2.466   4.662  20.780  0.00  0.00    +0.000 A 
BRANCH   8  11
ATOM     11  N   UNL     1       1.245   8.158  20.398  0.00  0.00    +0.000 N 
ATOM     12  H   UNL     1       0.235   8.074  20.507  0.00  0.00    +0.000 HD
ATOM     13  H   UNL     1       1.680   8.662  21.165  0.00  0.00    +0.000 HD
ENDBRANCH   8  11
BRANCH  10  14
ATOM     14  O   UNL     1       2.395   3.592  21.630  0.00  0.00    +0.000 OA
ATOM     15  C   UNL     1       1.289   2.703  21.481  0.00  0.00    +0.000 C 
ENDBRANCH  10  14
ENDBRANCH   1   4
BRANCH   1  16
ATOM     16  N   UNL     1       5.485   3.494  18.378  0.00  0.00    +0.000 NA
ATOM     17  H   UNL     1       5.910   2.675  17.934  0.00  0.00    +0.000 HD
BRANCH  16  18
ATOM     18  C   UNL     1       6.456   4.414  19.007  0.00  0.00    +0.000 C 
BRANCH  18  23
ATOM     19  N   UNL     1       6.463   5.544  16.750  0.00  0.00    +0.000 NA
ATOM     20  C   UNL     1       6.221   6.994  16.850  0.00  0.00    +0.000 C 
ATOM     21  C   UNL     1       7.493   7.563  17.439  0.00  0.00    +0.000 C 
ATOM     22  C   UNL     1       7.865   6.525  18.480  0.00  0.00    +0.000 C 
ATOM     23  C   UNL     1       7.278   5.201  17.957  0.00  0.00    +0.000 C 
BRANCH  19  25
ATOM     24  C   UNL     1       6.374   4.639  14.380  0.00  0.00    +0.000 C 
ATOM     25  C   UNL     1       7.219   5.160  15.536  0.00  0.00    +0.000 C 
ENDBRANCH  19  25
ENDBRANCH  18  23
ENDBRANCH  16  18
ENDBRANCH   1  16
TORSDOF 7
ENDMDL
MODEL 3
REMARK VINA RESULT:      -6.5      1.030      1.901
REMARK  Name = 
REMARK  9 active torsions:
REMARK  status: ('A' for Active; 'I' for Inactive)
REMARK    1  A    between atoms: C_1  and  C_2
REMARK    2  A    between atoms: C_2  and  N_3
REMARK    3  A    between atoms: C_7  and  C_8
REMARK    4  A    between atoms: C_8  and  N_9
REMARK    5  A    between atoms: N_9  and  S_10
REMARK    6  A    between atoms: S_10  and  C_13
REMARK    7  A    between atoms: C_17  and  N_18
REMARK    8  A    between atoms: C_20  and  O_21
REMARK    9  A    between atoms: O_21  and  C_22
REMARK                            x       y       z     vdW  Elec       q    Type
REMARK                         _______ _______ _______ _____ _____    ______ ____
ROOT
ATOM      1  S   UNL     1       2.125   3.196  17.740  0.00  0.00    +0.000 S 
ATOM      2  O   UNL     1       2.201   3.611  16.357  0.00  0.00    +0.000 OA
ATOM      3  O   UNL     1       1.139   2.249  18.226  0.00  0.00    +0.000 OA
ENDROOT
BRANCH   1   4
ATOM      4  C   UNL     1       2.047   4.667  18.731  0.00  0.00    +0.000 A 
ATOM      5  C   UNL     1       2.279   5.909  18.131  0.00  0.00    +0.000 A 
ATOM      6  C   UNL     1       2.183   7.081  18.871  0.00  0.00    +0.000 A 
ATOM      7 CL   UNL     1       2.493   8.581  18.070  0.00  0.00    +0.000 Cl
ATOM      8  C   UNL     1       1.801   7.043  20.216  0.00  0.00    +0.000 A 
ATOM      9  C   UNL     1       1.620   5.791  20.822  0.00  0.00    +0.000 A 
ATOM     10  C   UNL     1       1.729   4.593  20.093  0.00  0.00    +0.000 A 
BRANCH   8  11
ATOM     11  N   UNL     1       1.813   8.198  21.018  0.00  0.00    +0.000 N 
ATOM     12  H   UNL     1       2.427   8.107  21.827  0.00  0.00    +0.000 HD
ATOM     13  H   UNL     1       1.961   9.065  20.512  0.00  0.00    +0.000 HD
ENDBRANCH   8  11
BRANCH  10  14
ATOM     14  O   UNL     1       1.548   3.353  20.642  0.00  0.00    +0.000 OA
ATOM     15  C   UNL     1       2.353   3.006  21.768  0.00  0.00    +0.000 C 
ENDBRANCH  10  14
ENDBRANCH   1   4
BRANCH   1  16
ATOM     16  N   UNL     1       3.650   2.530  18.077  0.00  0.00    +0.000 NA
ATOM     17  H   UNL     1       3.548   1.666  18.618  0.00  0.00    +0.000 HD
BRANCH  16  18
ATOM     18  C   UNL     1       4.695   3.443  18.585  0.00  0.00    +0.000 C 
BRANCH  18  23
ATOM     19  N   UNL     1       6.433   5.154  17.932  0.00  0.00    +0.000 NA
ATOM     20  C   UNL     1       7.558   4.553  17.195  0.00  0.00    +0.000 C 
ATOM     21  C   UNL     1       6.996   4.209  15.835  0.00  0.00    +0.000 C 
ATOM     22  C   UNL     1       5.614   3.684  16.174  0.00  0.00    +0.000 C 
ATOM     23  C   UNL     1       5.224   4.394  17.483  0.00  0.00    +0.000 C 
BRANCH  19  25
ATOM     24  C   UNL     1       7.512   7.421  17.559  0.00  0.00    +0.000 C 
ATOM     25  C   UNL     1       6.236   6.589  17.630  0.00  0.00    +0.000 C 
ENDBRANCH  19  25
ENDBRANCH  18  23
ENDBRANCH  16  18
ENDBRANCH   1  16
TORSDOF 7
ENDMDL
MODEL 4
REMARK VINA RESULT:      -6.4      1.254      2.364
REMARK  Name = 
REMARK  9 active torsions:
REMARK  status: ('A' for Active; 'I' for Inactive)
REMARK    1  A    between atoms: C_1  and  C_2
REMARK    2  A    between atoms: C_2  and  N_3
REMARK    3  A    between atoms: C_7  and  C_8
REMARK    4  A    between atoms: C_8  and  N_9
REMARK    5  A    between atoms: N_9  and  S_10
REMARK    6  A    between atoms: S_10  and  C_13
REMARK    7  A    between atoms: C_17  and  N_18
REMARK    8  A    between atoms: C_20  and  O_21
REMARK    9  A    between atoms: O_21  and  C_22
REMARK                            x       y       z     vdW  Elec       q    Type
REMARK                         _______ _______ _______ _____ _____    ______ ____
ROOT
ATOM      1  S   UNL     1       4.053   2.854  19.197  0.00  0.00    +0.000 S 
ATOM      2  O   UNL     1       3.010   1.982  18.704  0.00  0.00    +0.000 OA
ATOM      3  O   UNL     1       4.956   2.475  20.267  0.00  0.00    +0.000 OA
ENDROOT
BRANCH   1   4
ATOM      4  C   UNL     1       3.296   4.407  19.607  0.00  0.00    +0.000 A 
ATOM      5  C   UNL     1       3.428   5.485  18.726  0.00  0.00    +0.000 A 
ATOM      6  C   UNL     1       2.811   6.701  18.998  0.00  0.00    +0.000 A 
ATOM      7 CL   UNL     1       3.026   7.995  17.873  0.00  0.00    +0.000 Cl
ATOM      8  C   UNL     1       2.004   6.851  20.130  0.00  0.00    +0.000 A 
ATOM      9  C   UNL     1       1.920   5.780  21.033  0.00  0.00    +0.000 A 
ATOM     10  C   UNL     1       2.549   4.548  20.783  0.00  0.00    +0.000 A 
BRANCH   8  11
ATOM     11  N   UNL     1       1.469   8.098  20.493  0.00  0.00    +0.000 N 
ATOM     12  H   UNL     1       0.452   8.079  20.576  0.00  0.00    +0.000 HD
ATOM     13  H   UNL     1       1.917   8.537  21.292  0.00  0.00    +0.000 HD
ENDBRANCH   8  11
BRANCH  10  14
ATOM     14  O   UNL     1       2.481   3.476  21.631  0.00  0.00    +0.000 OA
ATOM     15  C   UNL     1       1.272   2.719  21.640  0.00  0.00    +0.000 C 
ENDBRANCH  10  14
ENDBRANCH   1   4
BRANCH   1  16
ATOM     16  N   UNL     1       5.016   3.189  17.840  0.00  0.00    +0.000 NA
ATOM     17  H   UNL     1       5.754   3.855  18.085  0.00  0.00    +0.000 HD
BRANCH  16  18
ATOM     18  C   UNL     1       4.322   3.494  16.571  0.00  0.00    +0.000 C 
BRANCH  18  23
ATOM     19  N   UNL     1       6.285   5.076  16.443  0.00  0.00    +0.000 NA
ATOM     20  C   UNL     1       7.357   4.567  15.569  0.00  0.00    +0.000 C 
ATOM     21  C   UNL     1       6.813   4.701  14.165  0.00  0.00    +0.000 C 
ATOM     22  C   UNL     1       5.363   4.287  14.334  0.00  0.00    +0.000 C 
ATOM     23  C   UNL     1       5.011   4.641  15.790  0.00  0.00    +0.000 C 
BRANCH  19  25
ATOM     24  C   UNL     1       7.135   7.114  17.695  0.00  0.00    +0.000 C 
ATOM     25  C   UNL     1       6.282   6.551  16.565  0.00  0.00    +0.000 C 
ENDBRANCH  19  25
ENDBRANCH  18  23
ENDBRANCH  16  18
ENDBRANCH   1  16
TORSDOF 7
ENDMDL
MODEL 5
REMARK VINA RESULT:      -6.4      1.037      1.777
REMARK  Name = 
REMARK  9 active torsions:
REMARK  status: ('A' for Active; 'I' for Inactive)
REMARK    1  A    between atoms: C_1  and  C_2
REMARK    2  A    between atoms: C_2  and  N_3
REMARK    3  A    between atoms: C_7  and  C_8
REMARK    4  A    between atoms: C_8  and  N_9
REMARK    5  A    between atoms: N_9  and  S_10
REMARK    6  A    between atoms: S_10  and  C_13
REMARK    7  A    between atoms: C_17  and  N_18
REMARK    8  A    between atoms: C_20  and  O_21
REMARK    9  A    between atoms: O_21  and  C_22
REMARK                            x       y       z     vdW  Elec       q    Type
REMARK                         _______ _______ _______ _____ _____    ______ ____
ROOT
ATOM      1  S   UNL     1       3.367   3.675  17.664  0.00  0.00    +0.000 S 
ATOM      2  O   UNL     1       2.196   3.132  17.013  0.00  0.00    +0.000 OA
ATOM      3  O   UNL     1       4.302   2.858  18.415  0.00  0.00    +0.000 OA
ENDROOT
BRANCH   1   4
ATOM      4  C   UNL     1       2.828   5.022  18.688  0.00  0.00    +0.000 A 
ATOM      5  C   UNL     1       2.779   6.312  18.151  0.00  0.00    +0.000 A 
ATOM      6  C   UNL     1       2.320   7.379  18.915  0.00  0.00    +0.000 A 
ATOM      7 CL   UNL     1       2.297   8.949  18.192  0.00  0.00    +0.000 Cl
ATOM      8  C   UNL     1       1.851   7.172  20.216  0.00  0.00    +0.000 A 
ATOM      9  C   UNL     1       1.953   5.884  20.763  0.00  0.00    +0.000 A 
ATOM     10  C   UNL     1       2.428   4.795  20.011  0.00  0.00    +0.000 A 
BRANCH   8  11
ATOM     11  N   UNL     1       1.497   8.246  21.050  0.00  0.00    +0.000 N 
ATOM     12  H   UNL     1       1.796   8.108  22.015  0.00  0.00    +0.000 HD
ATOM     13  H   UNL     1       1.746   9.162  20.692  0.00  0.00    +0.000 HD
ENDBRANCH   8  11
BRANCH  10  14
ATOM     14  O   UNL     1       2.531   3.522  20.502  0.00  0.00    +0.000 OA
ATOM     15  C   UNL     1       1.319   2.838  20.819  0.00  0.00    +0.000 C 
ENDBRANCH  10  14
ENDBRANCH   1   4
BRANCH   1  16
ATOM     16  N   UNL     1       4.254   4.411  16.417  0.00  0.00    +0.000 NA
ATOM     17  H   UNL     1       3.690   4.464  15.564  0.00  0.00    +0.000 HD
BRANCH  16  18
ATOM     18  C   UNL     1       5.640   3.945  16.200  0.00  0.00    +0.000 C 
BRANCH  18  23
ATOM     19  N   UNL     1       6.059   6.075  17.488  0.00  0.00    +0.000 NA
ATOM     20  C   UNL     1       6.466   5.815  18.880  0.00  0.00    +0.000 C 
ATOM     21  C   UNL     1       7.877   5.279  18.781  0.00  0.00    +0.000 C 
ATOM     22  C   UNL     1       7.801   4.377  17.564  0.00  0.00    +0.000 C 
ATOM     23  C   UNL     1       6.686   4.977  16.687  0.00  0.00    +0.000 C 
BRANCH  19  25
ATOM     24  C   UNL     1       7.675   8.013  17.763  0.00  0.00    +0.000 C 
ATOM     25  C   UNL     1       6.536   7.377  16.973  0.00  0.00    +0.000 C 
ENDBRANCH  19  25
ENDBRANCH  18  23
ENDBRANCH  16  18
ENDBRANCH   1  16
TORSDOF 7
ENDMDL
MODEL 6
REMARK VINA RESULT:      -6.2      2.570      5.962
REMARK  Name = 
REMARK  9 active torsions:
REMARK  status: ('A' for Active; 'I' for Inactive)
REMARK    1  A    between atoms: C_1  and  C_2
REMARK    2  A    between atoms: C_2  and  N_3
REMARK    3  A    between atoms: C_7  and  C_8
REMARK    4  A    between atoms: C_8  and  N_9
REMARK    5  A    between atoms: N_9  and  S_10
REMARK    6  A    between atoms: S_10  and  C_13
REMARK    7  A    between atoms: C_17  and  N_18
REMARK    8  A    between atoms: C_20  and  O_21
REMARK    9  A    between atoms: O_21  and  C_22
REMARK                            x       y       z     vdW  Elec       q    Type
REMARK                         _______ _______ _______ _____ _____    ______ ____
ROOT
ATOM      1  S   UNL     1       2.727   5.032  19.229  0.00  0.00    +0.000 S 
ATOM      2  O   UNL     1       3.022   4.180  20.360  0.00  0.00    +0.000 OA
ATOM      3  O   UNL     1       1.505   4.920  18.456  0.00  0.00    +0.000 OA
ENDROOT
BRANCH   1   4
ATOM      4  C   UNL     1       4.116   4.947  18.126  0.00  0.00    +0.000 A 
ATOM      5  C   UNL     1       5.051   5.986  18.124  0.00  0.00    +0.000 A 
ATOM      6  C   UNL     1       6.171   5.929  17.303  0.00  0.00    +0.000 A 
ATOM      7 CL   UNL     1       7.281   7.253  17.341  0.00  0.00    +0.000 Cl
ATOM      8  C   UNL     1       6.409   4.806  16.503  0.00  0.00    +0.000 A 
ATOM      9  C   UNL     1       5.439   3.792  16.474  0.00  0.00    +0.000 A 
ATOM     10  C   UNL     1       4.293   3.841  17.286  0.00  0.00    +0.000 A 
BRANCH   8  11
ATOM     11  N   UNL     1       7.465   4.772  15.576  0.00  0.00    +0.000 N 
ATOM     12  H   UNL     1       8.241   4.187  15.887  0.00  0.00    +0.000 HD
ATOM     13  H   UNL     1       7.185   4.573  14.621  0.00  0.00    +0.000 HD
ENDBRANCH   8  11
BRANCH  10  14
ATOM     14  O   UNL     1       3.330   2.868  17.297  0.00  0.00    +0.000 OA
ATOM     15  C   UNL     1       3.606   1.676  18.031  0.00  0.00    +0.000 C 
ENDBRANCH  10  14
ENDBRANCH   1   4
BRANCH   1  16
ATOM     16  N   UNL     1       2.768   6.611  19.852  0.00  0.00    +0.000 NA
ATOM     17  H   UNL     1       3.675   6.795  20.290  0.00  0.00    +0.000 HD
BRANCH  16  18
ATOM     18  C   UNL     1       1.607   7.059  20.650  0.00  0.00    +0.000 C 
BRANCH  18  23
ATOM     19  N   UNL     1       0.464   9.192  19.933  0.00  0.00    +0.000 NA
ATOM     20  C   UNL     1      -0.577   9.616  20.887  0.00  0.00    +0.000 C 
ATOM     21  C   UNL     1       0.181  10.111  22.098  0.00  0.00    +0.000 C 
ATOM     22  C   UNL     1       1.310   9.104  22.213  0.00  0.00    +0.000 C 
ATOM     23  C   UNL     1       1.548   8.601  20.778  0.00  0.00    +0.000 C 
BRANCH  19  25
ATOM     24  C   UNL     1       1.960   9.908  18.012  0.00  0.00    +0.000 C 
ATOM     25  C   UNL     1       1.026  10.312  19.146  0.00  0.00    +0.000 C 
ENDBRANCH  19  25
ENDBRANCH  18  23
ENDBRANCH  16  18
ENDBRANCH   1  16
TORSDOF 7
ENDMDL
MODEL 7
REMARK VINA RESULT:      -6.1      2.452      5.913
REMARK  Name = 
REMARK  9 active torsions:
REMARK  status: ('A' for Active; 'I' for Inactive)
REMARK    1  A    between atoms: C_1  and  C_2
REMARK    2  A    between atoms: C_2  and  N_3
REMARK    3  A    between atoms: C_7  and  C_8
REMARK    4  A    between atoms: C_8  and  N_9
REMARK    5  A    between atoms: N_9  and  S_10
REMARK    6  A    between atoms: S_10  and  C_13
REMARK    7  A    between atoms: C_17  and  N_18
REMARK    8  A    between atoms: C_20  and  O_21
REMARK    9  A    between atoms: O_21  and  C_22
REMARK                            x       y       z     vdW  Elec       q    Type
REMARK                         _______ _______ _______ _____ _____    ______ ____
ROOT
ATOM      1  S   UNL     1       4.082   3.762  18.929  0.00  0.00    +0.000 S 
ATOM      2  O   UNL     1       4.786   2.886  19.838  0.00  0.00    +0.000 OA
ATOM      3  O   UNL     1       2.804   3.419  18.334  0.00  0.00    +0.000 OA
ENDROOT
BRANCH   1   4
ATOM      4  C   UNL     1       5.217   4.205  17.636  0.00  0.00    +0.000 A 
ATOM      5  C   UNL     1       4.858   3.977  16.304  0.00  0.00    +0.000 A 
ATOM      6  C   UNL     1       5.706   4.352  15.269  0.00  0.00    +0.000 A 
ATOM      7 CL   UNL     1       5.206   4.030  13.646  0.00  0.00    +0.000 Cl
ATOM      8  C   UNL     1       6.908   5.013  15.539  0.00  0.00    +0.000 A 
ATOM      9  C   UNL     1       7.283   5.191  16.879  0.00  0.00    +0.000 A 
ATOM     10  C   UNL     1       6.446   4.804  17.940  0.00  0.00    +0.000 A 
BRANCH   8  11
ATOM     11  N   UNL     1       7.839   5.295  14.523  0.00  0.00    +0.000 N 
ATOM     12  H   UNL     1       8.702   4.762  14.624  0.00  0.00    +0.000 HD
ATOM     13  H   UNL     1       7.463   5.255  13.581  0.00  0.00    +0.000 HD
ENDBRANCH   8  11
BRANCH  10  14
ATOM     14  O   UNL     1       6.767   4.972  19.260  0.00  0.00    +0.000 OA
ATOM     15  C   UNL     1       7.912   5.767  19.564  0.00  0.00    +0.000 C 
ENDBRANCH  10  14
ENDBRANCH   1   4
BRANCH   1  16
ATOM     16  N   UNL     1       3.845   5.197  19.804  0.00  0.00    +0.000 NA
ATOM     17  H   UNL     1       3.113   5.066  20.507  0.00  0.00    +0.000 HD
BRANCH  16  18
ATOM     18  C   UNL     1       3.728   6.453  19.033  0.00  0.00    +0.000 C 
BRANCH  18  23
ATOM     19  N   UNL     1       1.999   7.920  20.142  0.00  0.00    +0.000 NA
ATOM     20  C   UNL     1       1.927   9.258  19.531  0.00  0.00    +0.000 C 
ATOM     21  C   UNL     1       1.270   9.040  18.187  0.00  0.00    +0.000 C 
ATOM     22  C   UNL     1       1.908   7.746  17.717  0.00  0.00    +0.000 C 
ATOM     23  C   UNL     1       2.275   6.987  19.005  0.00  0.00    +0.000 C 
BRANCH  19  25
ATOM     24  C   UNL     1       0.029   8.607  21.589  0.00  0.00    +0.000 C 
ATOM     25  C   UNL     1       0.739   7.511  20.803  0.00  0.00    +0.000 C 
ENDBRANCH  19  25
ENDBRANCH  18  23
ENDBRANCH  16  18
ENDBRANCH   1  16
TORSDOF 7
ENDMDL
MODEL 8
REMARK VINA RESULT:      -6.1      2.623      6.275
REMARK  Name = 
REMARK  9 active torsions:
REMARK  status: ('A' for Active; 'I' for Inactive)
REMARK    1  A    between atoms: C_1  and  C_2
REMARK    2  A    between atoms: C_2  and  N_3
REMARK    3  A    between atoms: C_7  and  C_8
REMARK    4  A    between atoms: C_8  and  N_9
REMARK    5  A    between atoms: N_9  and  S_10
REMARK    6  A    between atoms: S_10  and  C_13
REMARK    7  A    between atoms: C_17  and  N_18
REMARK    8  A    between atoms: C_20  and  O_21
REMARK    9  A    between atoms: O_21  and  C_22
REMARK                            x       y       z     vdW  Elec       q    Type
REMARK                         _______ _______ _______ _____ _____    ______ ____
ROOT
ATOM      1  S   UNL     1       3.967   4.262  17.264  0.00  0.00    +0.000 S 
ATOM      2  O   UNL     1       3.272   3.084  16.798  0.00  0.00    +0.000 OA
ATOM      3  O   UNL     1       3.288   5.506  17.574  0.00  0.00    +0.000 OA
ENDROOT
BRANCH   1   4
ATOM      4  C   UNL     1       5.279   4.595  16.114  0.00  0.00    +0.000 A 
ATOM      5  C   UNL     1       5.259   3.979  14.858  0.00  0.00    +0.000 A 
ATOM      6  C   UNL     1       6.248   4.252  13.921  0.00  0.00    +0.000 A 
ATOM      7 CL   UNL     1       6.170   3.447  12.393  0.00  0.00    +0.000 Cl
ATOM      8  C   UNL     1       7.250   5.187  14.197  0.00  0.00    +0.000 A 
ATOM      9  C   UNL     1       7.291   5.761  15.477  0.00  0.00    +0.000 A 
ATOM     10  C   UNL     1       6.308   5.484  16.444  0.00  0.00    +0.000 A 
BRANCH   8  11
ATOM     11  N   UNL     1       8.328   5.393  13.319  0.00  0.00    +0.000 N 
ATOM     12  H   UNL     1       8.991   6.085  13.668  0.00  0.00    +0.000 HD
ATOM     13  H   UNL     1       8.783   4.544  12.998  0.00  0.00    +0.000 HD
ENDBRANCH   8  11
BRANCH  10  14
ATOM     14  O   UNL     1       6.303   6.032  17.698  0.00  0.00    +0.000 OA
ATOM     15  C   UNL     1       7.566   6.277  18.316  0.00  0.00    +0.000 C 
ENDBRANCH  10  14
ENDBRANCH   1   4
BRANCH   1  16
ATOM     16  N   UNL     1       4.755   3.768  18.684  0.00  0.00    +0.000 NA
ATOM     17  H   UNL     1       5.749   3.606  18.500  0.00  0.00    +0.000 HD
BRANCH  16  18
ATOM     18  C   UNL     1       4.107   2.712  19.490  0.00  0.00    +0.000 C 
BRANCH  18  23
ATOM     19  N   UNL     1       2.253   4.264  20.216  0.00  0.00    +0.000 NA
ATOM     20  C   UNL     1       0.972   3.558  20.396  0.00  0.00    +0.000 C 
ATOM     21  C   UNL     1       1.149   2.743  21.657  0.00  0.00    +0.000 C 
ATOM     22  C   UNL     1       2.573   2.237  21.524  0.00  0.00    +0.000 C 
ATOM     23  C   UNL     1       3.298   3.296  20.675  0.00  0.00    +0.000 C 
BRANCH  19  25
ATOM     24  C   UNL     1       1.559   6.689  20.498  0.00  0.00    +0.000 C 
ATOM     25  C   UNL     1       2.356   5.500  21.022  0.00  0.00    +0.000 C 
ENDBRANCH  19  25
ENDBRANCH  18  23
ENDBRANCH  16  18
ENDBRANCH   1  16
TORSDOF 7
ENDMDL
MODEL 9
REMARK VINA RESULT:      -6.1      2.489      6.001
REMARK  Name = 
REMARK  9 active torsions:
REMARK  status: ('A' for Active; 'I' for Inactive)
REMARK    1  A    between atoms: C_1  and  C_2
REMARK    2  A    between atoms: C_2  and  N_3
REMARK    3  A    between atoms: C_7  and  C_8
REMARK    4  A    between atoms: C_8  and  N_9
REMARK    5  A    between atoms: N_9  and  S_10
REMARK    6  A    between atoms: S_10  and  C_13
REMARK    7  A    between atoms: C_17  and  N_18
REMARK    8  A    between atoms: C_20  and  O_21
REMARK    9  A    between atoms: O_21  and  C_22
REMARK                            x       y       z     vdW  Elec       q    Type
REMARK                         _______ _______ _______ _____ _____    ______ ____
ROOT
ATOM      1  S   UNL     1       4.640   3.938  18.488  0.00  0.00    +0.000 S 
ATOM      2  O   UNL     1       5.478   3.167  19.378  0.00  0.00    +0.000 OA
ATOM      3  O   UNL     1       3.322   3.501  18.069  0.00  0.00    +0.000 OA
ENDROOT
BRANCH   1   4
ATOM      4  C   UNL     1       5.606   4.317  17.046  0.00  0.00    +0.000 A 
ATOM      5  C   UNL     1       5.131   3.937  15.787  0.00  0.00    +0.000 A 
ATOM      6  C   UNL     1       5.842   4.257  14.636  0.00  0.00    +0.000 A 
ATOM      7 CL   UNL     1       5.205   3.747  13.113  0.00  0.00    +0.000 Cl
ATOM      8  C   UNL     1       7.018   5.010  14.714  0.00  0.00    +0.000 A 
ATOM      9  C   UNL     1       7.513   5.342  15.985  0.00  0.00    +0.000 A 
ATOM     10  C   UNL     1       6.815   5.013  17.160  0.00  0.00    +0.000 A 
BRANCH   8  11
ATOM     11  N   UNL     1       7.820   5.244  13.584  0.00  0.00    +0.000 N 
ATOM     12  H   UNL     1       8.751   4.837  13.672  0.00  0.00    +0.000 HD
ATOM     13  H   UNL     1       7.379   5.020  12.697  0.00  0.00    +0.000 HD
ENDBRANCH   8  11
BRANCH  10  14
ATOM     14  O   UNL     1       7.256   5.329  18.417  0.00  0.00    +0.000 OA
ATOM     15  C   UNL     1       7.893   6.593  18.594  0.00  0.00    +0.000 C 
ENDBRANCH  10  14
ENDBRANCH   1   4
BRANCH   1  16
ATOM     16  N   UNL     1       4.433   5.431  19.271  0.00  0.00    +0.000 NA
ATOM     17  H   UNL     1       3.974   5.295  20.175  0.00  0.00    +0.000 HD
BRANCH  16  18
ATOM     18  C   UNL     1       3.886   6.548  18.473  0.00  0.00    +0.000 C 
BRANCH  18  23
ATOM     19  N   UNL     1       2.086   6.642  20.241  0.00  0.00    +0.000 NA
ATOM     20  C   UNL     1       1.873   8.008  20.749  0.00  0.00    +0.000 C 
ATOM     21  C   UNL     1       1.181   8.741  19.622  0.00  0.00    +0.000 C 
ATOM     22  C   UNL     1       1.907   8.219  18.397  0.00  0.00    +0.000 C 
ATOM     23  C   UNL     1       2.392   6.811  18.786  0.00  0.00    +0.000 C 
BRANCH  19  25
ATOM     24  C   UNL     1       1.191   4.288  20.556  0.00  0.00    +0.000 C 
ATOM     25  C   UNL     1       0.897   5.774  20.383  0.00  0.00    +0.000 C 
ENDBRANCH  19  25
ENDBRANCH  18  23
ENDBRANCH  16  18
ENDBRANCH   1  16
TORSDOF 7
ENDMDL
