MODEL 1
REMARK VINA RESULT:      -7.6      0.000      0.000
REMARK  Name = 
REMARK  11 active torsions:
REMARK  status: ('A' for Active; 'I' for Inactive)
REMARK    1  A    between atoms: C_1  and  C_2
REMARK    2  A    between atoms: C_2  and  C_3
REMARK    3  A    between atoms: C_2  and  C_4
REMARK    4  A    between atoms: C_2  and  C_5
REMARK    5  A    between atoms: N_7  and  C_8
REMARK    6  A    between atoms: C_11  and  C_12
REMARK    7  A    between atoms: C_12  and  C_14
REMARK    8  A    between atoms: C_14  and  S_15
REMARK    9  A    between atoms: S_15  and  C_16
REMARK   10  A    between atoms: C_19  and  C_20
REMARK   11  A    between atoms: N_23  and  C_24
REMARK                            x       y       z     vdW  Elec       q    Type
REMARK                         _______ _______ _______ _____ _____    ______ ____
ROOT
ATOM      1  C   UNL     1       2.392   5.027  19.871  0.00  0.00    +0.000 C 
ATOM      2  O   UNL     1       2.601   4.662  21.030  0.00  0.00    +0.000 OA
ENDROOT
BRANCH   1   6
ATOM      3  C   UNL     1       1.500   9.230  19.250  0.00  0.00    +0.000 A 
ATOM      4  C   UNL     1       1.183   8.569  20.437  0.00  0.00    +0.000 A 
ATOM      5  C   UNL     1       1.500   7.220  20.627  0.00  0.00    +0.000 A 
ATOM      6  C   UNL     1       2.152   6.488  19.628  0.00  0.00    +0.000 A 
ATOM      7  C   UNL     1       2.495   7.141  18.440  0.00  0.00    +0.000 A 
ATOM      8  C   UNL     1       2.162   8.499  18.251  0.00  0.00    +0.000 A 
BRANCH   3  11
ATOM      9  C   UNL     1       0.987  11.583  19.928  0.00  0.00    +0.000 C 
ATOM     10  O   UNL     1       1.354  11.474  21.097  0.00  0.00    +0.000 OA
ATOM     11  N   UNL     1       1.129  10.574  18.979  0.00  0.00    +0.000 N 
ATOM     12  H   UNL     1       1.002  10.822  18.008  0.00  0.00    +0.000 HD
BRANCH   9  14
ATOM     13  C   UNL     1       1.365  13.682  18.605  0.00  0.00    +0.000 C 
ATOM     14  C   UNL     1       0.331  12.895  19.439  0.00  0.00    +0.000 C 
ATOM     15  C   UNL     1      -0.081  13.767  20.635  0.00  0.00    +0.000 C 
ATOM     16  C   UNL     1      -0.887  12.609  18.551  0.00  0.00    +0.000 C 
ENDBRANCH   9  14
ENDBRANCH   3  11
ENDBRANCH   1   6
BRANCH   1  17
ATOM     17  C   UNL     1       2.510   4.092  18.679  0.00  0.00    +0.000 C 
BRANCH  17  18
ATOM     18  S   UNL     1       3.987   3.024  18.754  0.00  0.00    +0.000 S 
BRANCH  18  19
ATOM     19  C   UNL     1       5.280   4.173  18.828  0.00  0.00    +0.000 A 
ATOM     20  N   UNL     1       5.917   4.491  19.937  0.00  0.00    +0.000 NA
ATOM     21  N   UNL     1       6.871   5.433  19.626  0.00  0.00    +0.000 NA
ATOM     22  C   UNL     1       6.798   5.678  18.331  0.00  0.00    +0.000 A 
ATOM     23  N   UNL     1       5.819   4.877  17.773  0.00  0.00    +0.000 N 
BRANCH  22  24
ATOM     24  C   UNL     1       7.674   6.707  17.609  0.00  0.00    +0.000 C 
ATOM     25  C   UNL     1       7.169   8.127  17.473  0.00  0.00    +0.000 C 
ATOM     26  C   UNL     1       8.289   7.832  18.410  0.00  0.00    +0.000 C 
ENDBRANCH  22  24
BRANCH  23  27
ATOM     27  C   UNL     1       5.500   4.914  16.352  0.00  0.00    +0.000 C 
ATOM     28  C   UNL     1       6.485   5.066  15.215  0.00  0.00    +0.000 C 
ATOM     29  C   UNL     1       5.785   3.763  15.413  0.00  0.00    +0.000 C 
ENDBRANCH  23  27
ENDBRANCH  18  19
ENDBRANCH  17  18
ENDBRANCH   1  17
TORSDOF 8
ENDMDL
MODEL 2
REMARK VINA RESULT:      -7.3      0.713      1.341
REMARK  Name = 
REMARK  11 active torsions:
REMARK  status: ('A' for Active; 'I' for Inactive)
REMARK    1  A    between atoms: C_1  and  C_2
REMARK    2  A    between atoms: C_2  and  C_3
REMARK    3  A    between atoms: C_2  and  C_4
REMARK    4  A    between atoms: C_2  and  C_5
REMARK    5  A    between atoms: N_7  and  C_8
REMARK    6  A    between atoms: C_11  and  C_12
REMARK    7  A    between atoms: C_12  and  C_14
REMARK    8  A    between atoms: C_14  and  S_15
REMARK    9  A    between atoms: S_15  and  C_16
REMARK   10  A    between atoms: C_19  and  C_20
REMARK   11  A    between atoms: N_23  and  C_24
REMARK                            x       y       z     vdW  Elec       q    Type
REMARK                         _______ _______ _______ _____ _____    ______ ____
ROOT
ATOM      1  C   UNL     1       2.371   4.719  19.324  0.00  0.00    +0.000 C 
ATOM      2  O   UNL     1       2.650   4.165  20.389  0.00  0.00    +0.000 OA
ENDROOT
BRANCH   1   6
ATOM      3  C   UNL     1       1.600   8.990  19.308  0.00  0.00    +0.000 A 
ATOM      4  C   UNL     1       1.974   8.296  18.156  0.00  0.00    +0.000 A 
ATOM      5  C   UNL     1       2.194   6.916  18.177  0.00  0.00    +0.000 A 
ATOM      6  C   UNL     1       2.043   6.182  19.359  0.00  0.00    +0.000 A 
ATOM      7  C   UNL     1       1.649   6.859  20.518  0.00  0.00    +0.000 A 
ATOM      8  C   UNL     1       1.440   8.254  20.492  0.00  0.00    +0.000 A 
BRANCH   3  11
ATOM      9  C   UNL     1       0.292  11.077  19.753  0.00  0.00    +0.000 C 
ATOM     10  O   UNL     1      -0.665  10.526  20.296  0.00  0.00    +0.000 OA
ATOM     11  N   UNL     1       1.443  10.402  19.355  0.00  0.00    +0.000 N 
ATOM     12  H   UNL     1       2.254  10.956  19.120  0.00  0.00    +0.000 HD
BRANCH   9  14
ATOM     13  C   UNL     1      -0.542  12.853  18.190  0.00  0.00    +0.000 C 
ATOM     14  C   UNL     1       0.263  12.599  19.483  0.00  0.00    +0.000 C 
ATOM     15  C   UNL     1       1.687  13.132  19.271  0.00  0.00    +0.000 C 
ATOM     16  C   UNL     1      -0.418  13.353  20.631  0.00  0.00    +0.000 C 
ENDBRANCH   9  14
ENDBRANCH   3  11
ENDBRANCH   1   6
BRANCH   1  17
ATOM     17  C   UNL     1       2.486   4.021  17.978  0.00  0.00    +0.000 C 
BRANCH  17  18
ATOM     18  S   UNL     1       3.969   2.966  17.847  0.00  0.00    +0.000 S 
BRANCH  18  19
ATOM     19  C   UNL     1       5.255   4.083  18.155  0.00  0.00    +0.000 A 
ATOM     20  N   UNL     1       5.840   4.225  19.327  0.00  0.00    +0.000 NA
ATOM     21  N   UNL     1       6.806   5.198  19.207  0.00  0.00    +0.000 NA
ATOM     22  C   UNL     1       6.794   5.637  17.963  0.00  0.00    +0.000 A 
ATOM     23  N   UNL     1       5.843   4.936  17.245  0.00  0.00    +0.000 N 
BRANCH  22  24
ATOM     24  C   UNL     1       7.701   6.759  17.447  0.00  0.00    +0.000 C 
ATOM     25  C   UNL     1       7.201   8.186  17.503  0.00  0.00    +0.000 C 
ATOM     26  C   UNL     1       8.275   7.746  18.437  0.00  0.00    +0.000 C 
ENDBRANCH  22  24
BRANCH  23  27
ATOM     27  C   UNL     1       5.590   5.190  15.833  0.00  0.00    +0.000 C 
ATOM     28  C   UNL     1       6.610   5.155  14.718  0.00  0.00    +0.000 C 
ATOM     29  C   UNL     1       5.563   4.094  14.790  0.00  0.00    +0.000 C 
ENDBRANCH  23  27
ENDBRANCH  18  19
ENDBRANCH  17  18
ENDBRANCH   1  17
TORSDOF 8
ENDMDL
MODEL 3
REMARK VINA RESULT:      -7.2      0.426      1.002
REMARK  Name = 
REMARK  11 active torsions:
REMARK  status: ('A' for Active; 'I' for Inactive)
REMARK    1  A    between atoms: C_1  and  C_2
REMARK    2  A    between atoms: C_2  and  C_3
REMARK    3  A    between atoms: C_2  and  C_4
REMARK    4  A    between atoms: C_2  and  C_5
REMARK    5  A    between atoms: N_7  and  C_8
REMARK    6  A    between atoms: C_11  and  C_12
REMARK    7  A    between atoms: C_12  and  C_14
REMARK    8  A    between atoms: C_14  and  S_15
REMARK    9  A    between atoms: S_15  and  C_16
REMARK   10  A    between atoms: C_19  and  C_20
REMARK   11  A    between atoms: N_23  and  C_24
REMARK                            x       y       z     vdW  Elec       q    Type
REMARK                         _______ _______ _______ _____ _____    ______ ____
ROOT
ATOM      1  C   UNL     1       2.399   5.364  19.720  0.00  0.00    +0.000 C 
ATOM      2  O   UNL     1       2.706   4.966  20.845  0.00  0.00    +0.000 OA
ENDROOT
BRANCH   1   6
ATOM      3  C   UNL     1       1.369   9.549  19.204  0.00  0.00    +0.000 A 
ATOM      4  C   UNL     1       1.967   8.799  18.191  0.00  0.00    +0.000 A 
ATOM      5  C   UNL     1       2.269   7.445  18.369  0.00  0.00    +0.000 A 
ATOM      6  C   UNL     1       1.977   6.796  19.573  0.00  0.00    +0.000 A 
ATOM      7  C   UNL     1       1.359   7.528  20.592  0.00  0.00    +0.000 A 
ATOM      8  C   UNL     1       1.067   8.896  20.410  0.00  0.00    +0.000 A 
BRANCH   3  11
ATOM      9  C   UNL     1       1.078  11.842  20.163  0.00  0.00    +0.000 C 
ATOM     10  O   UNL     1       1.451  11.564  21.302  0.00  0.00    +0.000 OA
ATOM     11  N   UNL     1       1.116  10.943  19.101  0.00  0.00    +0.000 N 
ATOM     12  H   UNL     1       0.999  11.314  18.168  0.00  0.00    +0.000 HD
BRANCH   9  14
ATOM     13  C   UNL     1       1.395  13.871  18.721  0.00  0.00    +0.000 C 
ATOM     14  C   UNL     1       0.536  13.255  19.846  0.00  0.00    +0.000 C 
ATOM     15  C   UNL     1       0.647  14.161  21.081  0.00  0.00    +0.000 C 
ATOM     16  C   UNL     1      -0.919  13.195  19.364  0.00  0.00    +0.000 C 
ENDBRANCH   9  14
ENDBRANCH   3  11
ENDBRANCH   1   6
BRANCH   1  17
ATOM     17  C   UNL     1       2.569   4.514  18.471  0.00  0.00    +0.000 C 
BRANCH  17  18
ATOM     18  S   UNL     1       3.964   3.345  18.588  0.00  0.00    +0.000 S 
BRANCH  18  19
ATOM     19  C   UNL     1       5.329   4.400  18.736  0.00  0.00    +0.000 A 
ATOM     20  N   UNL     1       6.006   4.573  19.854  0.00  0.00    +0.000 NA
ATOM     21  N   UNL     1       7.012   5.479  19.607  0.00  0.00    +0.000 NA
ATOM     22  C   UNL     1       6.931   5.849  18.343  0.00  0.00    +0.000 A 
ATOM     23  N   UNL     1       5.893   5.165  17.737  0.00  0.00    +0.000 N 
BRANCH  22  24
ATOM     24  C   UNL     1       7.857   6.885  17.697  0.00  0.00    +0.000 C 
ATOM     25  C   UNL     1       7.347   8.295  17.498  0.00  0.00    +0.000 C 
ATOM     26  C   UNL     1       8.375   8.026  18.542  0.00  0.00    +0.000 C 
ENDBRANCH  22  24
BRANCH  23  27
ATOM     27  C   UNL     1       5.550   5.355  16.335  0.00  0.00    +0.000 C 
ATOM     28  C   UNL     1       6.461   5.127  15.150  0.00  0.00    +0.000 C 
ATOM     29  C   UNL     1       5.311   4.204  15.382  0.00  0.00    +0.000 C 
ENDBRANCH  23  27
ENDBRANCH  18  19
ENDBRANCH  17  18
ENDBRANCH   1  17
TORSDOF 8
ENDMDL
MODEL 4
REMARK VINA RESULT:      -7.2      3.803      9.695
REMARK  Name = 
REMARK  11 active torsions:
REMARK  status: ('A' for Active; 'I' for Inactive)
REMARK    1  A    between atoms: C_1  and  C_2
REMARK    2  A    between atoms: C_2  and  C_3
REMARK    3  A    between atoms: C_2  and  C_4
REMARK    4  A    between atoms: C_2  and  C_5
REMARK    5  A    between atoms: N_7  and  C_8
REMARK    6  A    between atoms: C_11  and  C_12
REMARK    7  A    between atoms: C_12  and  C_14
REMARK    8  A    between atoms: C_14  and  S_15
REMARK    9  A    between atoms: S_15  and  C_16
REMARK   10  A    between atoms: C_19  and  C_20
REMARK   11  A    between atoms: N_23  and  C_24
REMARK                            x       y       z     vdW  Elec       q    Type
REMARK                         _______ _______ _______ _____ _____    ______ ____
ROOT
ATOM      1  C   UNL     1      -0.058  10.597  20.589  0.00  0.00    +0.000 C 
ATOM      2  O   UNL     1      -0.822  10.335  21.520  0.00  0.00    +0.000 OA
ENDROOT
BRANCH   1   6
ATOM      3  C   UNL     1       2.383   7.330  19.101  0.00  0.00    +0.000 A 
ATOM      4  C   UNL     1       1.749   7.281  20.344  0.00  0.00    +0.000 A 
ATOM      5  C   UNL     1       0.948   8.334  20.795  0.00  0.00    +0.000 A 
ATOM      6  C   UNL     1       0.751   9.475  20.009  0.00  0.00    +0.000 A 
ATOM      7  C   UNL     1       1.362   9.531  18.752  0.00  0.00    +0.000 A 
ATOM      8  C   UNL     1       2.179   8.471  18.308  0.00  0.00    +0.000 A 
BRANCH   3  11
ATOM      9  C   UNL     1       2.891   5.116  18.052  0.00  0.00    +0.000 C 
ATOM     10  O   UNL     1       1.740   4.863  17.699  0.00  0.00    +0.000 OA
ATOM     11  N   UNL     1       3.269   6.323  18.634  0.00  0.00    +0.000 N 
ATOM     12  H   UNL     1       4.257   6.527  18.692  0.00  0.00    +0.000 HD
BRANCH   9  14
ATOM     13  C   UNL     1       5.082   4.283  18.948  0.00  0.00    +0.000 C 
ATOM     14  C   UNL     1       4.013   4.070  17.855  0.00  0.00    +0.000 C 
ATOM     15  C   UNL     1       4.686   4.259  16.487  0.00  0.00    +0.000 C 
ATOM     16  C   UNL     1       3.469   2.642  17.983  0.00  0.00    +0.000 C 
ENDBRANCH   9  14
ENDBRANCH   3  11
ENDBRANCH   1   6
BRANCH   1  17
ATOM     17  C   UNL     1      -0.014  11.961  19.919  0.00  0.00    +0.000 C 
BRANCH  17  18
ATOM     18  S   UNL     1      -0.903  12.003  18.327  0.00  0.00    +0.000 S 
BRANCH  18  19
ATOM     19  C   UNL     1      -2.560  12.091  18.821  0.00  0.00    +0.000 A 
ATOM     20  N   UNL     1      -2.962  12.647  19.946  0.00  0.00    +0.000 NA
ATOM     21  N   UNL     1      -4.332  12.531  20.014  0.00  0.00    +0.000 NA
ATOM     22  C   UNL     1      -4.744  11.901  18.930  0.00  0.00    +0.000 A 
ATOM     23  N   UNL     1      -3.654  11.626  18.124  0.00  0.00    +0.000 N 
BRANCH  22  24
ATOM     24  C   UNL     1      -6.209  11.542  18.659  0.00  0.00    +0.000 C 
ATOM     25  C   UNL     1      -6.698  10.156  19.019  0.00  0.00    +0.000 C 
ATOM     26  C   UNL     1      -7.135  11.325  19.833  0.00  0.00    +0.000 C 
ENDBRANCH  22  24
BRANCH  23  27
ATOM     27  C   UNL     1      -3.785  10.936  16.848  0.00  0.00    +0.000 C 
ATOM     28  C   UNL     1      -2.735  10.849  15.764  0.00  0.00    +0.000 C 
ATOM     29  C   UNL     1      -3.090   9.627  16.544  0.00  0.00    +0.000 C 
ENDBRANCH  23  27
ENDBRANCH  18  19
ENDBRANCH  17  18
ENDBRANCH   1  17
TORSDOF 8
ENDMDL
MODEL 5
REMARK VINA RESULT:      -7.2      0.844      1.143
REMARK  Name = 
REMARK  11 active torsions:
REMARK  status: ('A' for Active; 'I' for Inactive)
REMARK    1  A    between atoms: C_1  and  C_2
REMARK    2  A    between atoms: C_2  and  C_3
REMARK    3  A    between atoms: C_2  and  C_4
REMARK    4  A    between atoms: C_2  and  C_5
REMARK    5  A    between atoms: N_7  and  C_8
REMARK    6  A    between atoms: C_11  and  C_12
REMARK    7  A    between atoms: C_12  and  C_14
REMARK    8  A    between atoms: C_14  and  S_15
REMARK    9  A    between atoms: S_15  and  C_16
REMARK   10  A    between atoms: C_19  and  C_20
REMARK   11  A    between atoms: N_23  and  C_24
REMARK                            x       y       z     vdW  Elec       q    Type
REMARK                         _______ _______ _______ _____ _____    ______ ____
ROOT
ATOM      1  C   UNL     1       2.250   5.759  19.575  0.00  0.00    +0.000 C 
ATOM      2  O   UNL     1       2.535   5.337  20.697  0.00  0.00    +0.000 OA
ENDROOT
BRANCH   1   6
ATOM      3  C   UNL     1       1.059   9.923  19.293  0.00  0.00    +0.000 A 
ATOM      4  C   UNL     1       0.987   9.207  20.488  0.00  0.00    +0.000 A 
ATOM      5  C   UNL     1       1.398   7.873  20.564  0.00  0.00    +0.000 A 
ATOM      6  C   UNL     1       1.901   7.211  19.438  0.00  0.00    +0.000 A 
ATOM      7  C   UNL     1       1.999   7.920  18.237  0.00  0.00    +0.000 A 
ATOM      8  C   UNL     1       1.572   9.263  18.164  0.00  0.00    +0.000 A 
BRANCH   3  11
ATOM      9  C   UNL     1       1.363  12.404  19.175  0.00  0.00    +0.000 C 
ATOM     10  O   UNL     1       2.593  12.391  19.140  0.00  0.00    +0.000 OA
ATOM     11  N   UNL     1       0.581  11.253  19.146  0.00  0.00    +0.000 N 
ATOM     12  H   UNL     1      -0.407  11.361  18.961  0.00  0.00    +0.000 HD
BRANCH   9  14
ATOM     13  C   UNL     1      -0.631  13.668  18.324  0.00  0.00    +0.000 C 
ATOM     14  C   UNL     1       0.601  13.748  19.251  0.00  0.00    +0.000 C 
ATOM     15  C   UNL     1       1.493  14.897  18.760  0.00  0.00    +0.000 C 
ATOM     16  C   UNL     1       0.114  14.029  20.677  0.00  0.00    +0.000 C 
ENDBRANCH   9  14
ENDBRANCH   3  11
ENDBRANCH   1   6
BRANCH   1  17
ATOM     17  C   UNL     1       2.379   4.910  18.320  0.00  0.00    +0.000 C 
BRANCH  17  18
ATOM     18  S   UNL     1       3.649   3.609  18.466  0.00  0.00    +0.000 S 
BRANCH  18  19
ATOM     19  C   UNL     1       5.105   4.523  18.666  0.00  0.00    +0.000 A 
ATOM     20  N   UNL     1       5.777   4.597  19.797  0.00  0.00    +0.000 NA
ATOM     21  N   UNL     1       6.869   5.409  19.594  0.00  0.00    +0.000 NA
ATOM     22  C   UNL     1       6.844   5.824  18.341  0.00  0.00    +0.000 A 
ATOM     23  N   UNL     1       5.755   5.262  17.700  0.00  0.00    +0.000 N 
BRANCH  22  24
ATOM     24  C   UNL     1       7.875   6.786  17.741  0.00  0.00    +0.000 C 
ATOM     25  C   UNL     1       7.479   8.229  17.514  0.00  0.00    +0.000 C 
ATOM     26  C   UNL     1       8.431   7.891  18.609  0.00  0.00    +0.000 C 
ENDBRANCH  22  24
BRANCH  23  27
ATOM     27  C   UNL     1       5.455   5.527  16.300  0.00  0.00    +0.000 C 
ATOM     28  C   UNL     1       6.379   5.300  15.125  0.00  0.00    +0.000 C 
ATOM     29  C   UNL     1       5.178   4.430  15.295  0.00  0.00    +0.000 C 
ENDBRANCH  23  27
ENDBRANCH  18  19
ENDBRANCH  17  18
ENDBRANCH   1  17
TORSDOF 8
ENDMDL
MODEL 6
REMARK VINA RESULT:      -7.1      1.056      1.243
REMARK  Name = 
REMARK  11 active torsions:
REMARK  status: ('A' for Active; 'I' for Inactive)
REMARK    1  A    between atoms: C_1  and  C_2
REMARK    2  A    between atoms: C_2  and  C_3
REMARK    3  A    between atoms: C_2  and  C_4
REMARK    4  A    between atoms: C_2  and  C_5
REMARK    5  A    between atoms: N_7  and  C_8
REMARK    6  A    between atoms: C_11  and  C_12
REMARK    7  A    between atoms: C_12  and  C_14
REMARK    8  A    between atoms: C_14  and  S_15
REMARK    9  A    between atoms: S_15  and  C_16
REMARK   10  A    between atoms: C_19  and  C_20
REMARK   11  A    between atoms: N_23  and  C_24
REMARK                            x       y       z     vdW  Elec       q    Type
REMARK                         _______ _______ _______ _____ _____    ______ ____
ROOT
ATOM      1  C   UNL     1       2.157   4.655  19.203  0.00  0.00    +0.000 C 
ATOM      2  O   UNL     1       1.293   4.055  18.560  0.00  0.00    +0.000 OA
ENDROOT
BRANCH   1   6
ATOM      3  C   UNL     1       1.552   8.919  19.745  0.00  0.00    +0.000 A 
ATOM      4  C   UNL     1       1.342   8.000  20.774  0.00  0.00    +0.000 A 
ATOM      5  C   UNL     1       1.566   6.633  20.586  0.00  0.00    +0.000 A 
ATOM      6  C   UNL     1       2.013   6.140  19.355  0.00  0.00    +0.000 A 
ATOM      7  C   UNL     1       2.248   7.050  18.319  0.00  0.00    +0.000 A 
ATOM      8  C   UNL     1       2.009   8.427  18.512  0.00  0.00    +0.000 A 
BRANCH   3  11
ATOM      9  C   UNL     1       0.044  10.908  19.568  0.00  0.00    +0.000 C 
ATOM     10  O   UNL     1      -0.991  10.278  19.352  0.00  0.00    +0.000 OA
ATOM     11  N   UNL     1       1.264  10.305  19.862  0.00  0.00    +0.000 N 
ATOM     12  H   UNL     1       1.999  10.891  20.234  0.00  0.00    +0.000 HD
BRANCH   9  14
ATOM     13  C   UNL     1      -0.684  12.907  18.237  0.00  0.00    +0.000 C 
ATOM     14  C   UNL     1       0.036  12.453  19.526  0.00  0.00    +0.000 C 
ATOM     15  C   UNL     1       1.473  12.995  19.485  0.00  0.00    +0.000 C 
ATOM     16  C   UNL     1      -0.714  13.038  20.729  0.00  0.00    +0.000 C 
ENDBRANCH   9  14
ENDBRANCH   3  11
ENDBRANCH   1   6
BRANCH   1  17
ATOM     17  C   UNL     1       3.265   3.941  19.959  0.00  0.00    +0.000 C 
BRANCH  17  18
ATOM     18  S   UNL     1       4.527   3.216  18.860  0.00  0.00    +0.000 S 
BRANCH  18  19
ATOM     19  C   UNL     1       5.739   4.452  18.810  0.00  0.00    +0.000 A 
ATOM     20  N   UNL     1       6.549   4.728  19.812  0.00  0.00    +0.000 NA
ATOM     21  N   UNL     1       7.370   5.763  19.426  0.00  0.00    +0.000 NA
ATOM     22  C   UNL     1       7.044   6.106  18.194  0.00  0.00    +0.000 A 
ATOM     23  N   UNL     1       6.030   5.280  17.746  0.00  0.00    +0.000 N 
BRANCH  22  24
ATOM     24  C   UNL     1       7.707   7.256  17.427  0.00  0.00    +0.000 C 
ATOM     25  C   UNL     1       7.065   8.625  17.468  0.00  0.00    +0.000 C 
ATOM     26  C   UNL     1       8.335   8.387  18.208  0.00  0.00    +0.000 C 
ENDBRANCH  22  24
BRANCH  23  27
ATOM     27  C   UNL     1       5.452   5.408  16.415  0.00  0.00    +0.000 C 
ATOM     28  C   UNL     1       6.188   5.271  15.101  0.00  0.00    +0.000 C 
ATOM     29  C   UNL     1       5.205   4.223  15.507  0.00  0.00    +0.000 C 
ENDBRANCH  23  27
ENDBRANCH  18  19
ENDBRANCH  17  18
ENDBRANCH   1  17
TORSDOF 8
ENDMDL
MODEL 7
REMARK VINA RESULT:      -7.1      2.185      3.476
REMARK  Name = 
REMARK  11 active torsions:
REMARK  status: ('A' for Active; 'I' for Inactive)
REMARK    1  A    between atoms: C_1  and  C_2
REMARK    2  A    between atoms: C_2  and  C_3
REMARK    3  A    between atoms: C_2  and  C_4
REMARK    4  A    between atoms: C_2  and  C_5
REMARK    5  A    between atoms: N_7  and  C_8
REMARK    6  A    between atoms: C_11  and  C_12
REMARK    7  A    between atoms: C_12  and  C_14
REMARK    8  A    between atoms: C_14  and  S_15
REMARK    9  A    between atoms: S_15  and  C_16
REMARK   10  A    between atoms: C_19  and  C_20
REMARK   11  A    between atoms: N_23  and  C_24
REMARK                            x       y       z     vdW  Elec       q    Type
REMARK                         _______ _______ _______ _____ _____    ______ ____
ROOT
ATOM      1  C   UNL     1       3.167   6.810  18.838  0.00  0.00    +0.000 C 
ATOM      2  O   UNL     1       3.129   5.838  19.595  0.00  0.00    +0.000 OA
ENDROOT
BRANCH   1   6
ATOM      3  C   UNL     1       0.259   9.921  19.676  0.00  0.00    +0.000 A 
ATOM      4  C   UNL     1       0.689   9.021  20.651  0.00  0.00    +0.000 A 
ATOM      5  C   UNL     1       1.644   8.041  20.367  0.00  0.00    +0.000 A 
ATOM      6  C   UNL     1       2.206   7.933  19.090  0.00  0.00    +0.000 A 
ATOM      7  C   UNL     1       1.801   8.841  18.106  0.00  0.00    +0.000 A 
ATOM      8  C   UNL     1       0.827   9.820  18.396  0.00  0.00    +0.000 A 
BRANCH   3  11
ATOM      9  C   UNL     1      -0.647  12.033  20.666  0.00  0.00    +0.000 C 
ATOM     10  O   UNL     1       0.425  12.454  21.098  0.00  0.00    +0.000 OA
ATOM     11  N   UNL     1      -0.766  10.882  19.893  0.00  0.00    +0.000 N 
ATOM     12  H   UNL     1      -1.638  10.732  19.405  0.00  0.00    +0.000 HD
BRANCH   9  14
ATOM     13  C   UNL     1      -3.007  12.409  19.901  0.00  0.00    +0.000 C 
ATOM     14  C   UNL     1      -1.959  12.794  20.967  0.00  0.00    +0.000 C 
ATOM     15  C   UNL     1      -1.730  14.311  20.885  0.00  0.00    +0.000 C 
ATOM     16  C   UNL     1      -2.514  12.418  22.347  0.00  0.00    +0.000 C 
ENDBRANCH   9  14
ENDBRANCH   3  11
ENDBRANCH   1   6
BRANCH   1  17
ATOM     17  C   UNL     1       4.231   6.977  17.764  0.00  0.00    +0.000 C 
BRANCH  17  18
ATOM     18  S   UNL     1       5.777   6.088  18.148  0.00  0.00    +0.000 S 
BRANCH  18  19
ATOM     19  C   UNL     1       6.274   5.508  16.594  0.00  0.00    +0.000 A 
ATOM     20  N   UNL     1       7.214   6.075  15.865  0.00  0.00    +0.000 NA
ATOM     21  N   UNL     1       7.341   5.357  14.698  0.00  0.00    +0.000 NA
ATOM     22  C   UNL     1       6.471   4.365  14.731  0.00  0.00    +0.000 A 
ATOM     23  N   UNL     1       5.788   4.400  15.933  0.00  0.00    +0.000 N 
BRANCH  22  24
ATOM     24  C   UNL     1       6.277   3.364  13.587  0.00  0.00    +0.000 C 
ATOM     25  C   UNL     1       5.229   3.653  12.535  0.00  0.00    +0.000 C 
ATOM     26  C   UNL     1       6.672   3.773  12.186  0.00  0.00    +0.000 C 
ENDBRANCH  22  24
BRANCH  23  27
ATOM     27  C   UNL     1       4.758   3.429  16.272  0.00  0.00    +0.000 C 
ATOM     28  C   UNL     1       4.211   3.145  17.653  0.00  0.00    +0.000 C 
ATOM     29  C   UNL     1       3.345   3.822  16.643  0.00  0.00    +0.000 C 
ENDBRANCH  23  27
ENDBRANCH  18  19
ENDBRANCH  17  18
ENDBRANCH   1  17
TORSDOF 8
ENDMDL
MODEL 8
REMARK VINA RESULT:      -7.0      3.960     10.051
REMARK  Name = 
REMARK  11 active torsions:
REMARK  status: ('A' for Active; 'I' for Inactive)
REMARK    1  A    between atoms: C_1  and  C_2
REMARK    2  A    between atoms: C_2  and  C_3
REMARK    3  A    between atoms: C_2  and  C_4
REMARK    4  A    between atoms: C_2  and  C_5
REMARK    5  A    between atoms: N_7  and  C_8
REMARK    6  A    between atoms: C_11  and  C_12
REMARK    7  A    between atoms: C_12  and  C_14
REMARK    8  A    between atoms: C_14  and  S_15
REMARK    9  A    between atoms: S_15  and  C_16
REMARK   10  A    between atoms: C_19  and  C_20
REMARK   11  A    between atoms: N_23  and  C_24
REMARK                            x       y       z     vdW  Elec       q    Type
REMARK                         _______ _______ _______ _____ _____    ______ ____
ROOT
ATOM      1  C   UNL     1       0.525  10.631  20.598  0.00  0.00    +0.000 C 
ATOM      2  O   UNL     1       1.221  11.317  21.351  0.00  0.00    +0.000 OA
ENDROOT
BRANCH   1   6
ATOM      3  C   UNL     1       2.448   7.081  19.005  0.00  0.00    +0.000 A 
ATOM      4  C   UNL     1       2.027   7.168  20.332  0.00  0.00    +0.000 A 
ATOM      5  C   UNL     1       1.388   8.312  20.820  0.00  0.00    +0.000 A 
ATOM      6  C   UNL     1       1.145   9.410  19.987  0.00  0.00    +0.000 A 
ATOM      7  C   UNL     1       1.543   9.331  18.649  0.00  0.00    +0.000 A 
ATOM      8  C   UNL     1       2.197   8.179  18.166  0.00  0.00    +0.000 A 
BRANCH   3  11
ATOM      9  C   UNL     1       2.621   4.756  18.097  0.00  0.00    +0.000 C 
ATOM     10  O   UNL     1       1.411   4.562  17.983  0.00  0.00    +0.000 OA
ATOM     11  N   UNL     1       3.171   5.975  18.483  0.00  0.00    +0.000 N 
ATOM     12  H   UNL     1       4.162   6.108  18.342  0.00  0.00    +0.000 HD
BRANCH   9  14
ATOM     13  C   UNL     1       2.828   2.319  17.536  0.00  0.00    +0.000 C 
ATOM     14  C   UNL     1       3.622   3.616  17.801  0.00  0.00    +0.000 C 
ATOM     15  C   UNL     1       4.535   3.377  19.013  0.00  0.00    +0.000 C 
ATOM     16  C   UNL     1       4.466   3.927  16.558  0.00  0.00    +0.000 C 
ENDBRANCH   9  14
ENDBRANCH   3  11
ENDBRANCH   1   6
BRANCH   1  17
ATOM     17  C   UNL     1      -0.958  10.891  20.385  0.00  0.00    +0.000 C 
BRANCH  17  18
ATOM     18  S   UNL     1      -1.294  12.506  19.607  0.00  0.00    +0.000 S 
BRANCH  18  19
ATOM     19  C   UNL     1      -3.024  12.577  19.616  0.00  0.00    +0.000 A 
ATOM     20  N   UNL     1      -3.728  13.223  20.524  0.00  0.00    +0.000 NA
ATOM     21  N   UNL     1      -5.061  13.061  20.226  0.00  0.00    +0.000 NA
ATOM     22  C   UNL     1      -5.151  12.312  19.143  0.00  0.00    +0.000 A 
ATOM     23  N   UNL     1      -3.879  12.003  18.699  0.00  0.00    +0.000 N 
BRANCH  22  24
ATOM     24  C   UNL     1      -6.480  11.871  18.520  0.00  0.00    +0.000 C 
ATOM     25  C   UNL     1      -7.708  12.728  18.738  0.00  0.00    +0.000 C 
ATOM     26  C   UNL     1      -7.066  12.693  17.395  0.00  0.00    +0.000 C 
ENDBRANCH  22  24
BRANCH  23  27
ATOM     27  C   UNL     1      -3.644  11.188  17.515  0.00  0.00    +0.000 C 
ATOM     28  C   UNL     1      -2.301  10.728  16.994  0.00  0.00    +0.000 C 
ATOM     29  C   UNL     1      -3.241   9.731  17.585  0.00  0.00    +0.000 C 
ENDBRANCH  23  27
ENDBRANCH  18  19
ENDBRANCH  17  18
ENDBRANCH   1  17
TORSDOF 8
ENDMDL
MODEL 9
REMARK VINA RESULT:      -7.0      3.563      9.582
REMARK  Name = 
REMARK  11 active torsions:
REMARK  status: ('A' for Active; 'I' for Inactive)
REMARK    1  A    between atoms: C_1  and  C_2
REMARK    2  A    between atoms: C_2  and  C_3
REMARK    3  A    between atoms: C_2  and  C_4
REMARK    4  A    between atoms: C_2  and  C_5
REMARK    5  A    between atoms: N_7  and  C_8
REMARK    6  A    between atoms: C_11  and  C_12
REMARK    7  A    between atoms: C_12  and  C_14
REMARK    8  A    between atoms: C_14  and  S_15
REMARK    9  A    between atoms: S_15  and  C_16
REMARK   10  A    between atoms: C_19  and  C_20
REMARK   11  A    between atoms: N_23  and  C_24
REMARK                            x       y       z     vdW  Elec       q    Type
REMARK                         _______ _______ _______ _____ _____    ______ ____
ROOT
ATOM      1  C   UNL     1      -0.010  10.949  19.103  0.00  0.00    +0.000 C 
ATOM      2  O   UNL     1      -0.815  11.041  18.174  0.00  0.00    +0.000 OA
ENDROOT
BRANCH   1   6
ATOM      3  C   UNL     1       2.439   7.366  19.064  0.00  0.00    +0.000 A 
ATOM      4  C   UNL     1       2.306   8.190  17.946  0.00  0.00    +0.000 A 
ATOM      5  C   UNL     1       1.531   9.353  17.986  0.00  0.00    +0.000 A 
ATOM      6  C   UNL     1       0.864   9.732  19.156  0.00  0.00    +0.000 A 
ATOM      7  C   UNL     1       1.003   8.928  20.292  0.00  0.00    +0.000 A 
ATOM      8  C   UNL     1       1.777   7.750  20.242  0.00  0.00    +0.000 A 
BRANCH   3  11
ATOM      9  C   UNL     1       2.697   4.945  18.486  0.00  0.00    +0.000 C 
ATOM     10  O   UNL     1       1.706   4.870  17.761  0.00  0.00    +0.000 OA
ATOM     11  N   UNL     1       3.148   6.135  19.050  0.00  0.00    +0.000 N 
ATOM     12  H   UNL     1       4.078   6.144  19.447  0.00  0.00    +0.000 HD
BRANCH   9  14
ATOM     13  C   UNL     1       3.008   3.086  20.143  0.00  0.00    +0.000 C 
ATOM     14  C   UNL     1       3.521   3.678  18.812  0.00  0.00    +0.000 C 
ATOM     15  C   UNL     1       5.005   4.033  18.988  0.00  0.00    +0.000 C 
ATOM     16  C   UNL     1       3.359   2.615  17.718  0.00  0.00    +0.000 C 
ENDBRANCH   9  14
ENDBRANCH   3  11
ENDBRANCH   1   6
BRANCH   1  17
ATOM     17  C   UNL     1       0.229  12.072  20.100  0.00  0.00    +0.000 C 
BRANCH  17  18
ATOM     18  S   UNL     1       1.668  13.109  19.674  0.00  0.00    +0.000 S 
BRANCH  18  19
ATOM     19  C   UNL     1       0.930  14.599  19.191  0.00  0.00    +0.000 A 
ATOM     20  N   UNL     1      -0.369  14.819  19.220  0.00  0.00    +0.000 NA
ATOM     21  N   UNL     1      -0.596  16.097  18.764  0.00  0.00    +0.000 NA
ATOM     22  C   UNL     1       0.569  16.637  18.459  0.00  0.00    +0.000 A 
ATOM     23  N   UNL     1       1.576  15.732  18.742  0.00  0.00    +0.000 N 
BRANCH  22  24
ATOM     24  C   UNL     1       0.729  18.044  17.874  0.00  0.00    +0.000 C 
ATOM     25  C   UNL     1       0.841  18.201  16.373  0.00  0.00    +0.000 C 
ATOM     26  C   UNL     1      -0.406  18.631  17.066  0.00  0.00    +0.000 C 
ENDBRANCH  22  24
BRANCH  23  27
ATOM     27  C   UNL     1       2.982  16.035  18.515  0.00  0.00    +0.000 C 
ATOM     28  C   UNL     1       4.094  15.032  18.307  0.00  0.00    +0.000 C 
ATOM     29  C   UNL     1       3.649  15.885  17.166  0.00  0.00    +0.000 C 
ENDBRANCH  23  27
ENDBRANCH  18  19
ENDBRANCH  17  18
ENDBRANCH   1  17
TORSDOF 8
ENDMDL
