MODEL 1
REMARK VINA RESULT:      -7.0      0.000      0.000
REMARK  Name = 
REMARK  6 active torsions:
REMARK  status: ('A' for Active; 'I' for Inactive)
REMARK    1  A    between atoms: C_1  and  O_2
REMARK    2  A    between atoms: O_2  and  C_3
REMARK    3  A    between atoms: C_6  and  C_7
REMARK    4  A    between atoms: C_10  and  C_11
REMARK    5  A    between atoms: C_14  and  O_15
REMARK    6  A    between atoms: O_15  and  C_16
REMARK                            x       y       z     vdW  Elec       q    Type
REMARK                         _______ _______ _______ _____ _____    ______ ____
ROOT
ATOM      1  C   UNL     1       2.902   6.079  19.033  0.00  0.00    +0.000 A 
ATOM      2  C   UNL     1       2.390   5.295  20.044  0.00  0.00    +0.000 A 
ATOM      3  N   UNL     1       1.613   6.048  20.890  0.00  0.00    +0.000 NA
ATOM      4  C   UNL     1       1.676   7.263  20.378  0.00  0.00    +0.000 A 
ATOM      5  O   UNL     1       2.440   7.352  19.243  0.00  0.00    +0.000 OA
ENDROOT
BRANCH   1   9
ATOM      6  C   UNL     1       5.489   5.431  15.687  0.00  0.00    +0.000 A 
ATOM      7  C   UNL     1       5.234   6.720  16.145  0.00  0.00    +0.000 A 
ATOM      8  C   UNL     1       4.377   6.934  17.231  0.00  0.00    +0.000 A 
ATOM      9  C   UNL     1       3.748   5.857  17.869  0.00  0.00    +0.000 A 
ATOM     10  C   UNL     1       3.971   4.567  17.363  0.00  0.00    +0.000 A 
ATOM     11  C   UNL     1       4.835   4.353  16.281  0.00  0.00    +0.000 A 
BRANCH   6  13
ATOM     12  C   UNL     1       6.365   4.094  13.952  0.00  0.00    +0.000 C 
ATOM     13  O   UNL     1       6.363   5.341  14.639  0.00  0.00    +0.000 OA
ENDBRANCH   6  13
ENDBRANCH   1   9
BRANCH   4  14
ATOM     14  C   UNL     1       1.089   8.505  20.870  0.00  0.00    +0.000 A 
ATOM     15  C   UNL     1       0.868   9.572  19.986  0.00  0.00    +0.000 A 
ATOM     16  C   UNL     1       0.258  10.751  20.427  0.00  0.00    +0.000 A 
ATOM     17  C   UNL     1      -0.153  10.880  21.756  0.00  0.00    +0.000 A 
ATOM     18  C   UNL     1       0.096   9.842  22.652  0.00  0.00    +0.000 A 
ATOM     19  C   UNL     1       0.715   8.667  22.212  0.00  0.00    +0.000 A 
BRANCH  17  20
ATOM     20  O   UNL     1      -0.752  12.066  22.075  0.00  0.00    +0.000 OA
ATOM     21  C   UNL     1      -1.860  11.969  22.963  0.00  0.00    +0.000 C 
ENDBRANCH  17  20
ENDBRANCH   4  14
TORSDOF 4
ENDMDL
MODEL 2
REMARK VINA RESULT:      -6.9      0.579      1.199
REMARK  Name = 
REMARK  6 active torsions:
REMARK  status: ('A' for Active; 'I' for Inactive)
REMARK    1  A    between atoms: C_1  and  O_2
REMARK    2  A    between atoms: O_2  and  C_3
REMARK    3  A    between atoms: C_6  and  C_7
REMARK    4  A    between atoms: C_10  and  C_11
REMARK    5  A    between atoms: C_14  and  O_15
REMARK    6  A    between atoms: O_15  and  C_16
REMARK                            x       y       z     vdW  Elec       q    Type
REMARK                         _______ _______ _______ _____ _____    ______ ____
ROOT
ATOM      1  C   UNL     1       3.163   5.751  18.770  0.00  0.00    +0.000 A 
ATOM      2  C   UNL     1       2.605   5.008  19.787  0.00  0.00    +0.000 A 
ATOM      3  N   UNL     1       1.824   5.803  20.591  0.00  0.00    +0.000 NA
ATOM      4  C   UNL     1       1.932   7.001  20.049  0.00  0.00    +0.000 A 
ATOM      5  O   UNL     1       2.729   7.041  18.934  0.00  0.00    +0.000 OA
ENDROOT
BRANCH   1   9
ATOM      6  C   UNL     1       5.822   4.983  15.507  0.00  0.00    +0.000 A 
ATOM      7  C   UNL     1       5.320   6.263  15.725  0.00  0.00    +0.000 A 
ATOM      8  C   UNL     1       4.441   6.512  16.784  0.00  0.00    +0.000 A 
ATOM      9  C   UNL     1       4.035   5.477  17.637  0.00  0.00    +0.000 A 
ATOM     10  C   UNL     1       4.505   4.181  17.373  0.00  0.00    +0.000 A 
ATOM     11  C   UNL     1       5.392   3.933  16.317  0.00  0.00    +0.000 A 
BRANCH   6  13
ATOM     12  C   UNL     1       6.316   3.931  13.453  0.00  0.00    +0.000 C 
ATOM     13  O   UNL     1       6.695   4.863  14.461  0.00  0.00    +0.000 OA
ENDBRANCH   6  13
ENDBRANCH   1   9
BRANCH   4  14
ATOM     14  C   UNL     1       1.365   8.271  20.492  0.00  0.00    +0.000 A 
ATOM     15  C   UNL     1       1.065   8.466  21.849  0.00  0.00    +0.000 A 
ATOM     16  C   UNL     1       0.571   9.694  22.302  0.00  0.00    +0.000 A 
ATOM     17  C   UNL     1       0.381  10.752  21.410  0.00  0.00    +0.000 A 
ATOM     18  C   UNL     1       0.638  10.557  20.054  0.00  0.00    +0.000 A 
ATOM     19  C   UNL     1       1.124   9.326  19.601  0.00  0.00    +0.000 A 
BRANCH  17  20
ATOM     20  O   UNL     1      -0.091  11.910  21.961  0.00  0.00    +0.000 OA
ATOM     21  C   UNL     1      -1.211  11.759  22.828  0.00  0.00    +0.000 C 
ENDBRANCH  17  20
ENDBRANCH   4  14
TORSDOF 4
ENDMDL
MODEL 3
REMARK VINA RESULT:      -6.9      2.048      8.502
REMARK  Name = 
REMARK  6 active torsions:
REMARK  status: ('A' for Active; 'I' for Inactive)
REMARK    1  A    between atoms: C_1  and  O_2
REMARK    2  A    between atoms: O_2  and  C_3
REMARK    3  A    between atoms: C_6  and  C_7
REMARK    4  A    between atoms: C_10  and  C_11
REMARK    5  A    between atoms: C_14  and  O_15
REMARK    6  A    between atoms: O_15  and  C_16
REMARK                            x       y       z     vdW  Elec       q    Type
REMARK                         _______ _______ _______ _____ _____    ______ ____
ROOT
ATOM      1  C   UNL     1       1.213   9.529  19.361  0.00  0.00    +0.000 A 
ATOM      2  C   UNL     1       1.698  10.035  18.175  0.00  0.00    +0.000 A 
ATOM      3  N   UNL     1       2.359   9.058  17.470  0.00  0.00    +0.000 NA
ATOM      4  C   UNL     1       2.263   7.993  18.243  0.00  0.00    +0.000 A 
ATOM      5  O   UNL     1       1.573   8.208  19.408  0.00  0.00    +0.000 OA
ENDROOT
BRANCH   1   9
ATOM      6  C   UNL     1      -1.150  11.006  22.609  0.00  0.00    +0.000 A 
ATOM      7  C   UNL     1      -1.180  11.636  21.368  0.00  0.00    +0.000 A 
ATOM      8  C   UNL     1      -0.397  11.161  20.309  0.00  0.00    +0.000 A 
ATOM      9  C   UNL     1       0.443  10.053  20.480  0.00  0.00    +0.000 A 
ATOM     10  C   UNL     1       0.505   9.461  21.751  0.00  0.00    +0.000 A 
ATOM     11  C   UNL     1      -0.285   9.931  22.809  0.00  0.00    +0.000 A 
BRANCH   6  13
ATOM     12  C   UNL     1      -2.948  12.459  23.076  0.00  0.00    +0.000 C 
ATOM     13  O   UNL     1      -1.976  11.538  23.559  0.00  0.00    +0.000 OA
ENDBRANCH   6  13
ENDBRANCH   1   9
BRANCH   4  14
ATOM     14  C   UNL     1       2.817   6.657  18.048  0.00  0.00    +0.000 A 
ATOM     15  C   UNL     1       2.043   5.528  18.354  0.00  0.00    +0.000 A 
ATOM     16  C   UNL     1       2.536   4.239  18.124  0.00  0.00    +0.000 A 
ATOM     17  C   UNL     1       3.806   4.057  17.572  0.00  0.00    +0.000 A 
ATOM     18  C   UNL     1       4.600   5.170  17.299  0.00  0.00    +0.000 A 
ATOM     19  C   UNL     1       4.108   6.458  17.538  0.00  0.00    +0.000 A 
BRANCH  17  20
ATOM     20  O   UNL     1       4.181   2.758  17.375  0.00  0.00    +0.000 OA
ATOM     21  C   UNL     1       3.446   1.792  18.119  0.00  0.00    +0.000 C 
ENDBRANCH  17  20
ENDBRANCH   4  14
TORSDOF 4
ENDMDL
MODEL 4
REMARK VINA RESULT:      -6.9      2.006      8.504
REMARK  Name = 
REMARK  6 active torsions:
REMARK  status: ('A' for Active; 'I' for Inactive)
REMARK    1  A    between atoms: C_1  and  O_2
REMARK    2  A    between atoms: O_2  and  C_3
REMARK    3  A    between atoms: C_6  and  C_7
REMARK    4  A    between atoms: C_10  and  C_11
REMARK    5  A    between atoms: C_14  and  O_15
REMARK    6  A    between atoms: O_15  and  C_16
REMARK                            x       y       z     vdW  Elec       q    Type
REMARK                         _______ _______ _______ _____ _____    ______ ____
ROOT
ATOM      1  C   UNL     1       0.916   9.470  19.387  0.00  0.00    +0.000 A 
ATOM      2  C   UNL     1       0.958   9.697  18.029  0.00  0.00    +0.000 A 
ATOM      3  N   UNL     1       1.837   8.832  17.423  0.00  0.00    +0.000 NA
ATOM      4  C   UNL     1       2.307   8.110  18.423  0.00  0.00    +0.000 A 
ATOM      5  O   UNL     1       1.785   8.442  19.647  0.00  0.00    +0.000 OA
ENDROOT
BRANCH   1   9
ATOM      6  C   UNL     1      -1.326  11.070  22.661  0.00  0.00    +0.000 A 
ATOM      7  C   UNL     1      -1.293  11.730  21.436  0.00  0.00    +0.000 A 
ATOM      8  C   UNL     1      -0.549  11.214  20.369  0.00  0.00    +0.000 A 
ATOM      9  C   UNL     1       0.189  10.033  20.516  0.00  0.00    +0.000 A 
ATOM     10  C   UNL     1       0.190   9.406  21.772  0.00  0.00    +0.000 A 
ATOM     11  C   UNL     1      -0.561   9.919  22.837  0.00  0.00    +0.000 A 
BRANCH   6  13
ATOM     12  C   UNL     1      -3.191  12.436  23.134  0.00  0.00    +0.000 C 
ATOM     13  O   UNL     1      -2.108  11.650  23.621  0.00  0.00    +0.000 OA
ENDBRANCH   6  13
ENDBRANCH   1   9
BRANCH   4  14
ATOM     14  C   UNL     1       3.318   7.057  18.407  0.00  0.00    +0.000 A 
ATOM     15  C   UNL     1       4.312   7.058  17.417  0.00  0.00    +0.000 A 
ATOM     16  C   UNL     1       5.321   6.089  17.417  0.00  0.00    +0.000 A 
ATOM     17  C   UNL     1       5.361   5.111  18.413  0.00  0.00    +0.000 A 
ATOM     18  C   UNL     1       4.357   5.076  19.379  0.00  0.00    +0.000 A 
ATOM     19  C   UNL     1       3.344   6.041  19.372  0.00  0.00    +0.000 A 
BRANCH  17  20
ATOM     20  O   UNL     1       6.398   4.224  18.326  0.00  0.00    +0.000 OA
ATOM     21  C   UNL     1       7.407   4.559  17.378  0.00  0.00    +0.000 C 
ENDBRANCH  17  20
ENDBRANCH   4  14
TORSDOF 4
ENDMDL
MODEL 5
REMARK VINA RESULT:      -6.9      0.551      8.278
REMARK  Name = 
REMARK  6 active torsions:
REMARK  status: ('A' for Active; 'I' for Inactive)
REMARK    1  A    between atoms: C_1  and  O_2
REMARK    2  A    between atoms: O_2  and  C_3
REMARK    3  A    between atoms: C_6  and  C_7
REMARK    4  A    between atoms: C_10  and  C_11
REMARK    5  A    between atoms: C_14  and  O_15
REMARK    6  A    between atoms: O_15  and  C_16
REMARK                            x       y       z     vdW  Elec       q    Type
REMARK                         _______ _______ _______ _____ _____    ______ ____
ROOT
ATOM      1  C   UNL     1       1.877   7.229  20.211  0.00  0.00    +0.000 A 
ATOM      2  C   UNL     1       1.925   5.937  20.685  0.00  0.00    +0.000 A 
ATOM      3  N   UNL     1       2.721   5.157  19.881  0.00  0.00    +0.000 NA
ATOM      4  C   UNL     1       3.130   5.990  18.942  0.00  0.00    +0.000 A 
ATOM      5  O   UNL     1       2.658   7.269  19.084  0.00  0.00    +0.000 OA
ENDROOT
BRANCH   1   9
ATOM      6  C   UNL     1      -0.107  10.831  21.390  0.00  0.00    +0.000 A 
ATOM      7  C   UNL     1       0.362  10.675  20.089  0.00  0.00    +0.000 A 
ATOM      8  C   UNL     1       1.022   9.502  19.706  0.00  0.00    +0.000 A 
ATOM      9  C   UNL     1       1.239   8.469  20.627  0.00  0.00    +0.000 A 
ATOM     10  C   UNL     1       0.809   8.662  21.949  0.00  0.00    +0.000 A 
ATOM     11  C   UNL     1       0.141   9.833  22.330  0.00  0.00    +0.000 A 
BRANCH   6  13
ATOM     12  C   UNL     1      -1.242  12.162  22.974  0.00  0.00    +0.000 C 
ATOM     13  O   UNL     1      -0.762  12.005  21.643  0.00  0.00    +0.000 OA
ENDBRANCH   6  13
ENDBRANCH   1   9
BRANCH   4  14
ATOM     14  C   UNL     1       3.964   5.727  17.774  0.00  0.00    +0.000 A 
ATOM     15  C   UNL     1       4.394   6.793  16.969  0.00  0.00    +0.000 A 
ATOM     16  C   UNL     1       5.238   6.567  15.876  0.00  0.00    +0.000 A 
ATOM     17  C   UNL     1       5.677   5.276  15.577  0.00  0.00    +0.000 A 
ATOM     18  C   UNL     1       5.226   4.205  16.346  0.00  0.00    +0.000 A 
ATOM     19  C   UNL     1       4.375   4.431  17.433  0.00  0.00    +0.000 A 
BRANCH  17  20
ATOM     20  O   UNL     1       6.511   5.173  14.498  0.00  0.00    +0.000 OA
ATOM     21  C   UNL     1       6.343   3.998  13.711  0.00  0.00    +0.000 C 
ENDBRANCH  17  20
ENDBRANCH   4  14
TORSDOF 4
ENDMDL
MODEL 6
REMARK VINA RESULT:      -6.8      1.309      8.269
REMARK  Name = 
REMARK  6 active torsions:
REMARK  status: ('A' for Active; 'I' for Inactive)
REMARK    1  A    between atoms: C_1  and  O_2
REMARK    2  A    between atoms: O_2  and  C_3
REMARK    3  A    between atoms: C_6  and  C_7
REMARK    4  A    between atoms: C_10  and  C_11
REMARK    5  A    between atoms: C_14  and  O_15
REMARK    6  A    between atoms: O_15  and  C_16
REMARK                            x       y       z     vdW  Elec       q    Type
REMARK                         _______ _______ _______ _____ _____    ______ ____
ROOT
ATOM      1  C   UNL     1       2.408   6.770  19.631  0.00  0.00    +0.000 A 
ATOM      2  C   UNL     1       2.616   5.547  20.229  0.00  0.00    +0.000 A 
ATOM      3  N   UNL     1       3.424   4.760  19.446  0.00  0.00    +0.000 NA
ATOM      4  C   UNL     1       3.681   5.518  18.397  0.00  0.00    +0.000 A 
ATOM      5  O   UNL     1       3.098   6.758  18.447  0.00  0.00    +0.000 OA
ENDROOT
BRANCH   1   9
ATOM      6  C   UNL     1       0.176  10.297  20.576  0.00  0.00    +0.000 A 
ATOM      7  C   UNL     1       0.759  10.143  19.322  0.00  0.00    +0.000 A 
ATOM      8  C   UNL     1       1.501   8.996  19.017  0.00  0.00    +0.000 A 
ATOM      9  C   UNL     1       1.683   7.987  19.971  0.00  0.00    +0.000 A 
ATOM     10  C   UNL     1       1.135   8.179  21.248  0.00  0.00    +0.000 A 
ATOM     11  C   UNL     1       0.386   9.324  21.551  0.00  0.00    +0.000 A 
BRANCH   6  13
ATOM     12  C   UNL     1      -1.481  11.741  19.717  0.00  0.00    +0.000 C 
ATOM     13  O   UNL     1      -0.549  11.443  20.752  0.00  0.00    +0.000 OA
ENDBRANCH   6  13
ENDBRANCH   1   9
BRANCH   4  14
ATOM     14  C   UNL     1       4.451   5.206  17.197  0.00  0.00    +0.000 A 
ATOM     15  C   UNL     1       4.853   6.239  16.336  0.00  0.00    +0.000 A 
ATOM     16  C   UNL     1       5.637   5.966  15.210  0.00  0.00    +0.000 A 
ATOM     17  C   UNL     1       6.043   4.659  14.932  0.00  0.00    +0.000 A 
ATOM     18  C   UNL     1       5.618   3.620  15.757  0.00  0.00    +0.000 A 
ATOM     19  C   UNL     1       4.826   3.893  16.878  0.00  0.00    +0.000 A 
BRANCH  17  20
ATOM     20  O   UNL     1       6.818   4.509  13.816  0.00  0.00    +0.000 OA
ATOM     21  C   UNL     1       6.283   3.649  12.815  0.00  0.00    +0.000 C 
ENDBRANCH  17  20
ENDBRANCH   4  14
TORSDOF 4
ENDMDL
MODEL 7
REMARK VINA RESULT:      -6.7      1.255      1.490
REMARK  Name = 
REMARK  6 active torsions:
REMARK  status: ('A' for Active; 'I' for Inactive)
REMARK    1  A    between atoms: C_1  and  O_2
REMARK    2  A    between atoms: O_2  and  C_3
REMARK    3  A    between atoms: C_6  and  C_7
REMARK    4  A    between atoms: C_10  and  C_11
REMARK    5  A    between atoms: C_14  and  O_15
REMARK    6  A    between atoms: O_15  and  C_16
REMARK                            x       y       z     vdW  Elec       q    Type
REMARK                         _______ _______ _______ _____ _____    ______ ____
ROOT
ATOM      1  C   UNL     1       3.701   5.490  18.267  0.00  0.00    +0.000 A 
ATOM      2  C   UNL     1       3.377   4.832  19.432  0.00  0.00    +0.000 A 
ATOM      3  N   UNL     1       2.580   5.621  20.225  0.00  0.00    +0.000 NA
ATOM      4  C   UNL     1       2.445   6.733  19.528  0.00  0.00    +0.000 A 
ATOM      5  O   UNL     1       3.098   6.720  18.322  0.00  0.00    +0.000 OA
ENDROOT
BRANCH   1   9
ATOM      6  C   UNL     1       6.073   4.597  14.819  0.00  0.00    +0.000 A 
ATOM      7  C   UNL     1       5.688   5.906  15.093  0.00  0.00    +0.000 A 
ATOM      8  C   UNL     1       4.901   6.197  16.213  0.00  0.00    +0.000 A 
ATOM      9  C   UNL     1       4.473   5.176  17.073  0.00  0.00    +0.000 A 
ATOM     10  C   UNL     1       4.824   3.855  16.755  0.00  0.00    +0.000 A 
ATOM     11  C   UNL     1       5.618   3.565  15.638  0.00  0.00    +0.000 A 
BRANCH   6  13
ATOM     12  C   UNL     1       6.324   3.604  12.694  0.00  0.00    +0.000 C 
ATOM     13  O   UNL     1       6.865   4.435  13.716  0.00  0.00    +0.000 OA
ENDBRANCH   6  13
ENDBRANCH   1   9
BRANCH   4  14
ATOM     14  C   UNL     1       1.745   7.965  19.878  0.00  0.00    +0.000 A 
ATOM     15  C   UNL     1       1.561   8.964  18.910  0.00  0.00    +0.000 A 
ATOM     16  C   UNL     1       0.846  10.128  19.211  0.00  0.00    +0.000 A 
ATOM     17  C   UNL     1       0.292  10.309  20.481  0.00  0.00    +0.000 A 
ATOM     18  C   UNL     1       0.502   9.342  21.462  0.00  0.00    +0.000 A 
ATOM     19  C   UNL     1       1.224   8.182  21.162  0.00  0.00    +0.000 A 
BRANCH  17  20
ATOM     20  O   UNL     1      -0.398  11.474  20.661  0.00  0.00    +0.000 OA
ATOM     21  C   UNL     1      -1.486  11.681  19.766  0.00  0.00    +0.000 C 
ENDBRANCH  17  20
ENDBRANCH   4  14
TORSDOF 4
ENDMDL
MODEL 8
REMARK VINA RESULT:      -6.7      1.143      1.609
REMARK  Name = 
REMARK  6 active torsions:
REMARK  status: ('A' for Active; 'I' for Inactive)
REMARK    1  A    between atoms: C_1  and  O_2
REMARK    2  A    between atoms: O_2  and  C_3
REMARK    3  A    between atoms: C_6  and  C_7
REMARK    4  A    between atoms: C_10  and  C_11
REMARK    5  A    between atoms: C_14  and  O_15
REMARK    6  A    between atoms: O_15  and  C_16
REMARK                            x       y       z     vdW  Elec       q    Type
REMARK                         _______ _______ _______ _____ _____    ______ ____
ROOT
ATOM      1  C   UNL     1       3.304   5.800  19.434  0.00  0.00    +0.000 A 
ATOM      2  C   UNL     1       2.547   5.113  20.357  0.00  0.00    +0.000 A 
ATOM      3  N   UNL     1       1.593   5.936  20.905  0.00  0.00    +0.000 NA
ATOM      4  C   UNL     1       1.798   7.096  20.308  0.00  0.00    +0.000 A 
ATOM      5  O   UNL     1       2.821   7.082  19.396  0.00  0.00    +0.000 OA
ENDROOT
BRANCH   1   9
ATOM      6  C   UNL     1       6.571   4.968  16.798  0.00  0.00    +0.000 A 
ATOM      7  C   UNL     1       5.286   5.156  16.296  0.00  0.00    +0.000 A 
ATOM      8  C   UNL     1       4.215   5.415  17.159  0.00  0.00    +0.000 A 
ATOM      9  C   UNL     1       4.411   5.475  18.545  0.00  0.00    +0.000 A 
ATOM     10  C   UNL     1       5.700   5.230  19.041  0.00  0.00    +0.000 A 
ATOM     11  C   UNL     1       6.773   4.978  18.177  0.00  0.00    +0.000 A 
BRANCH   6  13
ATOM     12  C   UNL     1       7.111   4.819  14.507  0.00  0.00    +0.000 C 
ATOM     13  O   UNL     1       7.543   4.750  15.861  0.00  0.00    +0.000 OA
ENDBRANCH   6  13
ENDBRANCH   1   9
BRANCH   4  14
ATOM     14  C   UNL     1       1.123   8.373  20.515  0.00  0.00    +0.000 A 
ATOM     15  C   UNL     1       0.461   8.626  21.726  0.00  0.00    +0.000 A 
ATOM     16  C   UNL     1      -0.145   9.864  21.964  0.00  0.00    +0.000 A 
ATOM     17  C   UNL     1      -0.090  10.874  21.002  0.00  0.00    +0.000 A 
ATOM     18  C   UNL     1       0.530  10.622  19.780  0.00  0.00    +0.000 A 
ATOM     19  C   UNL     1       1.129   9.380  19.540  0.00  0.00    +0.000 A 
BRANCH  17  20
ATOM     20  O   UNL     1      -0.702  12.048  21.345  0.00  0.00    +0.000 OA
ATOM     21  C   UNL     1      -0.984  12.204  22.732  0.00  0.00    +0.000 C 
ENDBRANCH  17  20
ENDBRANCH   4  14
TORSDOF 4
ENDMDL
MODEL 9
REMARK VINA RESULT:      -6.7      0.682      1.533
REMARK  Name = 
REMARK  6 active torsions:
REMARK  status: ('A' for Active; 'I' for Inactive)
REMARK    1  A    between atoms: C_1  and  O_2
REMARK    2  A    between atoms: O_2  and  C_3
REMARK    3  A    between atoms: C_6  and  C_7
REMARK    4  A    between atoms: C_10  and  C_11
REMARK    5  A    between atoms: C_14  and  O_15
REMARK    6  A    between atoms: O_15  and  C_16
REMARK                            x       y       z     vdW  Elec       q    Type
REMARK                         _______ _______ _______ _____ _____    ______ ____
ROOT
ATOM      1  C   UNL     1       3.155   6.171  19.235  0.00  0.00    +0.000 A 
ATOM      2  C   UNL     1       2.428   5.318  20.036  0.00  0.00    +0.000 A 
ATOM      3  N   UNL     1       1.519   6.022  20.789  0.00  0.00    +0.000 NA
ATOM      4  C   UNL     1       1.720   7.277  20.432  0.00  0.00    +0.000 A 
ATOM      5  O   UNL     1       2.699   7.439  19.485  0.00  0.00    +0.000 OA
ENDROOT
BRANCH   1   9
ATOM      6  C   UNL     1       6.192   5.643  16.267  0.00  0.00    +0.000 A 
ATOM      7  C   UNL     1       6.172   4.847  17.409  0.00  0.00    +0.000 A 
ATOM      8  C   UNL     1       5.187   5.029  18.386  0.00  0.00    +0.000 A 
ATOM      9  C   UNL     1       4.211   6.023  18.243  0.00  0.00    +0.000 A 
ATOM     10  C   UNL     1       4.274   6.853  17.114  0.00  0.00    +0.000 A 
ATOM     11  C   UNL     1       5.256   6.667  16.132  0.00  0.00    +0.000 A 
BRANCH   6  13
ATOM     12  C   UNL     1       6.800   4.512  14.288  0.00  0.00    +0.000 C 
ATOM     13  O   UNL     1       7.182   5.358  15.367  0.00  0.00    +0.000 OA
ENDBRANCH   6  13
ENDBRANCH   1   9
BRANCH   4  14
ATOM     14  C   UNL     1       1.084   8.493  20.929  0.00  0.00    +0.000 A 
ATOM     15  C   UNL     1       0.666   8.565  22.266  0.00  0.00    +0.000 A 
ATOM     16  C   UNL     1       0.103   9.740  22.776  0.00  0.00    +0.000 A 
ATOM     17  C   UNL     1      -0.040  10.866  21.963  0.00  0.00    +0.000 A 
ATOM     18  C   UNL     1       0.336  10.794  20.623  0.00  0.00    +0.000 A 
ATOM     19  C   UNL     1       0.890   9.615  20.112  0.00  0.00    +0.000 A 
BRANCH  17  20
ATOM     20  O   UNL     1      -0.587  11.963  22.567  0.00  0.00    +0.000 OA
ATOM     21  C   UNL     1      -1.923  11.799  23.033  0.00  0.00    +0.000 C 
ENDBRANCH  17  20
ENDBRANCH   4  14
TORSDOF 4
ENDMDL
