MODEL 1
REMARK VINA RESULT:      -7.4      0.000      0.000
REMARK  Name = 
REMARK  3 active torsions:
REMARK  status: ('A' for Active; 'I' for Inactive)
REMARK    1  A    between atoms: C_1  and  C_2
REMARK    2  A    between atoms: N_6  and  C_7
REMARK    3  A    between atoms: C_7  and  C_8
REMARK                            x       y       z     vdW  Elec       q    Type
REMARK                         _______ _______ _______ _____ _____    ______ ____
ROOT
ATOM      1  C   UNL     1       3.778   5.966  17.752  0.00  0.00    +0.000 A 
ATOM      2  C   UNL     1       3.152   6.322  18.927  0.00  0.00    +0.000 A 
ATOM      3  C   UNL     1       2.434   5.188  19.367  0.00  0.00    +0.000 A 
ATOM      4  C   UNL     1       1.680   4.873  20.506  0.00  0.00    +0.000 A 
ATOM      5  C   UNL     1       0.840   3.757  20.444  0.00  0.00    +0.000 A 
ATOM      6  C   UNL     1       0.898   2.873  19.364  0.00  0.00    +0.000 A 
ATOM      7  C   UNL     1       1.827   3.050  18.330  0.00  0.00    +0.000 A 
ATOM      8  C   UNL     1       2.542   4.247  18.348  0.00  0.00    +0.000 A 
ATOM      9  O   UNL     1       3.417   4.695  17.394  0.00  0.00    +0.000 OA
ENDROOT
BRANCH   1  10
ATOM     10  C   UNL     1       4.782   6.672  16.921  0.00  0.00    +0.000 C 
BRANCH  10  16
ATOM     11  C   UNL     1       7.401   5.798  18.276  0.00  0.00    +0.000 C 
ATOM     12  C   UNL     1       6.975   5.429  16.900  0.00  0.00    +0.000 A 
ATOM     13  N   UNL     1       7.702   4.722  16.053  0.00  0.00    +0.000 NA
ATOM     14  C   UNL     1       6.955   4.641  14.911  0.00  0.00    +0.000 A 
ATOM     15  C   UNL     1       5.751   5.288  15.064  0.00  0.00    +0.000 A 
ATOM     16  N   UNL     1       5.778   5.775  16.341  0.00  0.00    +0.000 N 
ENDBRANCH  10  16
ENDBRANCH   1  10
TORSDOF 2
ENDMDL
MODEL 2
REMARK VINA RESULT:      -7.3      0.819      1.483
REMARK  Name = 
REMARK  3 active torsions:
REMARK  status: ('A' for Active; 'I' for Inactive)
REMARK    1  A    between atoms: C_1  and  C_2
REMARK    2  A    between atoms: N_6  and  C_7
REMARK    3  A    between atoms: C_7  and  C_8
REMARK                            x       y       z     vdW  Elec       q    Type
REMARK                         _______ _______ _______ _____ _____    ______ ____
ROOT
ATOM      1  C   UNL     1       3.827   5.470  17.856  0.00  0.00    +0.000 A 
ATOM      2  C   UNL     1       2.986   4.460  17.442  0.00  0.00    +0.000 A 
ATOM      3  C   UNL     1       2.200   4.099  18.558  0.00  0.00    +0.000 A 
ATOM      4  C   UNL     1       1.128   3.223  18.773  0.00  0.00    +0.000 A 
ATOM      5  C   UNL     1       0.817   2.884  20.094  0.00  0.00    +0.000 A 
ATOM      6  C   UNL     1       1.417   3.548  21.167  0.00  0.00    +0.000 A 
ATOM      7  C   UNL     1       2.318   4.601  20.956  0.00  0.00    +0.000 A 
ATOM      8  C   UNL     1       2.717   4.811  19.637  0.00  0.00    +0.000 A 
ATOM      9  O   UNL     1       3.663   5.697  19.196  0.00  0.00    +0.000 OA
ENDROOT
BRANCH   1  10
ATOM     10  C   UNL     1       4.756   6.347  17.104  0.00  0.00    +0.000 C 
BRANCH  10  16
ATOM     11  C   UNL     1       7.475   5.390  18.175  0.00  0.00    +0.000 C 
ATOM     12  C   UNL     1       6.991   5.228  16.779  0.00  0.00    +0.000 A 
ATOM     13  N   UNL     1       7.699   4.702  15.794  0.00  0.00    +0.000 NA
ATOM     14  C   UNL     1       6.896   4.770  14.690  0.00  0.00    +0.000 A 
ATOM     15  C   UNL     1       5.677   5.327  15.003  0.00  0.00    +0.000 A 
ATOM     16  N   UNL     1       5.753   5.603  16.340  0.00  0.00    +0.000 N 
ENDBRANCH  10  16
ENDBRANCH   1  10
TORSDOF 2
ENDMDL
MODEL 3
REMARK VINA RESULT:      -7.3      2.711      6.039
REMARK  Name = 
REMARK  3 active torsions:
REMARK  status: ('A' for Active; 'I' for Inactive)
REMARK    1  A    between atoms: C_1  and  C_2
REMARK    2  A    between atoms: N_6  and  C_7
REMARK    3  A    between atoms: C_7  and  C_8
REMARK                            x       y       z     vdW  Elec       q    Type
REMARK                         _______ _______ _______ _____ _____    ______ ____
ROOT
ATOM      1  C   UNL     1       4.803   3.927  18.446  0.00  0.00    +0.000 A 
ATOM      2  C   UNL     1       4.669   4.974  17.560  0.00  0.00    +0.000 A 
ATOM      3  C   UNL     1       5.858   5.731  17.638  0.00  0.00    +0.000 A 
ATOM      4  C   UNL     1       6.375   6.839  16.952  0.00  0.00    +0.000 A 
ATOM      5  C   UNL     1       7.451   7.520  17.529  0.00  0.00    +0.000 A 
ATOM      6  C   UNL     1       8.117   7.000  18.641  0.00  0.00    +0.000 A 
ATOM      7  C   UNL     1       7.758   5.761  19.190  0.00  0.00    +0.000 A 
ATOM      8  C   UNL     1       6.592   5.184  18.686  0.00  0.00    +0.000 A 
ATOM      9  O   UNL     1       5.981   4.044  19.134  0.00  0.00    +0.000 OA
ENDROOT
BRANCH   1  10
ATOM     10  C   UNL     1       3.964   2.730  18.689  0.00  0.00    +0.000 C 
BRANCH  10  16
ATOM     11  C   UNL     1       1.229   3.956  17.996  0.00  0.00    +0.000 C 
ATOM     12  C   UNL     1       1.686   3.576  19.359  0.00  0.00    +0.000 A 
ATOM     13  N   UNL     1       0.992   3.775  20.467  0.00  0.00    +0.000 NA
ATOM     14  C   UNL     1       1.782   3.309  21.480  0.00  0.00    +0.000 A 
ATOM     15  C   UNL     1       2.964   2.803  20.990  0.00  0.00    +0.000 A 
ATOM     16  N   UNL     1       2.880   2.973  19.636  0.00  0.00    +0.000 N 
ENDBRANCH  10  16
ENDBRANCH   1  10
TORSDOF 2
ENDMDL
MODEL 4
REMARK VINA RESULT:      -7.2      0.577      1.555
REMARK  Name = 
REMARK  3 active torsions:
REMARK  status: ('A' for Active; 'I' for Inactive)
REMARK    1  A    between atoms: C_1  and  C_2
REMARK    2  A    between atoms: N_6  and  C_7
REMARK    3  A    between atoms: C_7  and  C_8
REMARK                            x       y       z     vdW  Elec       q    Type
REMARK                         _______ _______ _______ _____ _____    ______ ____
ROOT
ATOM      1  C   UNL     1       3.674   5.660  17.760  0.00  0.00    +0.000 A 
ATOM      2  C   UNL     1       3.027   6.022  18.922  0.00  0.00    +0.000 A 
ATOM      3  C   UNL     1       2.270   4.904  19.334  0.00  0.00    +0.000 A 
ATOM      4  C   UNL     1       1.480   4.599  20.450  0.00  0.00    +0.000 A 
ATOM      5  C   UNL     1       0.613   3.505  20.357  0.00  0.00    +0.000 A 
ATOM      6  C   UNL     1       0.676   2.628  19.272  0.00  0.00    +0.000 A 
ATOM      7  C   UNL     1       1.636   2.789  18.264  0.00  0.00    +0.000 A 
ATOM      8  C   UNL     1       2.381   3.968  18.310  0.00  0.00    +0.000 A 
ATOM      9  O   UNL     1       3.291   4.401  17.383  0.00  0.00    +0.000 OA
ENDROOT
BRANCH   1  10
ATOM     10  C   UNL     1       4.717   6.346  16.961  0.00  0.00    +0.000 C 
BRANCH  10  16
ATOM     11  C   UNL     1       6.207   4.932  14.672  0.00  0.00    +0.000 C 
ATOM     12  C   UNL     1       6.675   5.024  16.080  0.00  0.00    +0.000 A 
ATOM     13  N   UNL     1       7.771   4.454  16.547  0.00  0.00    +0.000 NA
ATOM     14  C   UNL     1       7.807   4.766  17.877  0.00  0.00    +0.000 A 
ATOM     15  C   UNL     1       6.733   5.551  18.227  0.00  0.00    +0.000 A 
ATOM     16  N   UNL     1       6.028   5.713  17.067  0.00  0.00    +0.000 N 
ENDBRANCH  10  16
ENDBRANCH   1  10
TORSDOF 2
ENDMDL
MODEL 5
REMARK VINA RESULT:      -7.1      1.530      1.738
REMARK  Name = 
REMARK  3 active torsions:
REMARK  status: ('A' for Active; 'I' for Inactive)
REMARK    1  A    between atoms: C_1  and  C_2
REMARK    2  A    between atoms: N_6  and  C_7
REMARK    3  A    between atoms: C_7  and  C_8
REMARK                            x       y       z     vdW  Elec       q    Type
REMARK                         _______ _______ _______ _____ _____    ______ ____
ROOT
ATOM      1  C   UNL     1       5.028   4.971  19.412  0.00  0.00    +0.000 A 
ATOM      2  C   UNL     1       3.882   5.705  19.631  0.00  0.00    +0.000 A 
ATOM      3  C   UNL     1       2.860   4.783  19.944  0.00  0.00    +0.000 A 
ATOM      4  C   UNL     1       1.520   4.886  20.343  0.00  0.00    +0.000 A 
ATOM      5  C   UNL     1       0.720   3.743  20.245  0.00  0.00    +0.000 A 
ATOM      6  C   UNL     1       1.280   2.497  19.954  0.00  0.00    +0.000 A 
ATOM      7  C   UNL     1       2.664   2.342  19.792  0.00  0.00    +0.000 A 
ATOM      8  C   UNL     1       3.410   3.519  19.748  0.00  0.00    +0.000 A 
ATOM      9  O   UNL     1       4.750   3.632  19.490  0.00  0.00    +0.000 OA
ENDROOT
BRANCH   1  10
ATOM     10  C   UNL     1       6.436   5.385  19.205  0.00  0.00    +0.000 C 
BRANCH  10  16
ATOM     11  C   UNL     1       7.636   7.719  17.601  0.00  0.00    +0.000 C 
ATOM     12  C   UNL     1       7.322   6.370  17.060  0.00  0.00    +0.000 A 
ATOM     13  N   UNL     1       7.464   6.017  15.795  0.00  0.00    +0.000 NA
ATOM     14  C   UNL     1       7.042   4.718  15.730  0.00  0.00    +0.000 A 
ATOM     15  C   UNL     1       6.655   4.264  16.969  0.00  0.00    +0.000 A 
ATOM     16  N   UNL     1       6.850   5.328  17.806  0.00  0.00    +0.000 N 
ENDBRANCH  10  16
ENDBRANCH   1  10
TORSDOF 2
ENDMDL
MODEL 6
REMARK VINA RESULT:      -7.0      2.762      5.905
REMARK  Name = 
REMARK  3 active torsions:
REMARK  status: ('A' for Active; 'I' for Inactive)
REMARK    1  A    between atoms: C_1  and  C_2
REMARK    2  A    between atoms: N_6  and  C_7
REMARK    3  A    between atoms: C_7  and  C_8
REMARK                            x       y       z     vdW  Elec       q    Type
REMARK                         _______ _______ _______ _____ _____    ______ ____
ROOT
ATOM      1  C   UNL     1       4.948   4.009  19.074  0.00  0.00    +0.000 A 
ATOM      2  C   UNL     1       4.520   4.991  18.207  0.00  0.00    +0.000 A 
ATOM      3  C   UNL     1       5.634   5.817  17.943  0.00  0.00    +0.000 A 
ATOM      4  C   UNL     1       5.881   6.909  17.099  0.00  0.00    +0.000 A 
ATOM      5  C   UNL     1       7.019   7.682  17.349  0.00  0.00    +0.000 A 
ATOM      6  C   UNL     1       7.981   7.269  18.272  0.00  0.00    +0.000 A 
ATOM      7  C   UNL     1       7.860   6.046  18.948  0.00  0.00    +0.000 A 
ATOM      8  C   UNL     1       6.648   5.376  18.789  0.00  0.00    +0.000 A 
ATOM      9  O   UNL     1       6.252   4.232  19.428  0.00  0.00    +0.000 OA
ENDROOT
BRANCH   1  10
ATOM     10  C   UNL     1       4.283   2.783  19.577  0.00  0.00    +0.000 C 
BRANCH  10  16
ATOM     11  C   UNL     1       2.202   3.629  21.677  0.00  0.00    +0.000 C 
ATOM     12  C   UNL     1       1.896   3.104  20.320  0.00  0.00    +0.000 A 
ATOM     13  N   UNL     1       0.679   2.873  19.861  0.00  0.00    +0.000 NA
ATOM     14  C   UNL     1       0.853   2.376  18.600  0.00  0.00    +0.000 A 
ATOM     15  C   UNL     1       2.188   2.318  18.274  0.00  0.00    +0.000 A 
ATOM     16  N   UNL     1       2.837   2.795  19.379  0.00  0.00    +0.000 N 
ENDBRANCH  10  16
ENDBRANCH   1  10
TORSDOF 2
ENDMDL
MODEL 7
REMARK VINA RESULT:      -7.0      1.302      1.436
REMARK  Name = 
REMARK  3 active torsions:
REMARK  status: ('A' for Active; 'I' for Inactive)
REMARK    1  A    between atoms: C_1  and  C_2
REMARK    2  A    between atoms: N_6  and  C_7
REMARK    3  A    between atoms: C_7  and  C_8
REMARK                            x       y       z     vdW  Elec       q    Type
REMARK                         _______ _______ _______ _____ _____    ______ ____
ROOT
ATOM      1  C   UNL     1       3.866   5.472  18.212  0.00  0.00    +0.000 A 
ATOM      2  C   UNL     1       4.492   4.659  19.133  0.00  0.00    +0.000 A 
ATOM      3  C   UNL     1       3.481   3.897  19.758  0.00  0.00    +0.000 A 
ATOM      4  C   UNL     1       3.462   2.855  20.695  0.00  0.00    +0.000 A 
ATOM      5  C   UNL     1       2.248   2.569  21.328  0.00  0.00    +0.000 A 
ATOM      6  C   UNL     1       1.057   3.159  20.899  0.00  0.00    +0.000 A 
ATOM      7  C   UNL     1       1.032   4.024  19.796  0.00  0.00    +0.000 A 
ATOM      8  C   UNL     1       2.273   4.402  19.286  0.00  0.00    +0.000 A 
ATOM      9  O   UNL     1       2.509   5.315  18.293  0.00  0.00    +0.000 OA
ENDROOT
BRANCH   1  10
ATOM     10  C   UNL     1       4.409   6.365  17.160  0.00  0.00    +0.000 C 
BRANCH  10  16
ATOM     11  C   UNL     1       7.381   7.057  17.547  0.00  0.00    +0.000 C 
ATOM     12  C   UNL     1       6.838   6.113  16.534  0.00  0.00    +0.000 A 
ATOM     13  N   UNL     1       7.564   5.491  15.622  0.00  0.00    +0.000 NA
ATOM     14  C   UNL     1       6.675   4.753  14.890  0.00  0.00    +0.000 A 
ATOM     15  C   UNL     1       5.395   4.909  15.369  0.00  0.00    +0.000 A 
ATOM     16  N   UNL     1       5.520   5.771  16.423  0.00  0.00    +0.000 N 
ENDBRANCH  10  16
ENDBRANCH   1  10
TORSDOF 2
ENDMDL
MODEL 8
REMARK VINA RESULT:      -7.0      0.996      2.209
REMARK  Name = 
REMARK  3 active torsions:
REMARK  status: ('A' for Active; 'I' for Inactive)
REMARK    1  A    between atoms: C_1  and  C_2
REMARK    2  A    between atoms: N_6  and  C_7
REMARK    3  A    between atoms: C_7  and  C_8
REMARK                            x       y       z     vdW  Elec       q    Type
REMARK                         _______ _______ _______ _____ _____    ______ ____
ROOT
ATOM      1  C   UNL     1       3.701   4.960  17.565  0.00  0.00    +0.000 A 
ATOM      2  C   UNL     1       2.966   3.834  17.262  0.00  0.00    +0.000 A 
ATOM      3  C   UNL     1       2.067   3.633  18.332  0.00  0.00    +0.000 A 
ATOM      4  C   UNL     1       1.019   2.739  18.591  0.00  0.00    +0.000 A 
ATOM      5  C   UNL     1       0.564   2.631  19.909  0.00  0.00    +0.000 A 
ATOM      6  C   UNL     1       0.996   3.523  20.894  0.00  0.00    +0.000 A 
ATOM      7  C   UNL     1       1.864   4.579  20.586  0.00  0.00    +0.000 A 
ATOM      8  C   UNL     1       2.412   4.568  19.304  0.00  0.00    +0.000 A 
ATOM      9  O   UNL     1       3.363   5.420  18.810  0.00  0.00    +0.000 OA
ENDROOT
BRANCH   1  10
ATOM     10  C   UNL     1       4.672   5.745  16.766  0.00  0.00    +0.000 C 
BRANCH  10  16
ATOM     11  C   UNL     1       6.453   4.217  14.779  0.00  0.00    +0.000 C 
ATOM     12  C   UNL     1       6.842   4.614  16.158  0.00  0.00    +0.000 A 
ATOM     13  N   UNL     1       7.990   4.305  16.733  0.00  0.00    +0.000 NA
ATOM     14  C   UNL     1       7.923   4.837  17.991  0.00  0.00    +0.000 A 
ATOM     15  C   UNL     1       6.729   5.493  18.183  0.00  0.00    +0.000 A 
ATOM     16  N   UNL     1       6.058   5.349  17.001  0.00  0.00    +0.000 N 
ENDBRANCH  10  16
ENDBRANCH   1  10
TORSDOF 2
ENDMDL
MODEL 9
REMARK VINA RESULT:      -6.9      1.556      2.334
REMARK  Name = 
REMARK  3 active torsions:
REMARK  status: ('A' for Active; 'I' for Inactive)
REMARK    1  A    between atoms: C_1  and  C_2
REMARK    2  A    between atoms: N_6  and  C_7
REMARK    3  A    between atoms: C_7  and  C_8
REMARK                            x       y       z     vdW  Elec       q    Type
REMARK                         _______ _______ _______ _____ _____    ______ ____
ROOT
ATOM      1  C   UNL     1       4.002   3.666  17.565  0.00  0.00    +0.000 A 
ATOM      2  C   UNL     1       2.706   4.112  17.701  0.00  0.00    +0.000 A 
ATOM      3  C   UNL     1       2.326   3.861  19.038  0.00  0.00    +0.000 A 
ATOM      4  C   UNL     1       1.197   4.148  19.818  0.00  0.00    +0.000 A 
ATOM      5  C   UNL     1       1.040   3.449  21.019  0.00  0.00    +0.000 A 
ATOM      6  C   UNL     1       2.066   2.647  21.524  0.00  0.00    +0.000 A 
ATOM      7  C   UNL     1       3.300   2.547  20.866  0.00  0.00    +0.000 A 
ATOM      8  C   UNL     1       3.369   3.132  19.602  0.00  0.00    +0.000 A 
ATOM      9  O   UNL     1       4.419   3.072  18.726  0.00  0.00    +0.000 OA
ENDROOT
BRANCH   1  10
ATOM     10  C   UNL     1       4.977   3.801  16.456  0.00  0.00    +0.000 C 
BRANCH  10  16
ATOM     11  C   UNL     1       6.968   4.811  14.340  0.00  0.00    +0.000 C 
ATOM     12  C   UNL     1       6.791   5.381  15.702  0.00  0.00    +0.000 A 
ATOM     13  N   UNL     1       7.515   6.365  16.205  0.00  0.00    +0.000 NA
ATOM     14  C   UNL     1       7.044   6.554  17.474  0.00  0.00    +0.000 A 
ATOM     15  C   UNL     1       6.008   5.690  17.747  0.00  0.00    +0.000 A 
ATOM     16  N   UNL     1       5.855   4.958  16.602  0.00  0.00    +0.000 N 
ENDBRANCH  10  16
ENDBRANCH   1  10
TORSDOF 2
ENDMDL
