MODEL 1
REMARK VINA RESULT:      -7.7      0.000      0.000
REMARK  Name = 
REMARK  9 active torsions:
REMARK  status: ('A' for Active; 'I' for Inactive)
REMARK    1  A    between atoms: C_1  and  O_2
REMARK    2  A    between atoms: O_2  and  C_3
REMARK    3  A    between atoms: C_5  and  C_6
REMARK    4  A    between atoms: C_12  and  C_13
REMARK    5  A    between atoms: C_16  and  C_17
REMARK    6  A    between atoms: C_26  and  O_27
REMARK    7  A    between atoms: O_27  and  C_28
REMARK    8  A    between atoms: C_29  and  O_30
REMARK    9  A    between atoms: O_30  and  C_31
REMARK                            x       y       z     vdW  Elec       q    Type
REMARK                         _______ _______ _______ _____ _____    ______ ____
ROOT
ATOM      1  C   UNL     1       4.714   3.604  18.463  0.00  0.00    +0.000 A 
ATOM      2  N   UNL     1       4.870   2.417  19.030  0.00  0.00    +0.000 NA
ATOM      3  N   UNL     1       4.049   2.348  20.135  0.00  0.00    +0.000 NA
ATOM      4  C   UNL     1       3.423   3.492  20.220  0.00  0.00    +0.000 A 
ATOM      5  N   UNL     1       3.805   4.342  19.213  0.00  0.00    +0.000 N 
ATOM      6  N   UNL     1       3.439   5.658  19.010  0.00  0.00    +0.000 NA
ATOM      7  C   UNL     1       2.353   6.073  19.603  0.00  0.00    +0.000 C 
ATOM      8  C   UNL     1       1.397   5.182  20.386  0.00  0.00    +0.000 C 
ATOM      9  S   UNL     1       2.290   3.994  21.413  0.00  0.00    +0.000 S 
ENDROOT
BRANCH   1  12
ATOM     10  C   UNL     1       5.532   4.315  14.853  0.00  0.00    +0.000 A 
ATOM     11  C   UNL     1       5.078   3.659  16.005  0.00  0.00    +0.000 A 
ATOM     12  C   UNL     1       5.417   4.104  17.279  0.00  0.00    +0.000 A 
ATOM     13  C   UNL     1       6.391   5.094  17.384  0.00  0.00    +0.000 A 
ATOM     14  C   UNL     1       6.967   5.680  16.241  0.00  0.00    +0.000 A 
ATOM     15  C   UNL     1       6.533   5.300  14.949  0.00  0.00    +0.000 A 
BRANCH  10  17
ATOM     16  C   UNL     1       5.811   3.172  12.807  0.00  0.00    +0.000 C 
ATOM     17  O   UNL     1       4.972   3.983  13.642  0.00  0.00    +0.000 OA
ENDBRANCH  10  17
BRANCH  14  18
ATOM     18  O   UNL     1       7.899   6.630  16.584  0.00  0.00    +0.000 OA
ATOM     19  C   UNL     1       7.553   7.650  17.508  0.00  0.00    +0.000 C 
ENDBRANCH  14  18
BRANCH  15  20
ATOM     20  O   UNL     1       7.130   5.940  13.901  0.00  0.00    +0.000 OA
ATOM     21  C   UNL     1       8.236   5.376  13.222  0.00  0.00    +0.000 C 
ENDBRANCH  15  20
ENDBRANCH   1  12
BRANCH   7  22
ATOM     22  C   UNL     1       1.957   7.511  19.406  0.00  0.00    +0.000 A 
ATOM     23  C   UNL     1       2.179   8.165  18.192  0.00  0.00    +0.000 A 
ATOM     24  C   UNL     1       1.804   9.506  18.034  0.00  0.00    +0.000 A 
ATOM     25  C   UNL     1       1.220  10.215  19.088  0.00  0.00    +0.000 A 
ATOM     26  C   UNL     1       1.025   9.566  20.315  0.00  0.00    +0.000 A 
ATOM     27  C   UNL     1       1.389   8.218  20.470  0.00  0.00    +0.000 A 
BRANCH  25  28
ATOM     28  C   UNL     1       0.807  11.663  18.912  0.00  0.00    +0.000 C 
ATOM     29  F   UNL     1      -0.382  11.811  18.272  0.00  0.00    +0.000 F 
ATOM     30  F   UNL     1       0.678  12.311  20.102  0.00  0.00    +0.000 F 
ATOM     31  F   UNL     1       1.714  12.377  18.191  0.00  0.00    +0.000 F 
ENDBRANCH  25  28
ENDBRANCH   7  22
TORSDOF 6
ENDMDL
MODEL 2
REMARK VINA RESULT:      -7.6      0.088      1.106
REMARK  Name = 
REMARK  9 active torsions:
REMARK  status: ('A' for Active; 'I' for Inactive)
REMARK    1  A    between atoms: C_1  and  O_2
REMARK    2  A    between atoms: O_2  and  C_3
REMARK    3  A    between atoms: C_5  and  C_6
REMARK    4  A    between atoms: C_12  and  C_13
REMARK    5  A    between atoms: C_16  and  C_17
REMARK    6  A    between atoms: C_26  and  O_27
REMARK    7  A    between atoms: O_27  and  C_28
REMARK    8  A    between atoms: C_29  and  O_30
REMARK    9  A    between atoms: O_30  and  C_31
REMARK                            x       y       z     vdW  Elec       q    Type
REMARK                         _______ _______ _______ _____ _____    ______ ____
ROOT
ATOM      1  C   UNL     1       4.663   3.618  18.481  0.00  0.00    +0.000 A 
ATOM      2  N   UNL     1       4.789   2.421  19.034  0.00  0.00    +0.000 NA
ATOM      3  N   UNL     1       3.957   2.353  20.131  0.00  0.00    +0.000 NA
ATOM      4  C   UNL     1       3.353   3.508  20.226  0.00  0.00    +0.000 A 
ATOM      5  N   UNL     1       3.761   4.364  19.233  0.00  0.00    +0.000 N 
ATOM      6  N   UNL     1       3.423   5.690  19.044  0.00  0.00    +0.000 NA
ATOM      7  C   UNL     1       2.340   6.118  19.633  0.00  0.00    +0.000 C 
ATOM      8  C   UNL     1       1.360   5.236  20.396  0.00  0.00    +0.000 C 
ATOM      9  S   UNL     1       2.219   4.017  21.415  0.00  0.00    +0.000 S 
ENDROOT
BRANCH   1  12
ATOM     10  C   UNL     1       5.539   4.342  14.887  0.00  0.00    +0.000 A 
ATOM     11  C   UNL     1       5.064   3.683  16.029  0.00  0.00    +0.000 A 
ATOM     12  C   UNL     1       5.386   4.119  17.311  0.00  0.00    +0.000 A 
ATOM     13  C   UNL     1       6.364   5.104  17.435  0.00  0.00    +0.000 A 
ATOM     14  C   UNL     1       6.961   5.692  16.304  0.00  0.00    +0.000 A 
ATOM     15  C   UNL     1       6.544   5.320  15.004  0.00  0.00    +0.000 A 
BRANCH  10  17
ATOM     16  C   UNL     1       5.816   3.157  12.866  0.00  0.00    +0.000 C 
ATOM     17  O   UNL     1       4.995   4.019  13.667  0.00  0.00    +0.000 OA
ENDBRANCH  10  17
BRANCH  14  18
ATOM     18  O   UNL     1       7.892   6.634  16.666  0.00  0.00    +0.000 OA
ATOM     19  C   UNL     1       7.521   7.689  17.541  0.00  0.00    +0.000 C 
ENDBRANCH  14  18
BRANCH  15  20
ATOM     20  O   UNL     1       7.160   5.962  13.968  0.00  0.00    +0.000 OA
ATOM     21  C   UNL     1       8.235   5.368  13.263  0.00  0.00    +0.000 C 
ENDBRANCH  15  20
ENDBRANCH   1  12
BRANCH   7  22
ATOM     22  C   UNL     1       1.975   7.566  19.453  0.00  0.00    +0.000 A 
ATOM     23  C   UNL     1       1.380   8.298  20.483  0.00  0.00    +0.000 A 
ATOM     24  C   UNL     1       1.046   9.645  20.290  0.00  0.00    +0.000 A 
ATOM     25  C   UNL     1       1.283  10.273  19.063  0.00  0.00    +0.000 A 
ATOM     26  C   UNL     1       1.854   9.529  18.020  0.00  0.00    +0.000 A 
ATOM     27  C   UNL     1       2.200   8.182  18.218  0.00  0.00    +0.000 A 
BRANCH  25  28
ATOM     28  C   UNL     1       0.930  11.732  18.859  0.00  0.00    +0.000 C 
ATOM     29  F   UNL     1       0.849  12.436  20.019  0.00  0.00    +0.000 F 
ATOM     30  F   UNL     1       1.844  12.382  18.087  0.00  0.00    +0.000 F 
ATOM     31  F   UNL     1      -0.270  11.893  18.236  0.00  0.00    +0.000 F 
ENDBRANCH  25  28
ENDBRANCH   7  22
TORSDOF 6
ENDMDL
MODEL 3
REMARK VINA RESULT:      -7.4      0.496      2.482
REMARK  Name = 
REMARK  9 active torsions:
REMARK  status: ('A' for Active; 'I' for Inactive)
REMARK    1  A    between atoms: C_1  and  O_2
REMARK    2  A    between atoms: O_2  and  C_3
REMARK    3  A    between atoms: C_5  and  C_6
REMARK    4  A    between atoms: C_12  and  C_13
REMARK    5  A    between atoms: C_16  and  C_17
REMARK    6  A    between atoms: C_26  and  O_27
REMARK    7  A    between atoms: O_27  and  C_28
REMARK    8  A    between atoms: C_29  and  O_30
REMARK    9  A    between atoms: O_30  and  C_31
REMARK                            x       y       z     vdW  Elec       q    Type
REMARK                         _______ _______ _______ _____ _____    ______ ____
ROOT
ATOM      1  C   UNL     1       4.680   3.731  18.444  0.00  0.00    +0.000 A 
ATOM      2  N   UNL     1       4.831   2.507  18.927  0.00  0.00    +0.000 NA
ATOM      3  N   UNL     1       3.985   2.353  20.004  0.00  0.00    +0.000 NA
ATOM      4  C   UNL     1       3.350   3.485  20.158  0.00  0.00    +0.000 A 
ATOM      5  N   UNL     1       3.748   4.408  19.224  0.00  0.00    +0.000 N 
ATOM      6  N   UNL     1       3.378   5.734  19.109  0.00  0.00    +0.000 NA
ATOM      7  C   UNL     1       2.276   6.098  19.705  0.00  0.00    +0.000 C 
ATOM      8  C   UNL     1       1.309   5.148  20.398  0.00  0.00    +0.000 C 
ATOM      9  S   UNL     1       2.185   3.894  21.357  0.00  0.00    +0.000 S 
ENDROOT
BRANCH   1  12
ATOM     10  C   UNL     1       7.046   5.931  16.500  0.00  0.00    +0.000 A 
ATOM     11  C   UNL     1       6.127   5.501  17.468  0.00  0.00    +0.000 A 
ATOM     12  C   UNL     1       5.407   4.320  17.317  0.00  0.00    +0.000 A 
ATOM     13  C   UNL     1       5.463   3.679  16.082  0.00  0.00    +0.000 A 
ATOM     14  C   UNL     1       6.275   4.164  15.039  0.00  0.00    +0.000 A 
ATOM     15  C   UNL     1       7.091   5.302  15.242  0.00  0.00    +0.000 A 
BRANCH  10  17
ATOM     16  C   UNL     1       7.957   7.273  18.214  0.00  0.00    +0.000 C 
ATOM     17  O   UNL     1       7.898   6.963  16.815  0.00  0.00    +0.000 OA
ENDBRANCH  10  17
BRANCH  14  18
ATOM     18  O   UNL     1       6.174   3.374  13.920  0.00  0.00    +0.000 OA
ATOM     19  C   UNL     1       5.071   3.541  13.041  0.00  0.00    +0.000 C 
ENDBRANCH  14  18
BRANCH  15  20
ATOM     20  O   UNL     1       7.864   5.685  14.184  0.00  0.00    +0.000 OA
ATOM     21  C   UNL     1       7.796   5.017  12.937  0.00  0.00    +0.000 C 
ENDBRANCH  15  20
ENDBRANCH   1  12
BRANCH   7  22
ATOM     22  C   UNL     1       1.875   7.545  19.604  0.00  0.00    +0.000 A 
ATOM     23  C   UNL     1       1.300   8.216  20.686  0.00  0.00    +0.000 A 
ATOM     24  C   UNL     1       0.932   9.563  20.567  0.00  0.00    +0.000 A 
ATOM     25  C   UNL     1       1.116  10.252  19.364  0.00  0.00    +0.000 A 
ATOM     26  C   UNL     1       1.666   9.569  18.270  0.00  0.00    +0.000 A 
ATOM     27  C   UNL     1       2.047   8.223  18.393  0.00  0.00    +0.000 A 
BRANCH  25  28
ATOM     28  C   UNL     1       0.725  11.710  19.240  0.00  0.00    +0.000 C 
ATOM     29  F   UNL     1      -0.580  11.894  18.909  0.00  0.00    +0.000 F 
ATOM     30  F   UNL     1       0.920  12.397  20.400  0.00  0.00    +0.000 F 
ATOM     31  F   UNL     1       1.451  12.362  18.291  0.00  0.00    +0.000 F 
ENDBRANCH  25  28
ENDBRANCH   7  22
TORSDOF 6
ENDMDL
MODEL 4
REMARK VINA RESULT:      -7.3      0.512      2.436
REMARK  Name = 
REMARK  9 active torsions:
REMARK  status: ('A' for Active; 'I' for Inactive)
REMARK    1  A    between atoms: C_1  and  O_2
REMARK    2  A    between atoms: O_2  and  C_3
REMARK    3  A    between atoms: C_5  and  C_6
REMARK    4  A    between atoms: C_12  and  C_13
REMARK    5  A    between atoms: C_16  and  C_17
REMARK    6  A    between atoms: C_26  and  O_27
REMARK    7  A    between atoms: O_27  and  C_28
REMARK    8  A    between atoms: C_29  and  O_30
REMARK    9  A    between atoms: O_30  and  C_31
REMARK                            x       y       z     vdW  Elec       q    Type
REMARK                         _______ _______ _______ _____ _____    ______ ____
ROOT
ATOM      1  C   UNL     1       4.624   3.742  18.345  0.00  0.00    +0.000 A 
ATOM      2  N   UNL     1       4.734   2.517  18.838  0.00  0.00    +0.000 NA
ATOM      3  N   UNL     1       3.861   2.390  19.896  0.00  0.00    +0.000 NA
ATOM      4  C   UNL     1       3.249   3.537  20.029  0.00  0.00    +0.000 A 
ATOM      5  N   UNL     1       3.692   4.445  19.100  0.00  0.00    +0.000 N 
ATOM      6  N   UNL     1       3.356   5.779  18.969  0.00  0.00    +0.000 NA
ATOM      7  C   UNL     1       2.250   6.173  19.538  0.00  0.00    +0.000 C 
ATOM      8  C   UNL     1       1.244   5.250  20.214  0.00  0.00    +0.000 C 
ATOM      9  S   UNL     1       2.068   3.980  21.199  0.00  0.00    +0.000 S 
ENDROOT
BRANCH   1  12
ATOM     10  C   UNL     1       7.049   5.908  16.437  0.00  0.00    +0.000 A 
ATOM     11  C   UNL     1       6.096   5.497  17.380  0.00  0.00    +0.000 A 
ATOM     12  C   UNL     1       5.391   4.306  17.232  0.00  0.00    +0.000 A 
ATOM     13  C   UNL     1       5.500   3.633  16.018  0.00  0.00    +0.000 A 
ATOM     14  C   UNL     1       6.349   4.097  14.995  0.00  0.00    +0.000 A 
ATOM     15  C   UNL     1       7.148   5.247  15.200  0.00  0.00    +0.000 A 
BRANCH  10  17
ATOM     16  C   UNL     1       7.845   7.334  18.140  0.00  0.00    +0.000 C 
ATOM     17  O   UNL     1       7.880   6.955  16.757  0.00  0.00    +0.000 OA
ENDBRANCH  10  17
BRANCH  14  18
ATOM     18  O   UNL     1       6.297   3.277  13.894  0.00  0.00    +0.000 OA
ATOM     19  C   UNL     1       5.241   3.425  12.958  0.00  0.00    +0.000 C 
ENDBRANCH  14  18
BRANCH  15  20
ATOM     20  O   UNL     1       7.960   5.608  14.162  0.00  0.00    +0.000 OA
ATOM     21  C   UNL     1       7.528   5.513  12.817  0.00  0.00    +0.000 C 
ENDBRANCH  15  20
ENDBRANCH   1  12
BRANCH   7  22
ATOM     22  C   UNL     1       1.887   7.628  19.421  0.00  0.00    +0.000 A 
ATOM     23  C   UNL     1       2.098   8.336  18.235  0.00  0.00    +0.000 A 
ATOM     24  C   UNL     1       1.753   9.691  18.150  0.00  0.00    +0.000 A 
ATOM     25  C   UNL     1       1.211  10.362  19.251  0.00  0.00    +0.000 A 
ATOM     26  C   UNL     1       1.026   9.658  20.450  0.00  0.00    +0.000 A 
ATOM     27  C   UNL     1       1.360   8.296  20.530  0.00  0.00    +0.000 A 
BRANCH  25  28
ATOM     28  C   UNL     1       0.831  11.826  19.155  0.00  0.00    +0.000 C 
ATOM     29  F   UNL     1       1.852  12.623  18.743  0.00  0.00    +0.000 F 
ATOM     30  F   UNL     1      -0.189  12.037  18.279  0.00  0.00    +0.000 F 
ATOM     31  F   UNL     1       0.414  12.332  20.347  0.00  0.00    +0.000 F 
ENDBRANCH  25  28
ENDBRANCH   7  22
TORSDOF 6
ENDMDL
MODEL 5
REMARK VINA RESULT:      -7.0      0.908      2.706
REMARK  Name = 
REMARK  9 active torsions:
REMARK  status: ('A' for Active; 'I' for Inactive)
REMARK    1  A    between atoms: C_1  and  O_2
REMARK    2  A    between atoms: O_2  and  C_3
REMARK    3  A    between atoms: C_5  and  C_6
REMARK    4  A    between atoms: C_12  and  C_13
REMARK    5  A    between atoms: C_16  and  C_17
REMARK    6  A    between atoms: C_26  and  O_27
REMARK    7  A    between atoms: O_27  and  C_28
REMARK    8  A    between atoms: C_29  and  O_30
REMARK    9  A    between atoms: O_30  and  C_31
REMARK                            x       y       z     vdW  Elec       q    Type
REMARK                         _______ _______ _______ _____ _____    ______ ____
ROOT
ATOM      1  C   UNL     1       4.299   3.230  17.626  0.00  0.00    +0.000 A 
ATOM      2  N   UNL     1       4.413   1.934  17.875  0.00  0.00    +0.000 NA
ATOM      3  N   UNL     1       3.643   1.629  18.976  0.00  0.00    +0.000 NA
ATOM      4  C   UNL     1       3.088   2.742  19.377  0.00  0.00    +0.000 A 
ATOM      5  N   UNL     1       3.469   3.798  18.587  0.00  0.00    +0.000 N 
ATOM      6  N   UNL     1       3.170   5.139  18.736  0.00  0.00    +0.000 NA
ATOM      7  C   UNL     1       2.139   5.440  19.477  0.00  0.00    +0.000 C 
ATOM      8  C   UNL     1       1.172   4.425  20.074  0.00  0.00    +0.000 C 
ATOM      9  S   UNL     1       2.043   2.982  20.722  0.00  0.00    +0.000 S 
ENDROOT
BRANCH   1  12
ATOM     10  C   UNL     1       6.730   5.527  15.888  0.00  0.00    +0.000 A 
ATOM     11  C   UNL     1       5.874   4.994  16.861  0.00  0.00    +0.000 A 
ATOM     12  C   UNL     1       4.972   3.977  16.561  0.00  0.00    +0.000 A 
ATOM     13  C   UNL     1       4.791   3.644  15.221  0.00  0.00    +0.000 A 
ATOM     14  C   UNL     1       5.542   4.262  14.204  0.00  0.00    +0.000 A 
ATOM     15  C   UNL     1       6.537   5.213  14.530  0.00  0.00    +0.000 A 
BRANCH  10  17
ATOM     16  C   UNL     1       7.459   7.136  17.452  0.00  0.00    +0.000 C 
ATOM     17  O   UNL     1       7.758   6.346  16.292  0.00  0.00    +0.000 OA
ENDBRANCH  10  17
BRANCH  14  18
ATOM     18  O   UNL     1       5.196   3.777  12.965  0.00  0.00    +0.000 OA
ATOM     19  C   UNL     1       6.045   2.843  12.315  0.00  0.00    +0.000 C 
ENDBRANCH  14  18
BRANCH  15  20
ATOM     20  O   UNL     1       7.233   5.740  13.479  0.00  0.00    +0.000 OA
ATOM     21  C   UNL     1       8.517   5.258  13.126  0.00  0.00    +0.000 C 
ENDBRANCH  15  20
ENDBRANCH   1  12
BRANCH   7  22
ATOM     22  C   UNL     1       1.817   6.898  19.664  0.00  0.00    +0.000 A 
ATOM     23  C   UNL     1       1.380   7.392  20.895  0.00  0.00    +0.000 A 
ATOM     24  C   UNL     1       1.083   8.754  21.043  0.00  0.00    +0.000 A 
ATOM     25  C   UNL     1       1.202   9.634  19.963  0.00  0.00    +0.000 A 
ATOM     26  C   UNL     1       1.613   9.131  18.721  0.00  0.00    +0.000 A 
ATOM     27  C   UNL     1       1.923   7.769  18.575  0.00  0.00    +0.000 A 
BRANCH  25  28
ATOM     28  C   UNL     1       0.889  11.108  20.128  0.00  0.00    +0.000 C 
ATOM     29  F   UNL     1       0.881  11.516  21.424  0.00  0.00    +0.000 F 
ATOM     30  F   UNL     1       1.792  11.901  19.489  0.00  0.00    +0.000 F 
ATOM     31  F   UNL     1      -0.329  11.439  19.620  0.00  0.00    +0.000 F 
ENDBRANCH  25  28
ENDBRANCH   7  22
TORSDOF 6
ENDMDL
MODEL 6
REMARK VINA RESULT:      -7.0      6.213      9.367
REMARK  Name = 
REMARK  9 active torsions:
REMARK  status: ('A' for Active; 'I' for Inactive)
REMARK    1  A    between atoms: C_1  and  O_2
REMARK    2  A    between atoms: O_2  and  C_3
REMARK    3  A    between atoms: C_5  and  C_6
REMARK    4  A    between atoms: C_12  and  C_13
REMARK    5  A    between atoms: C_16  and  C_17
REMARK    6  A    between atoms: C_26  and  O_27
REMARK    7  A    between atoms: O_27  and  C_28
REMARK    8  A    between atoms: C_29  and  O_30
REMARK    9  A    between atoms: O_30  and  C_31
REMARK                            x       y       z     vdW  Elec       q    Type
REMARK                         _______ _______ _______ _____ _____    ______ ____
ROOT
ATOM      1  C   UNL     1       1.511  14.175  19.378  0.00  0.00    +0.000 A 
ATOM      2  N   UNL     1       0.651  15.150  19.122  0.00  0.00    +0.000 NA
ATOM      3  N   UNL     1      -0.519  14.593  18.654  0.00  0.00    +0.000 NA
ATOM      4  C   UNL     1      -0.343  13.298  18.626  0.00  0.00    +0.000 A 
ATOM      5  N   UNL     1       0.918  12.960  19.050  0.00  0.00    +0.000 N 
ATOM      6  N   UNL     1       1.512  11.713  19.083  0.00  0.00    +0.000 NA
ATOM      7  C   UNL     1       0.721  10.676  19.054  0.00  0.00    +0.000 C 
ATOM      8  C   UNL     1      -0.800  10.741  19.120  0.00  0.00    +0.000 C 
ATOM      9  S   UNL     1      -1.450  12.088  18.107  0.00  0.00    +0.000 S 
ENDROOT
BRANCH   1  12
ATOM     10  C   UNL     1       5.172  15.065  19.467  0.00  0.00    +0.000 A 
ATOM     11  C   UNL     1       3.921  14.644  18.996  0.00  0.00    +0.000 A 
ATOM     12  C   UNL     1       2.883  14.327  19.867  0.00  0.00    +0.000 A 
ATOM     13  C   UNL     1       3.179  14.237  21.225  0.00  0.00    +0.000 A 
ATOM     14  C   UNL     1       4.467  14.523  21.715  0.00  0.00    +0.000 A 
ATOM     15  C   UNL     1       5.486  14.953  20.834  0.00  0.00    +0.000 A 
BRANCH  10  17
ATOM     16  C   UNL     1       6.763  14.614  17.783  0.00  0.00    +0.000 C 
ATOM     17  O   UNL     1       6.069  15.594  18.569  0.00  0.00    +0.000 OA
ENDBRANCH  10  17
BRANCH  14  18
ATOM     18  O   UNL     1       4.525  14.369  23.080  0.00  0.00    +0.000 OA
ATOM     19  C   UNL     1       4.647  15.513  23.910  0.00  0.00    +0.000 C 
ENDBRANCH  14  18
BRANCH  15  20
ATOM     20  O   UNL     1       6.696  15.233  21.403  0.00  0.00    +0.000 OA
ATOM     21  C   UNL     1       7.705  14.247  21.519  0.00  0.00    +0.000 C 
ENDBRANCH  15  20
ENDBRANCH   1  12
BRANCH   7  22
ATOM     22  C   UNL     1       1.358   9.313  19.068  0.00  0.00    +0.000 A 
ATOM     23  C   UNL     1       1.382   8.536  20.228  0.00  0.00    +0.000 A 
ATOM     24  C   UNL     1       1.983   7.270  20.217  0.00  0.00    +0.000 A 
ATOM     25  C   UNL     1       2.583   6.772  19.056  0.00  0.00    +0.000 A 
ATOM     26  C   UNL     1       2.584   7.566  17.901  0.00  0.00    +0.000 A 
ATOM     27  C   UNL     1       1.969   8.829  17.908  0.00  0.00    +0.000 A 
BRANCH  25  28
ATOM     28  C   UNL     1       3.225   5.400  19.044  0.00  0.00    +0.000 C 
ATOM     29  F   UNL     1       2.417   4.421  19.529  0.00  0.00    +0.000 F 
ATOM     30  F   UNL     1       3.581   5.008  17.790  0.00  0.00    +0.000 F 
ATOM     31  F   UNL     1       4.363   5.353  19.790  0.00  0.00    +0.000 F 
ENDBRANCH  25  28
ENDBRANCH   7  22
TORSDOF 6
ENDMDL
MODEL 7
REMARK VINA RESULT:      -6.9      7.185     11.258
REMARK  Name = 
REMARK  9 active torsions:
REMARK  status: ('A' for Active; 'I' for Inactive)
REMARK    1  A    between atoms: C_1  and  O_2
REMARK    2  A    between atoms: O_2  and  C_3
REMARK    3  A    between atoms: C_5  and  C_6
REMARK    4  A    between atoms: C_12  and  C_13
REMARK    5  A    between atoms: C_16  and  C_17
REMARK    6  A    between atoms: C_26  and  O_27
REMARK    7  A    between atoms: O_27  and  C_28
REMARK    8  A    between atoms: C_29  and  O_30
REMARK    9  A    between atoms: O_30  and  C_31
REMARK                            x       y       z     vdW  Elec       q    Type
REMARK                         _______ _______ _______ _____ _____    ______ ____
ROOT
ATOM      1  C   UNL     1      -1.046  13.528  19.748  0.00  0.00    +0.000 A 
ATOM      2  N   UNL     1      -0.762  14.779  19.417  0.00  0.00    +0.000 NA
ATOM      3  N   UNL     1       0.524  14.822  18.923  0.00  0.00    +0.000 NA
ATOM      4  C   UNL     1       0.994  13.604  18.973  0.00  0.00    +0.000 A 
ATOM      5  N   UNL     1       0.070  12.736  19.499  0.00  0.00    +0.000 N 
ATOM      6  N   UNL     1       0.216  11.394  19.792  0.00  0.00    +0.000 NA
ATOM      7  C   UNL     1       1.191  10.759  19.202  0.00  0.00    +0.000 C 
ATOM      8  C   UNL     1       2.088  11.352  18.123  0.00  0.00    +0.000 C 
ATOM      9  S   UNL     1       2.558  13.051  18.513  0.00  0.00    +0.000 S 
ENDROOT
BRANCH   1  12
ATOM     10  C   UNL     1      -3.756  12.862  22.282  0.00  0.00    +0.000 A 
ATOM     11  C   UNL     1      -2.488  13.052  21.715  0.00  0.00    +0.000 A 
ATOM     12  C   UNL     1      -2.296  13.043  20.337  0.00  0.00    +0.000 A 
ATOM     13  C   UNL     1      -3.358  12.632  19.536  0.00  0.00    +0.000 A 
ATOM     14  C   UNL     1      -4.610  12.302  20.090  0.00  0.00    +0.000 A 
ATOM     15  C   UNL     1      -4.827  12.423  21.482  0.00  0.00    +0.000 A 
BRANCH  10  17
ATOM     16  C   UNL     1      -3.386  14.383  24.047  0.00  0.00    +0.000 C 
ATOM     17  O   UNL     1      -3.924  13.123  23.621  0.00  0.00    +0.000 OA
ENDBRANCH  10  17
BRANCH  14  18
ATOM     18  O   UNL     1      -5.502  11.927  19.115  0.00  0.00    +0.000 OA
ATOM     19  C   UNL     1      -5.032  11.633  17.808  0.00  0.00    +0.000 C 
ENDBRANCH  14  18
BRANCH  15  20
ATOM     20  O   UNL     1      -6.079  12.105  21.926  0.00  0.00    +0.000 OA
ATOM     21  C   UNL     1      -7.095  13.085  22.040  0.00  0.00    +0.000 C 
ENDBRANCH  15  20
ENDBRANCH   1  12
BRANCH   7  22
ATOM     22  C   UNL     1       1.372   9.301  19.531  0.00  0.00    +0.000 A 
ATOM     23  C   UNL     1       0.980   8.782  20.767  0.00  0.00    +0.000 A 
ATOM     24  C   UNL     1       1.161   7.422  21.051  0.00  0.00    +0.000 A 
ATOM     25  C   UNL     1       1.751   6.567  20.114  0.00  0.00    +0.000 A 
ATOM     26  C   UNL     1       2.170   7.096  18.885  0.00  0.00    +0.000 A 
ATOM     27  C   UNL     1       1.977   8.457  18.596  0.00  0.00    +0.000 A 
BRANCH  25  28
ATOM     28  C   UNL     1       1.938   5.095  20.419  0.00  0.00    +0.000 C 
ATOM     29  F   UNL     1       2.725   4.452  19.517  0.00  0.00    +0.000 F 
ATOM     30  F   UNL     1       2.515   4.890  21.636  0.00  0.00    +0.000 F 
ATOM     31  F   UNL     1       0.759   4.417  20.443  0.00  0.00    +0.000 F 
ENDBRANCH  25  28
ENDBRANCH   7  22
TORSDOF 6
ENDMDL
MODEL 8
REMARK VINA RESULT:      -6.8      7.471     11.564
REMARK  Name = 
REMARK  9 active torsions:
REMARK  status: ('A' for Active; 'I' for Inactive)
REMARK    1  A    between atoms: C_1  and  O_2
REMARK    2  A    between atoms: O_2  and  C_3
REMARK    3  A    between atoms: C_5  and  C_6
REMARK    4  A    between atoms: C_12  and  C_13
REMARK    5  A    between atoms: C_16  and  C_17
REMARK    6  A    between atoms: C_26  and  O_27
REMARK    7  A    between atoms: O_27  and  C_28
REMARK    8  A    between atoms: C_29  and  O_30
REMARK    9  A    between atoms: O_30  and  C_31
REMARK                            x       y       z     vdW  Elec       q    Type
REMARK                         _______ _______ _______ _____ _____    ______ ____
ROOT
ATOM      1  C   UNL     1      -1.609  14.033  20.243  0.00  0.00    +0.000 A 
ATOM      2  N   UNL     1      -1.450  15.346  20.160  0.00  0.00    +0.000 NA
ATOM      3  N   UNL     1      -0.148  15.609  19.792  0.00  0.00    +0.000 NA
ATOM      4  C   UNL     1       0.456  14.457  19.669  0.00  0.00    +0.000 A 
ATOM      5  N   UNL     1      -0.395  13.418  19.956  0.00  0.00    +0.000 N 
ATOM      6  N   UNL     1      -0.114  12.067  20.022  0.00  0.00    +0.000 NA
ATOM      7  C   UNL     1       0.964  11.652  19.417  0.00  0.00    +0.000 C 
ATOM      8  C   UNL     1       1.855  12.520  18.537  0.00  0.00    +0.000 C 
ATOM      9  S   UNL     1       2.099  14.159  19.255  0.00  0.00    +0.000 S 
ENDROOT
BRANCH   1  12
ATOM     10  C   UNL     1      -4.362  12.609  22.388  0.00  0.00    +0.000 A 
ATOM     11  C   UNL     1      -3.093  13.028  21.964  0.00  0.00    +0.000 A 
ATOM     12  C   UNL     1      -2.830  13.324  20.630  0.00  0.00    +0.000 A 
ATOM     13  C   UNL     1      -3.801  12.994  19.688  0.00  0.00    +0.000 A 
ATOM     14  C   UNL     1      -5.038  12.442  20.072  0.00  0.00    +0.000 A 
ATOM     15  C   UNL     1      -5.339  12.250  21.441  0.00  0.00    +0.000 A 
BRANCH  10  17
ATOM     16  C   UNL     1      -3.896  13.534  24.508  0.00  0.00    +0.000 C 
ATOM     17  O   UNL     1      -4.625  12.569  23.736  0.00  0.00    +0.000 OA
ENDBRANCH  10  17
BRANCH  14  18
ATOM     18  O   UNL     1      -5.835  12.199  18.979  0.00  0.00    +0.000 OA
ATOM     19  C   UNL     1      -5.747  10.950  18.311  0.00  0.00    +0.000 C 
ENDBRANCH  14  18
BRANCH  15  20
ATOM     20  O   UNL     1      -6.572  11.735  21.720  0.00  0.00    +0.000 OA
ATOM     21  C   UNL     1      -7.677  12.572  22.009  0.00  0.00    +0.000 C 
ENDBRANCH  15  20
ENDBRANCH   1  12
BRANCH   7  22
ATOM     22  C   UNL     1       1.290  10.186  19.501  0.00  0.00    +0.000 A 
ATOM     23  C   UNL     1       1.118   9.471  20.689  0.00  0.00    +0.000 A 
ATOM     24  C   UNL     1       1.431   8.106  20.743  0.00  0.00    +0.000 A 
ATOM     25  C   UNL     1       1.937   7.442  19.621  0.00  0.00    +0.000 A 
ATOM     26  C   UNL     1       2.136   8.167  18.438  0.00  0.00    +0.000 A 
ATOM     27  C   UNL     1       1.810   9.532  18.379  0.00  0.00    +0.000 A 
BRANCH  25  28
ATOM     28  C   UNL     1       2.267   5.965  19.680  0.00  0.00    +0.000 C 
ATOM     29  F   UNL     1       1.954   5.296  18.539  0.00  0.00    +0.000 F 
ATOM     30  F   UNL     1       3.592   5.740  19.896  0.00  0.00    +0.000 F 
ATOM     31  F   UNL     1       1.608   5.326  20.685  0.00  0.00    +0.000 F 
ENDBRANCH  25  28
ENDBRANCH   7  22
TORSDOF 6
ENDMDL
MODEL 9
REMARK VINA RESULT:      -6.8      6.092      9.138
REMARK  Name = 
REMARK  9 active torsions:
REMARK  status: ('A' for Active; 'I' for Inactive)
REMARK    1  A    between atoms: C_1  and  O_2
REMARK    2  A    between atoms: O_2  and  C_3
REMARK    3  A    between atoms: C_5  and  C_6
REMARK    4  A    between atoms: C_12  and  C_13
REMARK    5  A    between atoms: C_16  and  C_17
REMARK    6  A    between atoms: C_26  and  O_27
REMARK    7  A    between atoms: O_27  and  C_28
REMARK    8  A    between atoms: C_29  and  O_30
REMARK    9  A    between atoms: O_30  and  C_31
REMARK                            x       y       z     vdW  Elec       q    Type
REMARK                         _______ _______ _______ _____ _____    ______ ____
ROOT
ATOM      1  C   UNL     1       1.384  13.988  21.111  0.00  0.00    +0.000 A 
ATOM      2  N   UNL     1       0.609  14.833  21.775  0.00  0.00    +0.000 NA
ATOM      3  N   UNL     1      -0.456  14.134  22.300  0.00  0.00    +0.000 NA
ATOM      4  C   UNL     1      -0.311  12.887  21.937  0.00  0.00    +0.000 A 
ATOM      5  N   UNL     1       0.814  12.721  21.170  0.00  0.00    +0.000 N 
ATOM      6  N   UNL     1       1.262  11.581  20.530  0.00  0.00    +0.000 NA
ATOM      7  C   UNL     1       0.797  10.438  20.955  0.00  0.00    +0.000 C 
ATOM      8  C   UNL     1      -0.092  10.263  22.180  0.00  0.00    +0.000 C 
ATOM      9  S   UNL     1      -1.349  11.556  22.276  0.00  0.00    +0.000 S 
ENDROOT
BRANCH   1  12
ATOM     10  C   UNL     1       3.660  15.192  18.359  0.00  0.00    +0.000 A 
ATOM     11  C   UNL     1       2.568  14.609  19.017  0.00  0.00    +0.000 A 
ATOM     12  C   UNL     1       2.607  14.318  20.377  0.00  0.00    +0.000 A 
ATOM     13  C   UNL     1       3.832  14.427  21.030  0.00  0.00    +0.000 A 
ATOM     14  C   UNL     1       4.983  14.883  20.359  0.00  0.00    +0.000 A 
ATOM     15  C   UNL     1       4.907  15.283  19.004  0.00  0.00    +0.000 A 
BRANCH  10  17
ATOM     16  C   UNL     1       2.881  16.981  17.031  0.00  0.00    +0.000 C 
ATOM     17  O   UNL     1       3.478  15.677  17.085  0.00  0.00    +0.000 OA
ENDBRANCH  10  17
BRANCH  14  18
ATOM     18  O   UNL     1       6.071  14.909  21.198  0.00  0.00    +0.000 OA
ATOM     19  C   UNL     1       6.358  16.086  21.939  0.00  0.00    +0.000 C 
ENDBRANCH  14  18
BRANCH  15  20
ATOM     20  O   UNL     1       6.067  15.735  18.444  0.00  0.00    +0.000 OA
ATOM     21  C   UNL     1       6.934  14.869  17.736  0.00  0.00    +0.000 C 
ENDBRANCH  15  20
ENDBRANCH   1  12
BRANCH   7  22
ATOM     22  C   UNL     1       1.261   9.192  20.251  0.00  0.00    +0.000 A 
ATOM     23  C   UNL     1       1.446   7.993  20.944  0.00  0.00    +0.000 A 
ATOM     24  C   UNL     1       1.881   6.846  20.267  0.00  0.00    +0.000 A 
ATOM     25  C   UNL     1       2.156   6.885  18.897  0.00  0.00    +0.000 A 
ATOM     26  C   UNL     1       1.998   8.096  18.208  0.00  0.00    +0.000 A 
ATOM     27  C   UNL     1       1.549   9.242  18.884  0.00  0.00    +0.000 A 
BRANCH  25  28
ATOM     28  C   UNL     1       2.618   5.641  18.165  0.00  0.00    +0.000 C 
ATOM     29  F   UNL     1       1.622   5.009  17.491  0.00  0.00    +0.000 F 
ATOM     30  F   UNL     1       3.583   5.914  17.244  0.00  0.00    +0.000 F 
ATOM     31  F   UNL     1       3.153   4.714  19.006  0.00  0.00    +0.000 F 
ENDBRANCH  25  28
ENDBRANCH   7  22
TORSDOF 6
ENDMDL
