MODEL 1
REMARK VINA RESULT:      -7.1      0.000      0.000
REMARK  Name = 
REMARK  6 active torsions:
REMARK  status: ('A' for Active; 'I' for Inactive)
REMARK    1  A    between atoms: C_1  and  C_2
REMARK    2  A    between atoms: C_2  and  N_3
REMARK    3  A    between atoms: C_5  and  C_6
REMARK    4  A    between atoms: C_7  and  C_8
REMARK    5  A    between atoms: C_8  and  N_9
REMARK    6  A    between atoms: C_19  and  C_20
REMARK                            x       y       z     vdW  Elec       q    Type
REMARK                         _______ _______ _______ _____ _____    ______ ____
ROOT
ATOM      1  C   UNL     1       4.294   3.928  17.485  0.00  0.00    +0.000 C 
ENDROOT
BRANCH   1   2
ATOM      2  N   UNL     1       2.983   4.598  17.474  0.00  0.00    +0.000 NA
ATOM      3  C   UNL     1       2.982   6.047  17.706  0.00  0.00    +0.000 C 
ATOM      4  C   UNL     1       3.054   6.519  19.161  0.00  0.00    +0.000 C 
ATOM      5  C   UNL     1       2.072   5.808  20.083  0.00  0.00    +0.000 C 
ATOM      6  C   UNL     1       2.058   4.293  19.890  0.00  0.00    +0.000 C 
ATOM      7  C   UNL     1       2.015   3.928  18.376  0.00  0.00    +0.000 C 
ATOM      8  O   UNL     1       0.869   3.808  20.531  0.00  0.00    +0.000 OA
ATOM      9  C   UNL     1       1.241   2.682  21.308  0.00  0.00    +0.000 C 
ATOM     10  C   UNL     1       2.747   2.664  21.353  0.00  0.00    +0.000 C 
ATOM     11  O   UNL     1       3.210   3.713  20.509  0.00  0.00    +0.000 OA
ENDBRANCH   1   2
BRANCH   1  16
ATOM     12  N   UNL     1       7.116   6.297  17.509  0.00  0.00    +0.000 N 
ATOM     13  N   UNL     1       6.951   6.230  16.177  0.00  0.00    +0.000 NA
ATOM     14  C   UNL     1       5.956   5.355  16.004  0.00  0.00    +0.000 A 
ATOM     15  C   UNL     1       5.569   4.973  14.626  0.00  0.00    +0.000 C 
ATOM     16  C   UNL     1       5.437   4.885  17.244  0.00  0.00    +0.000 A 
ATOM     17  C   UNL     1       6.288   5.438  18.190  0.00  0.00    +0.000 A 
ATOM     18  C   UNL     1       6.339   5.234  19.664  0.00  0.00    +0.000 C 
BRANCH  12  20
ATOM     19  C   UNL     1       7.810   8.709  17.651  0.00  0.00    +0.000 C 
ATOM     20  C   UNL     1       8.052   7.262  18.063  0.00  0.00    +0.000 C 
ENDBRANCH  12  20
ENDBRANCH   1  16
TORSDOF 3
ENDMDL
MODEL 2
REMARK VINA RESULT:      -6.7      1.715      2.744
REMARK  Name = 
REMARK  6 active torsions:
REMARK  status: ('A' for Active; 'I' for Inactive)
REMARK    1  A    between atoms: C_1  and  C_2
REMARK    2  A    between atoms: C_2  and  N_3
REMARK    3  A    between atoms: C_5  and  C_6
REMARK    4  A    between atoms: C_7  and  C_8
REMARK    5  A    between atoms: C_8  and  N_9
REMARK    6  A    between atoms: C_19  and  C_20
REMARK                            x       y       z     vdW  Elec       q    Type
REMARK                         _______ _______ _______ _____ _____    ______ ____
ROOT
ATOM      1  C   UNL     1       5.590   4.142  17.898  0.00  0.00    +0.000 C 
ENDROOT
BRANCH   1   2
ATOM      2  N   UNL     1       5.063   3.976  19.263  0.00  0.00    +0.000 NA
ATOM      3  C   UNL     1       4.233   2.791  19.510  0.00  0.00    +0.000 C 
ATOM      4  C   UNL     1       2.759   2.876  19.102  0.00  0.00    +0.000 C 
ATOM      5  C   UNL     1       2.067   4.147  19.576  0.00  0.00    +0.000 C 
ATOM      6  C   UNL     1       2.887   5.408  19.317  0.00  0.00    +0.000 C 
ATOM      7  C   UNL     1       4.373   5.199  19.739  0.00  0.00    +0.000 C 
ATOM      8  O   UNL     1       2.306   6.448  20.118  0.00  0.00    +0.000 OA
ATOM      9  C   UNL     1       2.176   7.592  19.290  0.00  0.00    +0.000 C 
ATOM     10  C   UNL     1       2.429   7.136  17.877  0.00  0.00    +0.000 C 
ATOM     11  O   UNL     1       2.809   5.765  17.934  0.00  0.00    +0.000 OA
ENDBRANCH   1   2
BRANCH   1  16
ATOM     12  N   UNL     1       7.623   7.214  17.950  0.00  0.00    +0.000 N 
ATOM     13  N   UNL     1       6.901   7.497  16.853  0.00  0.00    +0.000 NA
ATOM     14  C   UNL     1       6.117   6.428  16.680  0.00  0.00    +0.000 A 
ATOM     15  C   UNL     1       5.239   6.368  15.488  0.00  0.00    +0.000 C 
ATOM     16  C   UNL     1       6.303   5.459  17.706  0.00  0.00    +0.000 A 
ATOM     17  C   UNL     1       7.363   5.960  18.447  0.00  0.00    +0.000 A 
ATOM     18  C   UNL     1       8.101   5.353  19.589  0.00  0.00    +0.000 C 
BRANCH  12  20
ATOM     19  C   UNL     1       8.277   9.641  17.978  0.00  0.00    +0.000 C 
ATOM     20  C   UNL     1       8.507   8.229  18.502  0.00  0.00    +0.000 C 
ENDBRANCH  12  20
ENDBRANCH   1  16
TORSDOF 3
ENDMDL
MODEL 3
REMARK VINA RESULT:      -6.6      2.693      5.779
REMARK  Name = 
REMARK  6 active torsions:
REMARK  status: ('A' for Active; 'I' for Inactive)
REMARK    1  A    between atoms: C_1  and  C_2
REMARK    2  A    between atoms: C_2  and  N_3
REMARK    3  A    between atoms: C_5  and  C_6
REMARK    4  A    between atoms: C_7  and  C_8
REMARK    5  A    between atoms: C_8  and  N_9
REMARK    6  A    between atoms: C_19  and  C_20
REMARK                            x       y       z     vdW  Elec       q    Type
REMARK                         _______ _______ _______ _____ _____    ______ ____
ROOT
ATOM      1  C   UNL     1       2.870   4.344  17.877  0.00  0.00    +0.000 C 
ENDROOT
BRANCH   1   2
ATOM      2  N   UNL     1       4.076   3.601  18.279  0.00  0.00    +0.000 NA
ATOM      3  C   UNL     1       4.818   4.124  19.431  0.00  0.00    +0.000 C 
ATOM      4  C   UNL     1       5.789   5.280  19.168  0.00  0.00    +0.000 C 
ATOM      5  C   UNL     1       6.707   5.046  17.975  0.00  0.00    +0.000 C 
ATOM      6  C   UNL     1       5.970   4.522  16.745  0.00  0.00    +0.000 C 
ATOM      7  C   UNL     1       4.990   3.374  17.134  0.00  0.00    +0.000 C 
ATOM      8  O   UNL     1       6.971   4.013  15.852  0.00  0.00    +0.000 OA
ATOM      9  C   UNL     1       6.672   4.511  14.559  0.00  0.00    +0.000 C 
ATOM     10  C   UNL     1       5.622   5.577  14.736  0.00  0.00    +0.000 C 
ATOM     11  O   UNL     1       5.258   5.590  16.112  0.00  0.00    +0.000 OA
ENDBRANCH   1   2
BRANCH   1  16
ATOM     12  N   UNL     1       1.767   6.908  20.283  0.00  0.00    +0.000 N 
ATOM     13  N   UNL     1       1.316   5.832  20.950  0.00  0.00    +0.000 NA
ATOM     14  C   UNL     1       1.619   4.796  20.162  0.00  0.00    +0.000 A 
ATOM     15  C   UNL     1       1.177   3.439  20.561  0.00  0.00    +0.000 C 
ATOM     16  C   UNL     1       2.318   5.202  18.990  0.00  0.00    +0.000 A 
ATOM     17  C   UNL     1       2.298   6.588  19.057  0.00  0.00    +0.000 A 
ATOM     18  C   UNL     1       2.771   7.598  18.070  0.00  0.00    +0.000 C 
BRANCH  12  20
ATOM     19  C   UNL     1       0.344   8.604  21.472  0.00  0.00    +0.000 C 
ATOM     20  C   UNL     1       1.709   8.215  20.917  0.00  0.00    +0.000 C 
ENDBRANCH  12  20
ENDBRANCH   1  16
TORSDOF 3
ENDMDL
MODEL 4
REMARK VINA RESULT:      -6.6      2.911      5.393
REMARK  Name = 
REMARK  6 active torsions:
REMARK  status: ('A' for Active; 'I' for Inactive)
REMARK    1  A    between atoms: C_1  and  C_2
REMARK    2  A    between atoms: C_2  and  N_3
REMARK    3  A    between atoms: C_5  and  C_6
REMARK    4  A    between atoms: C_7  and  C_8
REMARK    5  A    between atoms: C_8  and  N_9
REMARK    6  A    between atoms: C_19  and  C_20
REMARK                            x       y       z     vdW  Elec       q    Type
REMARK                         _______ _______ _______ _____ _____    ______ ____
ROOT
ATOM      1  C   UNL     1       2.767   6.740  17.915  0.00  0.00    +0.000 C 
ENDROOT
BRANCH   1   2
ATOM      2  N   UNL     1       4.228   6.646  18.069  0.00  0.00    +0.000 NA
ATOM      3  C   UNL     1       5.018   6.593  16.833  0.00  0.00    +0.000 C 
ATOM      4  C   UNL     1       5.143   5.230  16.145  0.00  0.00    +0.000 C 
ATOM      5  C   UNL     1       5.519   4.099  17.093  0.00  0.00    +0.000 C 
ATOM      6  C   UNL     1       4.704   4.104  18.384  0.00  0.00    +0.000 C 
ATOM      7  C   UNL     1       4.616   5.542  18.979  0.00  0.00    +0.000 C 
ATOM      8  O   UNL     1       5.391   3.247  19.307  0.00  0.00    +0.000 OA
ATOM      9  C   UNL     1       4.418   2.400  19.897  0.00  0.00    +0.000 C 
ATOM     10  C   UNL     1       3.154   2.567  19.095  0.00  0.00    +0.000 C 
ATOM     11  O   UNL     1       3.392   3.589  18.133  0.00  0.00    +0.000 OA
ENDBRANCH   1   2
BRANCH   1  16
ATOM     12  N   UNL     1       1.214   8.997  20.379  0.00  0.00    +0.000 N 
ATOM     13  N   UNL     1       1.175   7.875  21.116  0.00  0.00    +0.000 NA
ATOM     14  C   UNL     1       1.687   6.931  20.321  0.00  0.00    +0.000 A 
ATOM     15  C   UNL     1       1.711   5.528  20.797  0.00  0.00    +0.000 C 
ATOM     16  C   UNL     1       2.106   7.459  19.067  0.00  0.00    +0.000 A 
ATOM     17  C   UNL     1       1.684   8.780  19.106  0.00  0.00    +0.000 A 
ATOM     18  C   UNL     1       1.730   9.829  18.050  0.00  0.00    +0.000 C 
BRANCH  12  20
ATOM     19  C   UNL     1      -0.016  10.148  22.244  0.00  0.00    +0.000 C 
ATOM     20  C   UNL     1       0.839  10.264  20.988  0.00  0.00    +0.000 C 
ENDBRANCH  12  20
ENDBRANCH   1  16
TORSDOF 3
ENDMDL
MODEL 5
REMARK VINA RESULT:      -6.5      1.782      3.022
REMARK  Name = 
REMARK  6 active torsions:
REMARK  status: ('A' for Active; 'I' for Inactive)
REMARK    1  A    between atoms: C_1  and  C_2
REMARK    2  A    between atoms: C_2  and  N_3
REMARK    3  A    between atoms: C_5  and  C_6
REMARK    4  A    between atoms: C_7  and  C_8
REMARK    5  A    between atoms: C_8  and  N_9
REMARK    6  A    between atoms: C_19  and  C_20
REMARK                            x       y       z     vdW  Elec       q    Type
REMARK                         _______ _______ _______ _____ _____    ______ ____
ROOT
ATOM      1  C   UNL     1       5.005   6.381  18.188  0.00  0.00    +0.000 C 
ENDROOT
BRANCH   1   2
ATOM      2  N   UNL     1       3.585   6.208  17.840  0.00  0.00    +0.000 NA
ATOM      3  C   UNL     1       2.609   6.892  18.696  0.00  0.00    +0.000 C 
ATOM      4  C   UNL     1       2.227   6.198  20.007  0.00  0.00    +0.000 C 
ATOM      5  C   UNL     1       1.882   4.724  19.840  0.00  0.00    +0.000 C 
ATOM      6  C   UNL     1       2.887   3.969  18.973  0.00  0.00    +0.000 C 
ATOM      7  C   UNL     1       3.226   4.778  17.685  0.00  0.00    +0.000 C 
ATOM      8  O   UNL     1       2.263   2.729  18.607  0.00  0.00    +0.000 OA
ATOM      9  C   UNL     1       3.217   1.701  18.819  0.00  0.00    +0.000 C 
ATOM     10  C   UNL     1       4.350   2.314  19.600  0.00  0.00    +0.000 C 
ATOM     11  O   UNL     1       4.077   3.706  19.723  0.00  0.00    +0.000 OA
ENDBRANCH   1   2
BRANCH   1  16
ATOM     12  N   UNL     1       6.875   5.142  15.265  0.00  0.00    +0.000 N 
ATOM     13  N   UNL     1       7.665   4.617  16.216  0.00  0.00    +0.000 NA
ATOM     14  C   UNL     1       7.120   5.021  17.368  0.00  0.00    +0.000 A 
ATOM     15  C   UNL     1       7.802   4.688  18.640  0.00  0.00    +0.000 C 
ATOM     16  C   UNL     1       5.933   5.780  17.159  0.00  0.00    +0.000 A 
ATOM     17  C   UNL     1       5.871   5.925  15.781  0.00  0.00    +0.000 A 
ATOM     18  C   UNL     1       4.922   6.711  14.945  0.00  0.00    +0.000 C 
BRANCH  12  20
ATOM     19  C   UNL     1       6.192   3.719  13.309  0.00  0.00    +0.000 C 
ATOM     20  C   UNL     1       7.111   4.796  13.872  0.00  0.00    +0.000 C 
ENDBRANCH  12  20
ENDBRANCH   1  16
TORSDOF 3
ENDMDL
MODEL 6
REMARK VINA RESULT:      -6.5      2.943      5.286
REMARK  Name = 
REMARK  6 active torsions:
REMARK  status: ('A' for Active; 'I' for Inactive)
REMARK    1  A    between atoms: C_1  and  C_2
REMARK    2  A    between atoms: C_2  and  N_3
REMARK    3  A    between atoms: C_5  and  C_6
REMARK    4  A    between atoms: C_7  and  C_8
REMARK    5  A    between atoms: C_8  and  N_9
REMARK    6  A    between atoms: C_19  and  C_20
REMARK                            x       y       z     vdW  Elec       q    Type
REMARK                         _______ _______ _______ _____ _____    ______ ____
ROOT
ATOM      1  C   UNL     1       2.427   6.271  20.399  0.00  0.00    +0.000 C 
ENDROOT
BRANCH   1   2
ATOM      2  N   UNL     1       1.673   5.101  19.919  0.00  0.00    +0.000 NA
ATOM      3  C   UNL     1       1.473   4.008  20.877  0.00  0.00    +0.000 C 
ATOM      4  C   UNL     1       2.628   3.016  21.053  0.00  0.00    +0.000 C 
ATOM      5  C   UNL     1       3.198   2.504  19.737  0.00  0.00    +0.000 C 
ATOM      6  C   UNL     1       3.444   3.614  18.718  0.00  0.00    +0.000 C 
ATOM      7  C   UNL     1       2.222   4.578  18.644  0.00  0.00    +0.000 C 
ATOM      8  O   UNL     1       3.622   2.972  17.447  0.00  0.00    +0.000 OA
ATOM      9  C   UNL     1       4.760   3.558  16.838  0.00  0.00    +0.000 C 
ATOM     10  C   UNL     1       5.447   4.378  17.899  0.00  0.00    +0.000 C 
ATOM     11  O   UNL     1       4.629   4.338  19.063  0.00  0.00    +0.000 OA
ENDBRANCH   1   2
BRANCH   1  16
ATOM     12  N   UNL     1       1.024   9.469  19.224  0.00  0.00    +0.000 N 
ATOM     13  N   UNL     1       1.816   9.224  18.168  0.00  0.00    +0.000 NA
ATOM     14  C   UNL     1       2.438   8.079  18.470  0.00  0.00    +0.000 A 
ATOM     15  C   UNL     1       3.469   7.557  17.545  0.00  0.00    +0.000 C 
ATOM     16  C   UNL     1       2.006   7.553  19.721  0.00  0.00    +0.000 A 
ATOM     17  C   UNL     1       1.169   8.539  20.224  0.00  0.00    +0.000 A 
ATOM     18  C   UNL     1       0.490   8.631  21.546  0.00  0.00    +0.000 C 
BRANCH  12  20
ATOM     19  C   UNL     1      -1.061  10.433  18.202  0.00  0.00    +0.000 C 
ATOM     20  C   UNL     1       0.100  10.592  19.176  0.00  0.00    +0.000 C 
ENDBRANCH  12  20
ENDBRANCH   1  16
TORSDOF 3
ENDMDL
MODEL 7
REMARK VINA RESULT:      -6.4      1.248      2.583
REMARK  Name = 
REMARK  6 active torsions:
REMARK  status: ('A' for Active; 'I' for Inactive)
REMARK    1  A    between atoms: C_1  and  C_2
REMARK    2  A    between atoms: C_2  and  N_3
REMARK    3  A    between atoms: C_5  and  C_6
REMARK    4  A    between atoms: C_7  and  C_8
REMARK    5  A    between atoms: C_8  and  N_9
REMARK    6  A    between atoms: C_19  and  C_20
REMARK                            x       y       z     vdW  Elec       q    Type
REMARK                         _______ _______ _______ _____ _____    ______ ____
ROOT
ATOM      1  C   UNL     1       4.836   4.408  17.625  0.00  0.00    +0.000 C 
ENDROOT
BRANCH   1   2
ATOM      2  N   UNL     1       3.506   5.013  17.441  0.00  0.00    +0.000 NA
ATOM      3  C   UNL     1       3.377   6.436  17.777  0.00  0.00    +0.000 C 
ATOM      4  C   UNL     1       3.178   6.788  19.254  0.00  0.00    +0.000 C 
ATOM      5  C   UNL     1       2.103   5.956  19.941  0.00  0.00    +0.000 C 
ATOM      6  C   UNL     1       2.214   4.464  19.636  0.00  0.00    +0.000 C 
ATOM      7  C   UNL     1       2.445   4.225  18.114  0.00  0.00    +0.000 C 
ATOM      8  O   UNL     1       0.967   3.871  20.028  0.00  0.00    +0.000 OA
ATOM      9  C   UNL     1       1.274   2.703  20.771  0.00  0.00    +0.000 C 
ATOM     10  C   UNL     1       2.750   2.753  21.070  0.00  0.00    +0.000 C 
ATOM     11  O   UNL     1       3.281   3.890  20.397  0.00  0.00    +0.000 OA
ENDBRANCH   1   2
BRANCH   1  16
ATOM     12  N   UNL     1       6.927   5.043  14.659  0.00  0.00    +0.000 N 
ATOM     13  N   UNL     1       7.594   5.832  15.518  0.00  0.00    +0.000 NA
ATOM     14  C   UNL     1       6.913   5.732  16.665  0.00  0.00    +0.000 A 
ATOM     15  C   UNL     1       7.332   6.557  17.821  0.00  0.00    +0.000 C 
ATOM     16  C   UNL     1       5.818   4.829  16.558  0.00  0.00    +0.000 A 
ATOM     17  C   UNL     1       5.799   4.488  15.213  0.00  0.00    +0.000 A 
ATOM     18  C   UNL     1       4.823   3.662  14.451  0.00  0.00    +0.000 C 
BRANCH  12  20
ATOM     19  C   UNL     1       8.478   5.863  12.859  0.00  0.00    +0.000 C 
ATOM     20  C   UNL     1       7.471   4.820  13.328  0.00  0.00    +0.000 C 
ENDBRANCH  12  20
ENDBRANCH   1  16
TORSDOF 3
ENDMDL
MODEL 8
REMARK VINA RESULT:      -6.3      2.891      6.004
REMARK  Name = 
REMARK  6 active torsions:
REMARK  status: ('A' for Active; 'I' for Inactive)
REMARK    1  A    between atoms: C_1  and  C_2
REMARK    2  A    between atoms: C_2  and  N_3
REMARK    3  A    between atoms: C_5  and  C_6
REMARK    4  A    between atoms: C_7  and  C_8
REMARK    5  A    between atoms: C_8  and  N_9
REMARK    6  A    between atoms: C_19  and  C_20
REMARK                            x       y       z     vdW  Elec       q    Type
REMARK                         _______ _______ _______ _____ _____    ______ ____
ROOT
ATOM      1  C   UNL     1       3.638   6.184  17.823  0.00  0.00    +0.000 C 
ENDROOT
BRANCH   1   2
ATOM      2  N   UNL     1       4.449   5.049  18.293  0.00  0.00    +0.000 NA
ATOM      3  C   UNL     1       5.590   5.370  19.160  0.00  0.00    +0.000 C 
ATOM      4  C   UNL     1       6.880   5.826  18.471  0.00  0.00    +0.000 C 
ATOM      5  C   UNL     1       7.299   4.936  17.308  0.00  0.00    +0.000 C 
ATOM      6  C   UNL     1       6.144   4.597  16.368  0.00  0.00    +0.000 C 
ATOM      7  C   UNL     1       4.878   4.178  17.174  0.00  0.00    +0.000 C 
ATOM      8  O   UNL     1       6.582   3.495  15.560  0.00  0.00    +0.000 OA
ATOM      9  C   UNL     1       6.244   3.798  14.217  0.00  0.00    +0.000 C 
ATOM     10  C   UNL     1       5.844   5.250  14.188  0.00  0.00    +0.000 C 
ATOM     11  O   UNL     1       5.851   5.720  15.531  0.00  0.00    +0.000 OA
ENDBRANCH   1   2
BRANCH   1  16
ATOM     12  N   UNL     1       1.505   8.087  20.149  0.00  0.00    +0.000 N 
ATOM     13  N   UNL     1       1.499   6.921  20.815  0.00  0.00    +0.000 NA
ATOM     14  C   UNL     1       2.223   6.094  20.055  0.00  0.00    +0.000 A 
ATOM     15  C   UNL     1       2.349   4.674  20.459  0.00  0.00    +0.000 C 
ATOM     16  C   UNL     1       2.745   6.748  18.903  0.00  0.00    +0.000 A 
ATOM     17  C   UNL     1       2.167   8.008  18.948  0.00  0.00    +0.000 A 
ATOM     18  C   UNL     1       2.232   9.124  17.963  0.00  0.00    +0.000 C 
BRANCH  12  20
ATOM     19  C   UNL     1       0.737   9.188  22.274  0.00  0.00    +0.000 C 
ATOM     20  C   UNL     1       0.902   9.261  20.761  0.00  0.00    +0.000 C 
ENDBRANCH  12  20
ENDBRANCH   1  16
TORSDOF 3
ENDMDL
MODEL 9
REMARK VINA RESULT:      -6.3      1.435      2.561
REMARK  Name = 
REMARK  6 active torsions:
REMARK  status: ('A' for Active; 'I' for Inactive)
REMARK    1  A    between atoms: C_1  and  C_2
REMARK    2  A    between atoms: C_2  and  N_3
REMARK    3  A    between atoms: C_5  and  C_6
REMARK    4  A    between atoms: C_7  and  C_8
REMARK    5  A    between atoms: C_8  and  N_9
REMARK    6  A    between atoms: C_19  and  C_20
REMARK                            x       y       z     vdW  Elec       q    Type
REMARK                         _______ _______ _______ _____ _____    ______ ____
ROOT
ATOM      1  C   UNL     1       4.366   5.818  18.628  0.00  0.00    +0.000 C 
ENDROOT
BRANCH   1   2
ATOM      2  N   UNL     1       2.949   6.124  18.370  0.00  0.00    +0.000 NA
ATOM      3  C   UNL     1       2.448   7.404  18.885  0.00  0.00    +0.000 C 
ATOM      4  C   UNL     1       2.044   7.450  20.361  0.00  0.00    +0.000 C 
ATOM      5  C   UNL     1       1.150   6.293  20.787  0.00  0.00    +0.000 C 
ATOM      6  C   UNL     1       1.649   4.938  20.291  0.00  0.00    +0.000 C 
ATOM      7  C   UNL     1       2.060   5.014  18.789  0.00  0.00    +0.000 C 
ATOM      8  O   UNL     1       0.557   4.018  20.440  0.00  0.00    +0.000 OA
ATOM      9  C   UNL     1       1.076   2.845  21.042  0.00  0.00    +0.000 C 
ATOM     10  C   UNL     1       2.463   3.181  21.524  0.00  0.00    +0.000 C 
ATOM     11  O   UNL     1       2.756   4.504  21.088  0.00  0.00    +0.000 OA
ENDBRANCH   1   2
BRANCH   1  16
ATOM     12  N   UNL     1       6.295   4.705  15.693  0.00  0.00    +0.000 N 
ATOM     13  N   UNL     1       5.578   3.583  15.870  0.00  0.00    +0.000 NA
ATOM     14  C   UNL     1       4.833   3.827  16.953  0.00  0.00    +0.000 A 
ATOM     15  C   UNL     1       3.973   2.746  17.489  0.00  0.00    +0.000 C 
ATOM     16  C   UNL     1       5.037   5.143  17.456  0.00  0.00    +0.000 A 
ATOM     17  C   UNL     1       6.071   5.639  16.675  0.00  0.00    +0.000 A 
ATOM     18  C   UNL     1       6.813   6.926  16.779  0.00  0.00    +0.000 C 
BRANCH  12  20
ATOM     19  C   UNL     1       6.626   4.111  13.273  0.00  0.00    +0.000 C 
ATOM     20  C   UNL     1       7.137   4.833  14.514  0.00  0.00    +0.000 C 
ENDBRANCH  12  20
ENDBRANCH   1  16
TORSDOF 3
ENDMDL
