MODEL 1
REMARK VINA RESULT:      -7.8      0.000      0.000
REMARK  Name = 
REMARK  8 active torsions:
REMARK  status: ('A' for Active; 'I' for Inactive)
REMARK    1  A    between atoms: C_1  and  C_2
REMARK    2  A    between atoms: C_2  and  C_3
REMARK    3  A    between atoms: C_2  and  C_4
REMARK    4  A    between atoms: C_9  and  N_10
REMARK    5  A    between atoms: N_10  and  C_11
REMARK    6  A    between atoms: C_11  and  C_12
REMARK    7  A    between atoms: N_14  and  N_15
REMARK    8  A    between atoms: C_16  and  C_17
REMARK                            x       y       z     vdW  Elec       q    Type
REMARK                         _______ _______ _______ _____ _____    ______ ____
ROOT
ATOM      1  C   UNL     1       6.634   4.599  17.951  0.00  0.00    +0.000 C 
ENDROOT
BRANCH   1   2
ATOM      2  C   UNL     1       7.480   5.667  18.639  0.00  0.00    +0.000 C 
ATOM      3  O   UNL     1       8.046   5.479  19.719  0.00  0.00    +0.000 OA
ATOM      4  N   UNL     1       7.543   6.855  17.898  0.00  0.00    +0.000 N 
ATOM      5  H   UNL     1       7.027   6.941  17.025  0.00  0.00    +0.000 HD
BRANCH   4   6
ATOM      6  N   UNL     1       8.287   7.896  18.346  0.00  0.00    +0.000 NA
ATOM      7  C   UNL     1       7.986   9.070  17.898  0.00  0.00    +0.000 C 
BRANCH   7   8
ATOM      8  C   UNL     1       8.724  10.255  18.371  0.00  0.00    +0.000 A 
ATOM      9  C   UNL     1       8.664  11.445  17.648  0.00  0.00    +0.000 A 
ATOM     10  C   UNL     1       9.415  12.509  18.100  0.00  0.00    +0.000 A 
ATOM     11  N   UNL     1      10.203  12.456  19.197  0.00  0.00    +0.000 NA
ATOM     12  C   UNL     1      10.240  11.286  19.873  0.00  0.00    +0.000 A 
ATOM     13  C   UNL     1       9.517  10.164  19.511  0.00  0.00    +0.000 A 
ENDBRANCH   7   8
ENDBRANCH   4   6
ENDBRANCH   1   2
BRANCH   1  14
ATOM     14  N   UNL     1       5.639   3.990  18.879  0.00  0.00    +0.000 N 
ATOM     15  H   UNL     1       6.026   3.164  19.325  0.00  0.00    +0.000 HD
BRANCH  14  21
ATOM     16  C   UNL     1       3.343   4.844  18.378  0.00  0.00    +0.000 A 
ATOM     17  C   UNL     1       2.005   4.533  18.002  0.00  0.00    +0.000 A 
ATOM     18  C   UNL     1       1.600   3.244  17.698  0.00  0.00    +0.000 A 
ATOM     19  C   UNL     1       2.530   2.215  17.753  0.00  0.00    +0.000 A 
ATOM     20  C   UNL     1       3.843   2.502  18.119  0.00  0.00    +0.000 A 
ATOM     21  C   UNL     1       4.299   3.778  18.445  0.00  0.00    +0.000 A 
BRANCH  16  23
ATOM     22  C   UNL     1       3.897   7.204  17.513  0.00  0.00    +0.000 C 
ATOM     23  C   UNL     1       3.623   6.302  18.733  0.00  0.00    +0.000 C 
ATOM     24  C   UNL     1       2.478   6.855  19.594  0.00  0.00    +0.000 C 
ENDBRANCH  16  23
ENDBRANCH  14  21
ENDBRANCH   1  14
TORSDOF 6
ENDMDL
MODEL 2
REMARK VINA RESULT:      -7.6      1.430      1.676
REMARK  Name = 
REMARK  8 active torsions:
REMARK  status: ('A' for Active; 'I' for Inactive)
REMARK    1  A    between atoms: C_1  and  C_2
REMARK    2  A    between atoms: C_2  and  C_3
REMARK    3  A    between atoms: C_2  and  C_4
REMARK    4  A    between atoms: C_9  and  N_10
REMARK    5  A    between atoms: N_10  and  C_11
REMARK    6  A    between atoms: C_11  and  C_12
REMARK    7  A    between atoms: N_14  and  N_15
REMARK    8  A    between atoms: C_16  and  C_17
REMARK                            x       y       z     vdW  Elec       q    Type
REMARK                         _______ _______ _______ _____ _____    ______ ____
ROOT
ATOM      1  C   UNL     1       6.472   6.129  16.858  0.00  0.00    +0.000 C 
ENDROOT
BRANCH   1   2
ATOM      2  C   UNL     1       7.465   6.783  17.814  0.00  0.00    +0.000 C 
ATOM      3  O   UNL     1       8.031   6.163  18.719  0.00  0.00    +0.000 OA
ATOM      4  N   UNL     1       7.662   8.142  17.531  0.00  0.00    +0.000 N 
ATOM      5  H   UNL     1       7.139   8.588  16.781  0.00  0.00    +0.000 HD
BRANCH   4   6
ATOM      6  N   UNL     1       8.544   8.867  18.260  0.00  0.00    +0.000 NA
ATOM      7  C   UNL     1       8.701  10.107  17.931  0.00  0.00    +0.000 C 
BRANCH   7   8
ATOM      8  C   UNL     1       9.614  10.969  18.704  0.00  0.00    +0.000 A 
ATOM      9  C   UNL     1      10.649  11.641  18.057  0.00  0.00    +0.000 A 
ATOM     10  C   UNL     1      11.510  12.392  18.830  0.00  0.00    +0.000 A 
ATOM     11  N   UNL     1      11.404  12.503  20.173  0.00  0.00    +0.000 NA
ATOM     12  C   UNL     1      10.390  11.836  20.769  0.00  0.00    +0.000 A 
ATOM     13  C   UNL     1       9.467  11.067  20.084  0.00  0.00    +0.000 A 
ENDBRANCH   7   8
ENDBRANCH   4   6
ENDBRANCH   1   2
BRANCH   1  14
ATOM     14  N   UNL     1       5.086   6.642  17.055  0.00  0.00    +0.000 N 
ATOM     15  H   UNL     1       5.085   7.429  17.697  0.00  0.00    +0.000 HD
BRANCH  14  21
ATOM     16  C   UNL     1       2.873   6.117  18.092  0.00  0.00    +0.000 A 
ATOM     17  C   UNL     1       1.891   5.128  18.383  0.00  0.00    +0.000 A 
ATOM     18  C   UNL     1       2.009   3.816  17.954  0.00  0.00    +0.000 A 
ATOM     19  C   UNL     1       3.120   3.449  17.207  0.00  0.00    +0.000 A 
ATOM     20  C   UNL     1       4.090   4.405  16.915  0.00  0.00    +0.000 A 
ATOM     21  C   UNL     1       4.025   5.734  17.331  0.00  0.00    +0.000 A 
BRANCH  16  23
ATOM     22  C   UNL     1       1.802   8.435  17.763  0.00  0.00    +0.000 C 
ATOM     23  C   UNL     1       2.626   7.505  18.676  0.00  0.00    +0.000 C 
ATOM     24  C   UNL     1       1.987   7.376  20.067  0.00  0.00    +0.000 C 
ENDBRANCH  16  23
ENDBRANCH  14  21
ENDBRANCH   1  14
TORSDOF 6
ENDMDL
MODEL 3
REMARK VINA RESULT:      -7.3      1.870      2.750
REMARK  Name = 
REMARK  8 active torsions:
REMARK  status: ('A' for Active; 'I' for Inactive)
REMARK    1  A    between atoms: C_1  and  C_2
REMARK    2  A    between atoms: C_2  and  C_3
REMARK    3  A    between atoms: C_2  and  C_4
REMARK    4  A    between atoms: C_9  and  N_10
REMARK    5  A    between atoms: N_10  and  C_11
REMARK    6  A    between atoms: C_11  and  C_12
REMARK    7  A    between atoms: N_14  and  N_15
REMARK    8  A    between atoms: C_16  and  C_17
REMARK                            x       y       z     vdW  Elec       q    Type
REMARK                         _______ _______ _______ _____ _____    ______ ____
ROOT
ATOM      1  C   UNL     1       7.709   5.938  19.082  0.00  0.00    +0.000 C 
ENDROOT
BRANCH   1   2
ATOM      2  C   UNL     1       7.975   7.208  18.278  0.00  0.00    +0.000 C 
ATOM      3  O   UNL     1       7.654   7.329  17.092  0.00  0.00    +0.000 OA
ATOM      4  N   UNL     1       8.600   8.202  19.044  0.00  0.00    +0.000 N 
ATOM      5  H   UNL     1       8.855   8.017  20.011  0.00  0.00    +0.000 HD
BRANCH   4   6
ATOM      6  N   UNL     1       8.873   9.411  18.495  0.00  0.00    +0.000 NA
ATOM      7  C   UNL     1       9.335  10.324  19.283  0.00  0.00    +0.000 C 
BRANCH   7   8
ATOM      8  C   UNL     1       9.693  11.651  18.750  0.00  0.00    +0.000 A 
ATOM      9  C   UNL     1      10.587  11.754  17.685  0.00  0.00    +0.000 A 
ATOM     10  C   UNL     1      10.934  13.018  17.257  0.00  0.00    +0.000 A 
ATOM     11  N   UNL     1      10.458  14.153  17.816  0.00  0.00    +0.000 NA
ATOM     12  C   UNL     1       9.595  14.017  18.848  0.00  0.00    +0.000 A 
ATOM     13  C   UNL     1       9.174  12.797  19.345  0.00  0.00    +0.000 A 
ENDBRANCH   7   8
ENDBRANCH   4   6
ENDBRANCH   1   2
BRANCH   1  14
ATOM     14  N   UNL     1       7.373   4.781  18.205  0.00  0.00    +0.000 N 
ATOM     15  H   UNL     1       7.832   4.872  17.303  0.00  0.00    +0.000 HD
BRANCH  14  21
ATOM     16  C   UNL     1       5.331   4.403  16.813  0.00  0.00    +0.000 A 
ATOM     17  C   UNL     1       3.956   4.034  16.779  0.00  0.00    +0.000 A 
ATOM     18  C   UNL     1       3.267   3.634  17.912  0.00  0.00    +0.000 A 
ATOM     19  C   UNL     1       3.938   3.584  19.126  0.00  0.00    +0.000 A 
ATOM     20  C   UNL     1       5.283   3.943  19.176  0.00  0.00    +0.000 A 
ATOM     21  C   UNL     1       6.019   4.362  18.069  0.00  0.00    +0.000 A 
BRANCH  16  23
ATOM     22  C   UNL     1       5.885   3.815  14.369  0.00  0.00    +0.000 C 
ATOM     23  C   UNL     1       5.937   4.870  15.492  0.00  0.00    +0.000 C 
ATOM     24  C   UNL     1       5.278   6.187  15.056  0.00  0.00    +0.000 C 
ENDBRANCH  16  23
ENDBRANCH  14  21
ENDBRANCH   1  14
TORSDOF 6
ENDMDL
MODEL 4
REMARK VINA RESULT:      -7.2      1.272      2.741
REMARK  Name = 
REMARK  8 active torsions:
REMARK  status: ('A' for Active; 'I' for Inactive)
REMARK    1  A    between atoms: C_1  and  C_2
REMARK    2  A    between atoms: C_2  and  C_3
REMARK    3  A    between atoms: C_2  and  C_4
REMARK    4  A    between atoms: C_9  and  N_10
REMARK    5  A    between atoms: N_10  and  C_11
REMARK    6  A    between atoms: C_11  and  C_12
REMARK    7  A    between atoms: N_14  and  N_15
REMARK    8  A    between atoms: C_16  and  C_17
REMARK                            x       y       z     vdW  Elec       q    Type
REMARK                         _______ _______ _______ _____ _____    ______ ____
ROOT
ATOM      1  C   UNL     1       6.538   6.145  16.587  0.00  0.00    +0.000 C 
ENDROOT
BRANCH   1   2
ATOM      2  C   UNL     1       7.450   6.761  17.645  0.00  0.00    +0.000 C 
ATOM      3  O   UNL     1       7.927   6.111  18.579  0.00  0.00    +0.000 OA
ATOM      4  N   UNL     1       7.684   8.124  17.417  0.00  0.00    +0.000 N 
ATOM      5  H   UNL     1       7.233   8.597  16.637  0.00  0.00    +0.000 HD
BRANCH   4   6
ATOM      6  N   UNL     1       8.505   8.819  18.241  0.00  0.00    +0.000 NA
ATOM      7  C   UNL     1       8.723  10.058  17.947  0.00  0.00    +0.000 C 
BRANCH   7   8
ATOM      8  C   UNL     1       9.574  10.888  18.819  0.00  0.00    +0.000 A 
ATOM      9  C   UNL     1       9.311  10.955  20.186  0.00  0.00    +0.000 A 
ATOM     10  C   UNL     1      10.099  11.788  20.952  0.00  0.00    +0.000 A 
ATOM     11  N   UNL     1      11.103  12.539  20.448  0.00  0.00    +0.000 NA
ATOM     12  C   UNL     1      11.330  12.452  19.118  0.00  0.00    +0.000 A 
ATOM     13  C   UNL     1      10.606  11.640  18.265  0.00  0.00    +0.000 A 
ENDBRANCH   7   8
ENDBRANCH   4   6
ENDBRANCH   1   2
BRANCH   1  14
ATOM     14  N   UNL     1       5.668   5.075  17.154  0.00  0.00    +0.000 N 
ATOM     15  H   UNL     1       5.605   4.290  16.513  0.00  0.00    +0.000 HD
BRANCH  14  21
ATOM     16  C   UNL     1       3.520   4.417  18.251  0.00  0.00    +0.000 A 
ATOM     17  C   UNL     1       2.239   4.827  18.719  0.00  0.00    +0.000 A 
ATOM     18  C   UNL     1       1.819   6.145  18.670  0.00  0.00    +0.000 A 
ATOM     19  C   UNL     1       2.676   7.108  18.153  0.00  0.00    +0.000 A 
ATOM     20  C   UNL     1       3.932   6.723  17.691  0.00  0.00    +0.000 A 
ATOM     21  C   UNL     1       4.399   5.410  17.707  0.00  0.00    +0.000 A 
BRANCH  16  23
ATOM     22  C   UNL     1       4.238   2.433  19.724  0.00  0.00    +0.000 C 
ATOM     23  C   UNL     1       3.819   2.922  18.324  0.00  0.00    +0.000 C 
ATOM     24  C   UNL     1       2.618   2.127  17.789  0.00  0.00    +0.000 C 
ENDBRANCH  16  23
ENDBRANCH  14  21
ENDBRANCH   1  14
TORSDOF 6
ENDMDL
MODEL 5
REMARK VINA RESULT:      -7.1      1.354      1.535
REMARK  Name = 
REMARK  8 active torsions:
REMARK  status: ('A' for Active; 'I' for Inactive)
REMARK    1  A    between atoms: C_1  and  C_2
REMARK    2  A    between atoms: C_2  and  C_3
REMARK    3  A    between atoms: C_2  and  C_4
REMARK    4  A    between atoms: C_9  and  N_10
REMARK    5  A    between atoms: N_10  and  C_11
REMARK    6  A    between atoms: C_11  and  C_12
REMARK    7  A    between atoms: N_14  and  N_15
REMARK    8  A    between atoms: C_16  and  C_17
REMARK                            x       y       z     vdW  Elec       q    Type
REMARK                         _______ _______ _______ _____ _____    ______ ____
ROOT
ATOM      1  C   UNL     1       6.904   5.342  18.194  0.00  0.00    +0.000 C 
ENDROOT
BRANCH   1   2
ATOM      2  C   UNL     1       7.503   6.563  17.502  0.00  0.00    +0.000 C 
ATOM      3  O   UNL     1       7.626   6.645  16.277  0.00  0.00    +0.000 OA
ATOM      4  N   UNL     1       7.871   7.563  18.413  0.00  0.00    +0.000 N 
ATOM      5  H   UNL     1       7.760   7.411  19.413  0.00  0.00    +0.000 HD
BRANCH   4   6
ATOM      6  N   UNL     1       8.384   8.735  17.964  0.00  0.00    +0.000 NA
ATOM      7  C   UNL     1       8.836   9.558  18.852  0.00  0.00    +0.000 C 
BRANCH   7   8
ATOM      8  C   UNL     1       9.445  10.834  18.437  0.00  0.00    +0.000 A 
ATOM      9  C   UNL     1       8.650  11.837  17.885  0.00  0.00    +0.000 A 
ATOM     10  C   UNL     1       9.274  12.991  17.461  0.00  0.00    +0.000 A 
ATOM     11  N   UNL     1      10.607  13.196  17.548  0.00  0.00    +0.000 NA
ATOM     12  C   UNL     1      11.349  12.202  18.087  0.00  0.00    +0.000 A 
ATOM     13  C   UNL     1      10.821  11.012  18.552  0.00  0.00    +0.000 A 
ENDBRANCH   7   8
ENDBRANCH   4   6
ENDBRANCH   1   2
BRANCH   1  14
ATOM     14  N   UNL     1       5.555   5.626  18.761  0.00  0.00    +0.000 N 
ATOM     15  H   UNL     1       5.598   5.679  19.774  0.00  0.00    +0.000 HD
BRANCH  14  21
ATOM     16  C   UNL     1       3.091   5.205  18.724  0.00  0.00    +0.000 A 
ATOM     17  C   UNL     1       2.025   4.365  18.293  0.00  0.00    +0.000 A 
ATOM     18  C   UNL     1       2.234   3.253  17.494  0.00  0.00    +0.000 A 
ATOM     19  C   UNL     1       3.527   2.945  17.092  0.00  0.00    +0.000 A 
ATOM     20  C   UNL     1       4.580   3.757  17.506  0.00  0.00    +0.000 A 
ATOM     21  C   UNL     1       4.426   4.880  18.317  0.00  0.00    +0.000 A 
BRANCH  16  23
ATOM     22  C   UNL     1       2.306   7.651  18.896  0.00  0.00    +0.000 C 
ATOM     23  C   UNL     1       2.708   6.363  19.642  0.00  0.00    +0.000 C 
ATOM     24  C   UNL     1       1.607   5.912  20.614  0.00  0.00    +0.000 C 
ENDBRANCH  16  23
ENDBRANCH  14  21
ENDBRANCH   1  14
TORSDOF 6
ENDMDL
MODEL 6
REMARK VINA RESULT:      -7.0      4.078      6.823
REMARK  Name = 
REMARK  8 active torsions:
REMARK  status: ('A' for Active; 'I' for Inactive)
REMARK    1  A    between atoms: C_1  and  C_2
REMARK    2  A    between atoms: C_2  and  C_3
REMARK    3  A    between atoms: C_2  and  C_4
REMARK    4  A    between atoms: C_9  and  N_10
REMARK    5  A    between atoms: N_10  and  C_11
REMARK    6  A    between atoms: C_11  and  C_12
REMARK    7  A    between atoms: N_14  and  N_15
REMARK    8  A    between atoms: C_16  and  C_17
REMARK                            x       y       z     vdW  Elec       q    Type
REMARK                         _______ _______ _______ _____ _____    ______ ____
ROOT
ATOM      1  C   UNL     1       3.246   4.242  19.353  0.00  0.00    +0.000 C 
ENDROOT
BRANCH   1   2
ATOM      2  C   UNL     1       2.174   4.992  20.138  0.00  0.00    +0.000 C 
ATOM      3  O   UNL     1       1.211   4.427  20.664  0.00  0.00    +0.000 OA
ATOM      4  N   UNL     1       2.425   6.370  20.199  0.00  0.00    +0.000 N 
ATOM      5  H   UNL     1       3.230   6.765  19.718  0.00  0.00    +0.000 HD
BRANCH   4   6
ATOM      6  N   UNL     1       1.590   7.182  20.893  0.00  0.00    +0.000 NA
ATOM      7  C   UNL     1       1.476   8.400  20.479  0.00  0.00    +0.000 C 
BRANCH   7   8
ATOM      8  C   UNL     1       0.556   9.330  21.159  0.00  0.00    +0.000 A 
ATOM      9  C   UNL     1       0.130  10.487  20.507  0.00  0.00    +0.000 A 
ATOM     10  C   UNL     1      -0.685  11.353  21.204  0.00  0.00    +0.000 A 
ATOM     11  N   UNL     1      -1.086  11.142  22.477  0.00  0.00    +0.000 NA
ATOM     12  C   UNL     1      -0.653  10.012  23.080  0.00  0.00    +0.000 A 
ATOM     13  C   UNL     1       0.157   9.073  22.467  0.00  0.00    +0.000 A 
ENDBRANCH   7   8
ENDBRANCH   4   6
ENDBRANCH   1   2
BRANCH   1  14
ATOM     14  N   UNL     1       4.388   5.125  18.982  0.00  0.00    +0.000 N 
ATOM     15  H   UNL     1       4.154   6.100  19.148  0.00  0.00    +0.000 HD
BRANCH  14  21
ATOM     16  C   UNL     1       6.289   5.595  17.427  0.00  0.00    +0.000 A 
ATOM     17  C   UNL     1       6.846   5.419  16.128  0.00  0.00    +0.000 A 
ATOM     18  C   UNL     1       6.235   4.643  15.158  0.00  0.00    +0.000 A 
ATOM     19  C   UNL     1       5.038   4.006  15.459  0.00  0.00    +0.000 A 
ATOM     20  C   UNL     1       4.480   4.169  16.725  0.00  0.00    +0.000 A 
ATOM     21  C   UNL     1       5.048   4.946  17.733  0.00  0.00    +0.000 A 
BRANCH  16  23
ATOM     22  C   UNL     1       8.055   5.794  19.289  0.00  0.00    +0.000 C 
ATOM     23  C   UNL     1       7.053   6.521  18.370  0.00  0.00    +0.000 C 
ATOM     24  C   UNL     1       7.740   7.632  17.561  0.00  0.00    +0.000 C 
ENDBRANCH  16  23
ENDBRANCH  14  21
ENDBRANCH   1  14
TORSDOF 6
ENDMDL
MODEL 7
REMARK VINA RESULT:      -7.0      4.208      6.989
REMARK  Name = 
REMARK  8 active torsions:
REMARK  status: ('A' for Active; 'I' for Inactive)
REMARK    1  A    between atoms: C_1  and  C_2
REMARK    2  A    between atoms: C_2  and  C_3
REMARK    3  A    between atoms: C_2  and  C_4
REMARK    4  A    between atoms: C_9  and  N_10
REMARK    5  A    between atoms: N_10  and  C_11
REMARK    6  A    between atoms: C_11  and  C_12
REMARK    7  A    between atoms: N_14  and  N_15
REMARK    8  A    between atoms: C_16  and  C_17
REMARK                            x       y       z     vdW  Elec       q    Type
REMARK                         _______ _______ _______ _____ _____    ______ ____
ROOT
ATOM      1  C   UNL     1       3.274   4.617  19.328  0.00  0.00    +0.000 C 
ENDROOT
BRANCH   1   2
ATOM      2  C   UNL     1       2.195   5.314  20.152  0.00  0.00    +0.000 C 
ATOM      3  O   UNL     1       1.296   4.700  20.734  0.00  0.00    +0.000 OA
ATOM      4  N   UNL     1       2.360   6.706  20.178  0.00  0.00    +0.000 N 
ATOM      5  H   UNL     1       3.115   7.141  19.651  0.00  0.00    +0.000 HD
BRANCH   4   6
ATOM      6  N   UNL     1       1.510   7.477  20.898  0.00  0.00    +0.000 NA
ATOM      7  C   UNL     1       1.421   8.723  20.566  0.00  0.00    +0.000 C 
BRANCH   7   8
ATOM      8  C   UNL     1       0.487   9.614  21.277  0.00  0.00    +0.000 A 
ATOM      9  C   UNL     1       0.136   9.341  22.598  0.00  0.00    +0.000 A 
ATOM     10  C   UNL     1      -0.782  10.172  23.204  0.00  0.00    +0.000 A 
ATOM     11  N   UNL     1      -1.359  11.226  22.585  0.00  0.00    +0.000 NA
ATOM     12  C   UNL     1      -0.998  11.462  21.304  0.00  0.00    +0.000 A 
ATOM     13  C   UNL     1      -0.078  10.697  20.610  0.00  0.00    +0.000 A 
ENDBRANCH   7   8
ENDBRANCH   4   6
ENDBRANCH   1   2
BRANCH   1  14
ATOM     14  N   UNL     1       4.112   5.589  18.568  0.00  0.00    +0.000 N 
ATOM     15  H   UNL     1       3.558   6.391  18.283  0.00  0.00    +0.000 HD
BRANCH  14  21
ATOM     16  C   UNL     1       6.325   5.541  17.407  0.00  0.00    +0.000 A 
ATOM     17  C   UNL     1       7.081   5.092  16.286  0.00  0.00    +0.000 A 
ATOM     18  C   UNL     1       6.542   4.273  15.309  0.00  0.00    +0.000 A 
ATOM     19  C   UNL     1       5.219   3.865  15.424  0.00  0.00    +0.000 A 
ATOM     20  C   UNL     1       4.467   4.297  16.514  0.00  0.00    +0.000 A 
ATOM     21  C   UNL     1       4.957   5.129  17.518  0.00  0.00    +0.000 A 
BRANCH  16  23
ATOM     22  C   UNL     1       8.044   5.775  19.308  0.00  0.00    +0.000 C 
ATOM     23  C   UNL     1       7.043   6.481  18.372  0.00  0.00    +0.000 C 
ATOM     24  C   UNL     1       7.715   7.616  17.586  0.00  0.00    +0.000 C 
ENDBRANCH  16  23
ENDBRANCH  14  21
ENDBRANCH   1  14
TORSDOF 6
ENDMDL
MODEL 8
REMARK VINA RESULT:      -7.0      4.113      6.815
REMARK  Name = 
REMARK  8 active torsions:
REMARK  status: ('A' for Active; 'I' for Inactive)
REMARK    1  A    between atoms: C_1  and  C_2
REMARK    2  A    between atoms: C_2  and  C_3
REMARK    3  A    between atoms: C_2  and  C_4
REMARK    4  A    between atoms: C_9  and  N_10
REMARK    5  A    between atoms: N_10  and  C_11
REMARK    6  A    between atoms: C_11  and  C_12
REMARK    7  A    between atoms: N_14  and  N_15
REMARK    8  A    between atoms: C_16  and  C_17
REMARK                            x       y       z     vdW  Elec       q    Type
REMARK                         _______ _______ _______ _____ _____    ______ ____
ROOT
ATOM      1  C   UNL     1       3.043   5.042  18.512  0.00  0.00    +0.000 C 
ENDROOT
BRANCH   1   2
ATOM      2  C   UNL     1       2.714   6.493  18.850  0.00  0.00    +0.000 C 
ATOM      3  O   UNL     1       2.802   7.409  18.028  0.00  0.00    +0.000 OA
ATOM      4  N   UNL     1       2.293   6.648  20.178  0.00  0.00    +0.000 N 
ATOM      5  H   UNL     1       2.270   5.846  20.804  0.00  0.00    +0.000 HD
BRANCH   4   6
ATOM      6  N   UNL     1       1.922   7.869  20.635  0.00  0.00    +0.000 NA
ATOM      7  C   UNL     1       0.694   8.008  21.011  0.00  0.00    +0.000 C 
BRANCH   7   8
ATOM      8  C   UNL     1       0.229   9.296  21.558  0.00  0.00    +0.000 A 
ATOM      9  C   UNL     1       0.554  10.485  20.907  0.00  0.00    +0.000 A 
ATOM     10  C   UNL     1       0.143  11.667  21.485  0.00  0.00    +0.000 A 
ATOM     11  N   UNL     1      -0.550  11.731  22.645  0.00  0.00    +0.000 NA
ATOM     12  C   UNL     1      -0.847  10.559  23.250  0.00  0.00    +0.000 A 
ATOM     13  C   UNL     1      -0.492   9.321  22.748  0.00  0.00    +0.000 A 
ENDBRANCH   7   8
ENDBRANCH   4   6
ENDBRANCH   1   2
BRANCH   1  14
ATOM     14  N   UNL     1       4.508   4.772  18.574  0.00  0.00    +0.000 N 
ATOM     15  H   UNL     1       4.947   5.346  19.288  0.00  0.00    +0.000 HD
BRANCH  14  21
ATOM     16  C   UNL     1       6.451   5.541  17.202  0.00  0.00    +0.000 A 
ATOM     17  C   UNL     1       7.120   5.503  15.946  0.00  0.00    +0.000 A 
ATOM     18  C   UNL     1       6.679   4.718  14.894  0.00  0.00    +0.000 A 
ATOM     19  C   UNL     1       5.547   3.933  15.067  0.00  0.00    +0.000 A 
ATOM     20  C   UNL     1       4.881   3.960  16.290  0.00  0.00    +0.000 A 
ATOM     21  C   UNL     1       5.276   4.739  17.376  0.00  0.00    +0.000 A 
BRANCH  16  23
ATOM     22  C   UNL     1       7.963   5.815  19.267  0.00  0.00    +0.000 C 
ATOM     23  C   UNL     1       7.029   6.493  18.246  0.00  0.00    +0.000 C 
ATOM     24  C   UNL     1       7.725   7.670  17.545  0.00  0.00    +0.000 C 
ENDBRANCH  16  23
ENDBRANCH  14  21
ENDBRANCH   1  14
TORSDOF 6
ENDMDL
MODEL 9
REMARK VINA RESULT:      -7.0      4.256      7.048
REMARK  Name = 
REMARK  8 active torsions:
REMARK  status: ('A' for Active; 'I' for Inactive)
REMARK    1  A    between atoms: C_1  and  C_2
REMARK    2  A    between atoms: C_2  and  C_3
REMARK    3  A    between atoms: C_2  and  C_4
REMARK    4  A    between atoms: C_9  and  N_10
REMARK    5  A    between atoms: N_10  and  C_11
REMARK    6  A    between atoms: C_11  and  C_12
REMARK    7  A    between atoms: N_14  and  N_15
REMARK    8  A    between atoms: C_16  and  C_17
REMARK                            x       y       z     vdW  Elec       q    Type
REMARK                         _______ _______ _______ _____ _____    ______ ____
ROOT
ATOM      1  C   UNL     1       3.076   4.978  19.018  0.00  0.00    +0.000 C 
ENDROOT
BRANCH   1   2
ATOM      2  C   UNL     1       2.527   6.402  19.056  0.00  0.00    +0.000 C 
ATOM      3  O   UNL     1       2.378   7.090  18.042  0.00  0.00    +0.000 OA
ATOM      4  N   UNL     1       2.204   6.814  20.357  0.00  0.00    +0.000 N 
ATOM      5  H   UNL     1       2.379   6.196  21.147  0.00  0.00    +0.000 HD
BRANCH   4   6
ATOM      6  N   UNL     1       1.666   8.039  20.567  0.00  0.00    +0.000 NA
ATOM      7  C   UNL     1       0.622   8.101  21.326  0.00  0.00    +0.000 C 
BRANCH   7   8
ATOM      8  C   UNL     1       0.005   9.404  21.633  0.00  0.00    +0.000 A 
ATOM      9  C   UNL     1      -0.516   9.644  22.903  0.00  0.00    +0.000 A 
ATOM     10  C   UNL     1      -1.132  10.858  23.126  0.00  0.00    +0.000 A 
ATOM     11  N   UNL     1      -1.258  11.817  22.182  0.00  0.00    +0.000 NA
ATOM     12  C   UNL     1      -0.743  11.551  20.960  0.00  0.00    +0.000 A 
ATOM     13  C   UNL     1      -0.097  10.371  20.637  0.00  0.00    +0.000 A 
ENDBRANCH   7   8
ENDBRANCH   4   6
ENDBRANCH   1   2
BRANCH   1  14
ATOM     14  N   UNL     1       4.565   4.955  18.947  0.00  0.00    +0.000 N 
ATOM     15  H   UNL     1       4.961   5.680  19.538  0.00  0.00    +0.000 HD
BRANCH  14  21
ATOM     16  C   UNL     1       6.411   5.626  17.402  0.00  0.00    +0.000 A 
ATOM     17  C   UNL     1       6.958   5.561  16.088  0.00  0.00    +0.000 A 
ATOM     18  C   UNL     1       6.378   4.809  15.080  0.00  0.00    +0.000 A 
ATOM     19  C   UNL     1       5.225   4.087  15.356  0.00  0.00    +0.000 A 
ATOM     20  C   UNL     1       4.678   4.141  16.636  0.00  0.00    +0.000 A 
ATOM     21  C   UNL     1       5.215   4.889  17.682  0.00  0.00    +0.000 A 
BRANCH  16  23
ATOM     22  C   UNL     1       8.129   5.802  19.311  0.00  0.00    +0.000 C 
ATOM     23  C   UNL     1       7.136   6.538  18.389  0.00  0.00    +0.000 C 
ATOM     24  C   UNL     1       7.820   7.685  17.631  0.00  0.00    +0.000 C 
ENDBRANCH  16  23
ENDBRANCH  14  21
ENDBRANCH   1  14
TORSDOF 6
ENDMDL
