MODEL 1
REMARK VINA RESULT:      -7.7      0.000      0.000
REMARK  Name = 
REMARK  5 active torsions:
REMARK  status: ('A' for Active; 'I' for Inactive)
REMARK    1  A    between atoms: C_5  and  C_6
REMARK    2  A    between atoms: N_12  and  C_13
REMARK    3  A    between atoms: C_13  and  C_14
REMARK    4  A    between atoms: C_14  and  N_15
REMARK    5  A    between atoms: N_15  and  C_16
REMARK                            x       y       z     vdW  Elec       q    Type
REMARK                         _______ _______ _______ _____ _____    ______ ____
ROOT
ATOM      1  C   UNL     1       2.199   7.611  19.263  0.00  0.00    +0.000 C 
ENDROOT
BRANCH   1   2
ATOM      2  N   UNL     1       1.637   8.973  19.391  0.00  0.00    +0.000 N 
ATOM      3  H   UNL     1       0.955   9.002  20.161  0.00  0.00    +0.000 HD
BRANCH   2   4
ATOM      4  C   UNL     1       1.105   9.820  18.348  0.00  0.00    +0.000 A 
ATOM      5  C   UNL     1       1.937  10.928  18.199  0.00  0.00    +0.000 A 
ATOM      6  C   UNL     1       1.586  12.047  18.936  0.00  0.00    +0.000 A 
ATOM      7  N   UNL     1       0.369  12.198  19.503  0.00  0.00    +0.000 NA
ATOM      8  C   UNL     1      -0.580  11.367  19.060  0.00  0.00    +0.000 A 
ATOM      9  C   UNL     1      -1.896  11.777  19.113  0.00  0.00    +0.000 A 
ATOM     10  C   UNL     1      -2.839  11.206  18.262  0.00  0.00    +0.000 A 
ATOM     11 CL   UNL     1      -4.446  11.822  18.239  0.00  0.00    +0.000 Cl
ATOM     12  C   UNL     1      -2.465  10.211  17.364  0.00  0.00    +0.000 A 
ATOM     13  C   UNL     1      -1.177   9.680  17.428  0.00  0.00    +0.000 A 
ATOM     14  C   UNL     1      -0.241  10.199  18.344  0.00  0.00    +0.000 A 
ENDBRANCH   2   4
ENDBRANCH   1   2
BRANCH   1  15
ATOM     15  C   UNL     1       2.722   7.259  17.849  0.00  0.00    +0.000 C 
BRANCH  15  21
ATOM     16  O   UNL     1       5.608   7.516  17.303  0.00  0.00    +0.000 OA
ATOM     17  C   UNL     1       5.078   6.417  17.364  0.00  0.00    +0.000 C 
ATOM     18  C   UNL     1       5.866   5.140  17.091  0.00  0.00    +0.000 C 
ATOM     19  S   UNL     1       4.735   3.759  17.235  0.00  0.00    +0.000 S 
ATOM     20  C   UNL     1       3.301   4.813  17.572  0.00  0.00    +0.000 C 
ATOM     21  N   UNL     1       3.745   6.192  17.674  0.00  0.00    +0.000 N 
BRANCH  20  22
ATOM     22  C   UNL     1       2.538   4.291  18.770  0.00  0.00    +0.000 A 
ATOM     23  C   UNL     1       3.067   4.333  20.072  0.00  0.00    +0.000 A 
ATOM     24  C   UNL     1       2.387   3.732  21.135  0.00  0.00    +0.000 A 
ATOM     25  C   UNL     1       1.168   3.096  20.914  0.00  0.00    +0.000 A 
ATOM     26  C   UNL     1       0.619   3.068  19.634  0.00  0.00    +0.000 A 
ATOM     27  C   UNL     1       1.300   3.660  18.570  0.00  0.00    +0.000 A 
ENDBRANCH  20  22
ENDBRANCH  15  21
ENDBRANCH   1  15
TORSDOF 5
ENDMDL
MODEL 2
REMARK VINA RESULT:      -7.7      4.550      7.313
REMARK  Name = 
REMARK  5 active torsions:
REMARK  status: ('A' for Active; 'I' for Inactive)
REMARK    1  A    between atoms: C_5  and  C_6
REMARK    2  A    between atoms: N_12  and  C_13
REMARK    3  A    between atoms: C_13  and  C_14
REMARK    4  A    between atoms: C_14  and  N_15
REMARK    5  A    between atoms: N_15  and  C_16
REMARK                            x       y       z     vdW  Elec       q    Type
REMARK                         _______ _______ _______ _____ _____    ______ ____
ROOT
ATOM      1  C   UNL     1       4.731   3.140  17.663  0.00  0.00    +0.000 C 
ENDROOT
BRANCH   1   2
ATOM      2  N   UNL     1       4.252   3.983  16.546  0.00  0.00    +0.000 N 
ATOM      3  H   UNL     1       3.824   3.395  15.818  0.00  0.00    +0.000 HD
BRANCH   2   4
ATOM      4  C   UNL     1       4.965   5.031  15.851  0.00  0.00    +0.000 A 
ATOM      5  C   UNL     1       5.685   4.467  14.799  0.00  0.00    +0.000 A 
ATOM      6  C   UNL     1       6.993   4.115  15.085  0.00  0.00    +0.000 A 
ATOM      7  N   UNL     1       7.650   4.566  16.176  0.00  0.00    +0.000 NA
ATOM      8  C   UNL     1       7.088   5.610  16.796  0.00  0.00    +0.000 A 
ATOM      9  C   UNL     1       7.899   6.474  17.503  0.00  0.00    +0.000 A 
ATOM     10  C   UNL     1       7.483   7.781  17.744  0.00  0.00    +0.000 A 
ATOM     11 CL   UNL     1       8.558   8.889  18.504  0.00  0.00    +0.000 Cl
ATOM     12  C   UNL     1       6.244   8.220  17.286  0.00  0.00    +0.000 A 
ATOM     13  C   UNL     1       5.359   7.302  16.723  0.00  0.00    +0.000 A 
ATOM     14  C   UNL     1       5.744   5.959  16.550  0.00  0.00    +0.000 A 
ENDBRANCH   2   4
ENDBRANCH   1   2
BRANCH   1  15
ATOM     15  C   UNL     1       4.603   3.789  19.062  0.00  0.00    +0.000 C 
BRANCH  15  21
ATOM     16  O   UNL     1       4.270   1.912  21.311  0.00  0.00    +0.000 OA
ATOM     17  C   UNL     1       3.330   2.580  20.909  0.00  0.00    +0.000 C 
ATOM     18  C   UNL     1       1.933   2.424  21.501  0.00  0.00    +0.000 C 
ATOM     19  S   UNL     1       0.838   3.536  20.623  0.00  0.00    +0.000 S 
ATOM     20  C   UNL     1       2.137   4.122  19.504  0.00  0.00    +0.000 C 
ATOM     21  N   UNL     1       3.402   3.531  19.902  0.00  0.00    +0.000 N 
BRANCH  20  22
ATOM     22  C   UNL     1       2.123   5.633  19.434  0.00  0.00    +0.000 A 
ATOM     23  C   UNL     1       1.868   6.433  20.562  0.00  0.00    +0.000 A 
ATOM     24  C   UNL     1       1.743   7.820  20.436  0.00  0.00    +0.000 A 
ATOM     25  C   UNL     1       1.887   8.423  19.189  0.00  0.00    +0.000 A 
ATOM     26  C   UNL     1       2.165   7.647  18.067  0.00  0.00    +0.000 A 
ATOM     27  C   UNL     1       2.281   6.262  18.189  0.00  0.00    +0.000 A 
ENDBRANCH  20  22
ENDBRANCH  15  21
ENDBRANCH   1  15
TORSDOF 5
ENDMDL
MODEL 3
REMARK VINA RESULT:      -7.6      4.068      7.426
REMARK  Name = 
REMARK  5 active torsions:
REMARK  status: ('A' for Active; 'I' for Inactive)
REMARK    1  A    between atoms: C_5  and  C_6
REMARK    2  A    between atoms: N_12  and  C_13
REMARK    3  A    between atoms: C_13  and  C_14
REMARK    4  A    between atoms: C_14  and  N_15
REMARK    5  A    between atoms: N_15  and  C_16
REMARK                            x       y       z     vdW  Elec       q    Type
REMARK                         _______ _______ _______ _____ _____    ______ ____
ROOT
ATOM      1  C   UNL     1       4.460   7.519  17.254  0.00  0.00    +0.000 C 
ENDROOT
BRANCH   1   2
ATOM      2  N   UNL     1       5.088   6.384  17.964  0.00  0.00    +0.000 N 
ATOM      3  H   UNL     1       5.962   6.689  18.413  0.00  0.00    +0.000 HD
BRANCH   2   4
ATOM      4  C   UNL     1       5.331   5.047  17.470  0.00  0.00    +0.000 A 
ATOM      5  C   UNL     1       6.252   4.418  18.307  0.00  0.00    +0.000 A 
ATOM      6  C   UNL     1       7.579   4.526  17.928  0.00  0.00    +0.000 A 
ATOM      7  N   UNL     1       7.959   4.915  16.691  0.00  0.00    +0.000 NA
ATOM      8  C   UNL     1       7.000   4.888  15.760  0.00  0.00    +0.000 A 
ATOM      9  C   UNL     1       7.362   4.699  14.442  0.00  0.00    +0.000 A 
ATOM     10  C   UNL     1       6.440   4.190  13.531  0.00  0.00    +0.000 A 
ATOM     11 CL   UNL     1       6.943   3.827  11.926  0.00  0.00    +0.000 Cl
ATOM     12  C   UNL     1       5.146   3.882  13.939  0.00  0.00    +0.000 A 
ATOM     13  C   UNL     1       4.732   4.231  15.224  0.00  0.00    +0.000 A 
ATOM     14  C   UNL     1       5.638   4.821  16.125  0.00  0.00    +0.000 A 
ENDBRANCH   2   4
ENDBRANCH   1   2
BRANCH   1  15
ATOM     15  C   UNL     1       2.912   7.514  17.270  0.00  0.00    +0.000 C 
BRANCH  15  21
ATOM     16  O   UNL     1       1.337   9.939  17.843  0.00  0.00    +0.000 OA
ATOM     17  C   UNL     1       1.503   9.084  18.700  0.00  0.00    +0.000 C 
ATOM     18  C   UNL     1       0.967   9.264  20.117  0.00  0.00    +0.000 C 
ATOM     19  S   UNL     1       1.450   7.828  21.070  0.00  0.00    +0.000 S 
ATOM     20  C   UNL     1       2.356   7.071  19.696  0.00  0.00    +0.000 C 
ATOM     21  N   UNL     1       2.174   7.886  18.508  0.00  0.00    +0.000 N 
BRANCH  20  22
ATOM     22  C   UNL     1       1.962   5.617  19.548  0.00  0.00    +0.000 A 
ATOM     23  C   UNL     1       1.880   4.987  18.294  0.00  0.00    +0.000 A 
ATOM     24  C   UNL     1       1.396   3.680  18.186  0.00  0.00    +0.000 A 
ATOM     25  C   UNL     1       1.004   2.984  19.327  0.00  0.00    +0.000 A 
ATOM     26  C   UNL     1       1.104   3.586  20.578  0.00  0.00    +0.000 A 
ATOM     27  C   UNL     1       1.578   4.893  20.688  0.00  0.00    +0.000 A 
ENDBRANCH  20  22
ENDBRANCH  15  21
ENDBRANCH   1  15
TORSDOF 5
ENDMDL
MODEL 4
REMARK VINA RESULT:      -7.6      1.737      3.302
REMARK  Name = 
REMARK  5 active torsions:
REMARK  status: ('A' for Active; 'I' for Inactive)
REMARK    1  A    between atoms: C_5  and  C_6
REMARK    2  A    between atoms: N_12  and  C_13
REMARK    3  A    between atoms: C_13  and  C_14
REMARK    4  A    between atoms: C_14  and  N_15
REMARK    5  A    between atoms: N_15  and  C_16
REMARK                            x       y       z     vdW  Elec       q    Type
REMARK                         _______ _______ _______ _____ _____    ______ ____
ROOT
ATOM      1  C   UNL     1       2.144   7.228  18.559  0.00  0.00    +0.000 C 
ENDROOT
BRANCH   1   2
ATOM      2  N   UNL     1       1.732   8.606  18.903  0.00  0.00    +0.000 N 
ATOM      3  H   UNL     1       1.162   8.601  19.759  0.00  0.00    +0.000 HD
BRANCH   2   4
ATOM      4  C   UNL     1       1.150   9.605  18.035  0.00  0.00    +0.000 A 
ATOM      5  C   UNL     1       2.039  10.673  17.917  0.00  0.00    +0.000 A 
ATOM      6  C   UNL     1       1.855  11.710  18.815  0.00  0.00    +0.000 A 
ATOM      7  N   UNL     1       0.723  11.863  19.537  0.00  0.00    +0.000 NA
ATOM      8  C   UNL     1      -0.327  11.149  19.117  0.00  0.00    +0.000 A 
ATOM      9  C   UNL     1      -1.596  11.626  19.374  0.00  0.00    +0.000 A 
ATOM     10  C   UNL     1      -2.667  11.222  18.582  0.00  0.00    +0.000 A 
ATOM     11 CL   UNL     1      -4.217  11.929  18.822  0.00  0.00    +0.000 Cl
ATOM     12  C   UNL     1      -2.469  10.325  17.536  0.00  0.00    +0.000 A 
ATOM     13  C   UNL     1      -1.224   9.715  17.385  0.00  0.00    +0.000 A 
ATOM     14  C   UNL     1      -0.157  10.061  18.236  0.00  0.00    +0.000 A 
ENDBRANCH   2   4
ENDBRANCH   1   2
BRANCH   1  15
ATOM     15  C   UNL     1       2.785   6.436  19.725  0.00  0.00    +0.000 C 
BRANCH  15  21
ATOM     16  O   UNL     1       0.740   4.398  20.320  0.00  0.00    +0.000 OA
ATOM     17  C   UNL     1       1.875   4.073  20.011  0.00  0.00    +0.000 C 
ATOM     18  C   UNL     1       2.304   2.609  19.987  0.00  0.00    +0.000 C 
ATOM     19  S   UNL     1       4.034   2.553  19.530  0.00  0.00    +0.000 S 
ATOM     20  C   UNL     1       4.192   4.355  19.439  0.00  0.00    +0.000 C 
ATOM     21  N   UNL     1       2.886   4.952  19.655  0.00  0.00    +0.000 N 
BRANCH  20  22
ATOM     22  C   UNL     1       4.881   4.755  18.153  0.00  0.00    +0.000 A 
ATOM     23  C   UNL     1       5.859   5.764  18.109  0.00  0.00    +0.000 A 
ATOM     24  C   UNL     1       6.385   6.191  16.886  0.00  0.00    +0.000 A 
ATOM     25  C   UNL     1       5.953   5.606  15.698  0.00  0.00    +0.000 A 
ATOM     26  C   UNL     1       5.004   4.588  15.727  0.00  0.00    +0.000 A 
ATOM     27  C   UNL     1       4.471   4.166  16.945  0.00  0.00    +0.000 A 
ENDBRANCH  20  22
ENDBRANCH  15  21
ENDBRANCH   1  15
TORSDOF 5
ENDMDL
MODEL 5
REMARK VINA RESULT:      -7.6      1.687      3.470
REMARK  Name = 
REMARK  5 active torsions:
REMARK  status: ('A' for Active; 'I' for Inactive)
REMARK    1  A    between atoms: C_5  and  C_6
REMARK    2  A    between atoms: N_12  and  C_13
REMARK    3  A    between atoms: C_13  and  C_14
REMARK    4  A    between atoms: C_14  and  N_15
REMARK    5  A    between atoms: N_15  and  C_16
REMARK                            x       y       z     vdW  Elec       q    Type
REMARK                         _______ _______ _______ _____ _____    ______ ____
ROOT
ATOM      1  C   UNL     1       2.498   7.340  18.308  0.00  0.00    +0.000 C 
ENDROOT
BRANCH   1   2
ATOM      2  N   UNL     1       1.577   8.413  18.742  0.00  0.00    +0.000 N 
ATOM      3  H   UNL     1       0.780   8.009  19.252  0.00  0.00    +0.000 HD
BRANCH   2   4
ATOM      4  C   UNL     1       1.044   9.503  17.956  0.00  0.00    +0.000 A 
ATOM      5  C   UNL     1       1.997  10.518  17.887  0.00  0.00    +0.000 A 
ATOM      6  C   UNL     1       1.897  11.502  18.855  0.00  0.00    +0.000 A 
ATOM      7  N   UNL     1       0.791  11.676  19.612  0.00  0.00    +0.000 NA
ATOM      8  C   UNL     1      -0.311  11.060  19.170  0.00  0.00    +0.000 A 
ATOM      9  C   UNL     1      -1.541  11.597  19.488  0.00  0.00    +0.000 A 
ATOM     10  C   UNL     1      -2.651  11.314  18.695  0.00  0.00    +0.000 A 
ATOM     11 CL   UNL     1      -4.148  12.100  19.018  0.00  0.00    +0.000 Cl
ATOM     12  C   UNL     1      -2.530  10.479  17.589  0.00  0.00    +0.000 A 
ATOM     13  C   UNL     1      -1.330   9.804  17.369  0.00  0.00    +0.000 A 
ATOM     14  C   UNL     1      -0.227  10.024  18.216  0.00  0.00    +0.000 A 
ENDBRANCH   2   4
ENDBRANCH   1   2
BRANCH   1  15
ATOM     15  C   UNL     1       3.191   6.577  19.463  0.00  0.00    +0.000 C 
BRANCH  15  21
ATOM     16  O   UNL     1       1.045   4.725  20.271  0.00  0.00    +0.000 OA
ATOM     17  C   UNL     1       2.142   4.304  19.936  0.00  0.00    +0.000 C 
ATOM     18  C   UNL     1       2.471   2.816  19.987  0.00  0.00    +0.000 C 
ATOM     19  S   UNL     1       4.171   2.613  19.463  0.00  0.00    +0.000 S 
ATOM     20  C   UNL     1       4.443   4.391  19.252  0.00  0.00    +0.000 C 
ATOM     21  N   UNL     1       3.191   5.089  19.483  0.00  0.00    +0.000 N 
BRANCH  20  22
ATOM     22  C   UNL     1       5.097   4.664  17.915  0.00  0.00    +0.000 A 
ATOM     23  C   UNL     1       4.563   4.182  16.707  0.00  0.00    +0.000 A 
ATOM     24  C   UNL     1       5.258   4.349  15.506  0.00  0.00    +0.000 A 
ATOM     25  C   UNL     1       6.484   5.011  15.495  0.00  0.00    +0.000 A 
ATOM     26  C   UNL     1       7.013   5.516  16.679  0.00  0.00    +0.000 A 
ATOM     27  C   UNL     1       6.326   5.343  17.880  0.00  0.00    +0.000 A 
ENDBRANCH  20  22
ENDBRANCH  15  21
ENDBRANCH   1  15
TORSDOF 5
ENDMDL
MODEL 6
REMARK VINA RESULT:      -7.5      4.519      7.336
REMARK  Name = 
REMARK  5 active torsions:
REMARK  status: ('A' for Active; 'I' for Inactive)
REMARK    1  A    between atoms: C_5  and  C_6
REMARK    2  A    between atoms: N_12  and  C_13
REMARK    3  A    between atoms: C_13  and  C_14
REMARK    4  A    between atoms: C_14  and  N_15
REMARK    5  A    between atoms: N_15  and  C_16
REMARK                            x       y       z     vdW  Elec       q    Type
REMARK                         _______ _______ _______ _____ _____    ______ ____
ROOT
ATOM      1  C   UNL     1       5.837   4.856  19.268  0.00  0.00    +0.000 C 
ENDROOT
BRANCH   1   2
ATOM      2  N   UNL     1       7.080   4.835  18.467  0.00  0.00    +0.000 N 
ATOM      3  H   UNL     1       7.885   5.083  19.057  0.00  0.00    +0.000 HD
BRANCH   2   4
ATOM      4  C   UNL     1       7.320   5.443  17.178  0.00  0.00    +0.000 A 
ATOM      5  C   UNL     1       7.114   6.818  17.283  0.00  0.00    +0.000 A 
ATOM      6  C   UNL     1       5.839   7.259  16.970  0.00  0.00    +0.000 A 
ATOM      7  N   UNL     1       4.944   6.500  16.301  0.00  0.00    +0.000 NA
ATOM      8  C   UNL     1       5.449   5.426  15.684  0.00  0.00    +0.000 A 
ATOM      9  C   UNL     1       4.803   4.942  14.565  0.00  0.00    +0.000 A 
ATOM     10  C   UNL     1       5.501   4.179  13.632  0.00  0.00    +0.000 A 
ATOM     11 CL   UNL     1       4.723   3.699  12.174  0.00  0.00    +0.000 Cl
ATOM     12  C   UNL     1       6.848   3.889  13.828  0.00  0.00    +0.000 A 
ATOM     13  C   UNL     1       7.453   4.232  15.036  0.00  0.00    +0.000 A 
ATOM     14  C   UNL     1       6.728   4.934  16.019  0.00  0.00    +0.000 A 
ENDBRANCH   2   4
ENDBRANCH   1   2
BRANCH   1  15
ATOM     15  C   UNL     1       4.763   3.835  18.822  0.00  0.00    +0.000 C 
BRANCH  15  21
ATOM     16  O   UNL     1       4.814   1.956  21.093  0.00  0.00    +0.000 OA
ATOM     17  C   UNL     1       3.776   2.508  20.761  0.00  0.00    +0.000 C 
ATOM     18  C   UNL     1       2.455   2.200  21.457  0.00  0.00    +0.000 C 
ATOM     19  S   UNL     1       1.178   3.171  20.662  0.00  0.00    +0.000 S 
ATOM     20  C   UNL     1       2.314   3.889  19.447  0.00  0.00    +0.000 C 
ATOM     21  N   UNL     1       3.664   3.450  19.750  0.00  0.00    +0.000 N 
BRANCH  20  22
ATOM     22  C   UNL     1       2.123   5.388  19.376  0.00  0.00    +0.000 A 
ATOM     23  C   UNL     1       2.309   6.111  18.184  0.00  0.00    +0.000 A 
ATOM     24  C   UNL     1       2.243   7.507  18.183  0.00  0.00    +0.000 A 
ATOM     25  C   UNL     1       1.977   8.195  19.364  0.00  0.00    +0.000 A 
ATOM     26  C   UNL     1       1.765   7.492  20.547  0.00  0.00    +0.000 A 
ATOM     27  C   UNL     1       1.839   6.099  20.553  0.00  0.00    +0.000 A 
ENDBRANCH  20  22
ENDBRANCH  15  21
ENDBRANCH   1  15
TORSDOF 5
ENDMDL
MODEL 7
REMARK VINA RESULT:      -7.4      1.738      2.339
REMARK  Name = 
REMARK  5 active torsions:
REMARK  status: ('A' for Active; 'I' for Inactive)
REMARK    1  A    between atoms: C_5  and  C_6
REMARK    2  A    between atoms: N_12  and  C_13
REMARK    3  A    between atoms: C_13  and  C_14
REMARK    4  A    between atoms: C_14  and  N_15
REMARK    5  A    between atoms: N_15  and  C_16
REMARK                            x       y       z     vdW  Elec       q    Type
REMARK                         _______ _______ _______ _____ _____    ______ ____
ROOT
ATOM      1  C   UNL     1       2.443   8.304  17.537  0.00  0.00    +0.000 C 
ENDROOT
BRANCH   1   2
ATOM      2  N   UNL     1       1.352   9.150  18.066  0.00  0.00    +0.000 N 
ATOM      3  H   UNL     1       0.839   9.591  17.291  0.00  0.00    +0.000 HD
BRANCH   2   4
ATOM      4  C   UNL     1       1.420  10.138  19.120  0.00  0.00    +0.000 A 
ATOM      5  C   UNL     1       0.772   9.639  20.248  0.00  0.00    +0.000 A 
ATOM      6  C   UNL     1      -0.566   9.972  20.369  0.00  0.00    +0.000 A 
ATOM      7  N   UNL     1      -1.143  10.962  19.653  0.00  0.00    +0.000 NA
ATOM      8  C   UNL     1      -0.296  11.808  19.055  0.00  0.00    +0.000 A 
ATOM      9  C   UNL     1      -0.713  13.100  18.812  0.00  0.00    +0.000 A 
ATOM     10  C   UNL     1       0.225  14.118  18.657  0.00  0.00    +0.000 A 
ATOM     11 CL   UNL     1      -0.308  15.746  18.494  0.00  0.00    +0.000 Cl
ATOM     12  C   UNL     1       1.586  13.837  18.733  0.00  0.00    +0.000 A 
ATOM     13  C   UNL     1       2.008  12.511  18.808  0.00  0.00    +0.000 A 
ATOM     14  C   UNL     1       1.063  11.469  18.883  0.00  0.00    +0.000 A 
ENDBRANCH   2   4
ENDBRANCH   1   2
BRANCH   1  15
ATOM     15  C   UNL     1       2.822   7.102  18.434  0.00  0.00    +0.000 C 
BRANCH  15  21
ATOM     16  O   UNL     1       5.523   7.245  17.263  0.00  0.00    +0.000 OA
ATOM     17  C   UNL     1       4.919   6.185  17.314  0.00  0.00    +0.000 C 
ATOM     18  C   UNL     1       5.500   4.909  16.714  0.00  0.00    +0.000 C 
ATOM     19  S   UNL     1       4.305   3.598  16.952  0.00  0.00    +0.000 S 
ATOM     20  C   UNL     1       3.090   4.686  17.739  0.00  0.00    +0.000 C 
ATOM     21  N   UNL     1       3.674   6.006  17.898  0.00  0.00    +0.000 N 
BRANCH  20  22
ATOM     22  C   UNL     1       2.568   4.053  19.011  0.00  0.00    +0.000 A 
ATOM     23  C   UNL     1       3.425   3.500  19.979  0.00  0.00    +0.000 A 
ATOM     24  C   UNL     1       2.904   2.817  21.081  0.00  0.00    +0.000 A 
ATOM     25  C   UNL     1       1.526   2.691  21.238  0.00  0.00    +0.000 A 
ATOM     26  C   UNL     1       0.664   3.256  20.301  0.00  0.00    +0.000 A 
ATOM     27  C   UNL     1       1.181   3.930  19.195  0.00  0.00    +0.000 A 
ENDBRANCH  20  22
ENDBRANCH  15  21
ENDBRANCH   1  15
TORSDOF 5
ENDMDL
MODEL 8
REMARK VINA RESULT:      -7.4      3.816      6.954
REMARK  Name = 
REMARK  5 active torsions:
REMARK  status: ('A' for Active; 'I' for Inactive)
REMARK    1  A    between atoms: C_5  and  C_6
REMARK    2  A    between atoms: N_12  and  C_13
REMARK    3  A    between atoms: C_13  and  C_14
REMARK    4  A    between atoms: C_14  and  N_15
REMARK    5  A    between atoms: N_15  and  C_16
REMARK                            x       y       z     vdW  Elec       q    Type
REMARK                         _______ _______ _______ _____ _____    ______ ____
ROOT
ATOM      1  C   UNL     1       4.470   7.549  16.926  0.00  0.00    +0.000 C 
ENDROOT
BRANCH   1   2
ATOM      2  N   UNL     1       5.866   7.180  17.248  0.00  0.00    +0.000 N 
ATOM      3  H   UNL     1       6.512   7.626  16.583  0.00  0.00    +0.000 HD
BRANCH   2   4
ATOM      4  C   UNL     1       6.401   5.863  17.510  0.00  0.00    +0.000 A 
ATOM      5  C   UNL     1       7.274   5.517  16.479  0.00  0.00    +0.000 A 
ATOM      6  C   UNL     1       6.714   4.804  15.433  0.00  0.00    +0.000 A 
ATOM      7  N   UNL     1       5.512   4.193  15.522  0.00  0.00    +0.000 NA
ATOM      8  C   UNL     1       5.033   4.045  16.762  0.00  0.00    +0.000 A 
ATOM      9  C   UNL     1       4.176   2.995  17.019  0.00  0.00    +0.000 A 
ATOM     10  C   UNL     1       4.038   2.509  18.317  0.00  0.00    +0.000 A 
ATOM     11 CL   UNL     1       3.075   1.112  18.604  0.00  0.00    +0.000 Cl
ATOM     12  C   UNL     1       4.751   3.087  19.364  0.00  0.00    +0.000 A 
ATOM     13  C   UNL     1       5.482   4.251  19.132  0.00  0.00    +0.000 A 
ATOM     14  C   UNL     1       5.560   4.794  17.836  0.00  0.00    +0.000 A 
ENDBRANCH   2   4
ENDBRANCH   1   2
BRANCH   1  15
ATOM     15  C   UNL     1       3.395   6.738  17.688  0.00  0.00    +0.000 C 
BRANCH  15  21
ATOM     16  O   UNL     1       1.828   9.211  17.347  0.00  0.00    +0.000 OA
ATOM     17  C   UNL     1       1.833   8.615  18.413  0.00  0.00    +0.000 C 
ATOM     18  C   UNL     1       1.090   9.158  19.630  0.00  0.00    +0.000 C 
ATOM     19  S   UNL     1       1.374   8.031  20.992  0.00  0.00    +0.000 S 
ATOM     20  C   UNL     1       2.457   6.947  20.026  0.00  0.00    +0.000 C 
ATOM     21  N   UNL     1       2.487   7.417  18.652  0.00  0.00    +0.000 N 
BRANCH  20  22
ATOM     22  C   UNL     1       2.045   5.502  20.206  0.00  0.00    +0.000 A 
ATOM     23  C   UNL     1       1.211   4.841  19.287  0.00  0.00    +0.000 A 
ATOM     24  C   UNL     1       0.753   3.546  19.548  0.00  0.00    +0.000 A 
ATOM     25  C   UNL     1       1.133   2.893  20.718  0.00  0.00    +0.000 A 
ATOM     26  C   UNL     1       1.978   3.526  21.625  0.00  0.00    +0.000 A 
ATOM     27  C   UNL     1       2.430   4.821  21.372  0.00  0.00    +0.000 A 
ENDBRANCH  20  22
ENDBRANCH  15  21
ENDBRANCH   1  15
TORSDOF 5
ENDMDL
MODEL 9
REMARK VINA RESULT:      -7.4      4.405      8.505
REMARK  Name = 
REMARK  5 active torsions:
REMARK  status: ('A' for Active; 'I' for Inactive)
REMARK    1  A    between atoms: C_5  and  C_6
REMARK    2  A    between atoms: N_12  and  C_13
REMARK    3  A    between atoms: C_13  and  C_14
REMARK    4  A    between atoms: C_14  and  N_15
REMARK    5  A    between atoms: N_15  and  C_16
REMARK                            x       y       z     vdW  Elec       q    Type
REMARK                         _______ _______ _______ _____ _____    ______ ____
ROOT
ATOM      1  C   UNL     1       0.973   7.583  21.066  0.00  0.00    +0.000 C 
ENDROOT
BRANCH   1   2
ATOM      2  N   UNL     1       2.086   6.687  20.684  0.00  0.00    +0.000 N 
ATOM      3  H   UNL     1       2.988   7.148  20.865  0.00  0.00    +0.000 HD
BRANCH   2   4
ATOM      4  C   UNL     1       2.251   5.942  19.457  0.00  0.00    +0.000 A 
ATOM      5  C   UNL     1       1.503   4.769  19.537  0.00  0.00    +0.000 A 
ATOM      6  C   UNL     1       2.179   3.656  20.006  0.00  0.00    +0.000 A 
ATOM      7  N   UNL     1       3.527   3.592  20.075  0.00  0.00    +0.000 NA
ATOM      8  C   UNL     1       4.183   4.529  19.381  0.00  0.00    +0.000 A 
ATOM      9  C   UNL     1       5.450   4.242  18.917  0.00  0.00    +0.000 A 
ATOM     10  C   UNL     1       5.968   4.937  17.827  0.00  0.00    +0.000 A 
ATOM     11 CL   UNL     1       7.491   4.476  17.171  0.00  0.00    +0.000 Cl
ATOM     12  C   UNL     1       5.219   5.932  17.208  0.00  0.00    +0.000 A 
ATOM     13  C   UNL     1       4.013   6.337  17.780  0.00  0.00    +0.000 A 
ATOM     14  C   UNL     1       3.522   5.692  18.931  0.00  0.00    +0.000 A 
ENDBRANCH   2   4
ENDBRANCH   1   2
BRANCH   1  15
ATOM     15  C   UNL     1       1.403   9.014  21.468  0.00  0.00    +0.000 C 
BRANCH  15  21
ATOM     16  O   UNL     1       0.082   9.597  24.037  0.00  0.00    +0.000 OA
ATOM     17  C   UNL     1      -0.227  10.204  23.023  0.00  0.00    +0.000 C 
ATOM     18  C   UNL     1      -1.352  11.234  23.024  0.00  0.00    +0.000 C 
ATOM     19  S   UNL     1      -1.522  11.861  21.356  0.00  0.00    +0.000 S 
ATOM     20  C   UNL     1      -0.229  10.782  20.691  0.00  0.00    +0.000 C 
ATOM     21  N   UNL     1       0.377  10.044  21.785  0.00  0.00    +0.000 N 
BRANCH  20  22
ATOM     22  C   UNL     1       0.734  11.582  19.840  0.00  0.00    +0.000 A 
ATOM     23  C   UNL     1       1.309  11.061  18.667  0.00  0.00    +0.000 A 
ATOM     24  C   UNL     1       2.285  11.782  17.975  0.00  0.00    +0.000 A 
ATOM     25  C   UNL     1       2.687  13.034  18.435  0.00  0.00    +0.000 A 
ATOM     26  C   UNL     1       2.109  13.574  19.580  0.00  0.00    +0.000 A 
ATOM     27  C   UNL     1       1.140  12.853  20.279  0.00  0.00    +0.000 A 
ENDBRANCH  20  22
ENDBRANCH  15  21
ENDBRANCH   1  15
TORSDOF 5
ENDMDL
