MODEL 1
REMARK VINA RESULT:      -8.4      0.000      0.000
REMARK  Name = 
REMARK  5 active torsions:
REMARK  status: ('A' for Active; 'I' for Inactive)
REMARK    1  A    between atoms: C_2  and  C_5
REMARK    2  A    between atoms: C_8  and  C_9
REMARK    3  A    between atoms: C_11  and  C_12
REMARK    4  A    between atoms: C_12  and  N_13
REMARK    5  A    between atoms: C_17  and  C_18
REMARK                            x       y       z     vdW  Elec       q    Type
REMARK                         _______ _______ _______ _____ _____    ______ ____
ROOT
ATOM      1  C   UNL     1       1.321   8.328  20.474  0.00  0.00    +0.000 A 
ATOM      2  N   UNL     1       1.802   7.207  20.974  0.00  0.00    +0.000 NA
ATOM      3  C   UNL     1       2.473   6.625  19.917  0.00  0.00    +0.000 A 
ATOM      4  C   UNL     1       2.403   7.453  18.822  0.00  0.00    +0.000 A 
ATOM      5  O   UNL     1       1.664   8.543  19.163  0.00  0.00    +0.000 OA
ENDROOT
BRANCH   1   9
ATOM      6  C   UNL     1      -1.159  11.275  22.363  0.00  0.00    +0.000 A 
ATOM      7  C   UNL     1      -0.633  10.204  23.097  0.00  0.00    +0.000 A 
ATOM      8  C   UNL     1       0.175   9.248  22.474  0.00  0.00    +0.000 A 
ATOM      9  C   UNL     1       0.475   9.336  21.106  0.00  0.00    +0.000 A 
ATOM     10  C   UNL     1      -0.064  10.404  20.374  0.00  0.00    +0.000 A 
ATOM     11  C   UNL     1      -0.871  11.361  20.994  0.00  0.00    +0.000 A 
BRANCH   6  13
ATOM     12  F   UNL     1      -1.323  13.203  23.792  0.00  0.00    +0.000 F 
ATOM     13  C   UNL     1      -2.021  12.330  23.013  0.00  0.00    +0.000 C 
ATOM     14  F   UNL     1      -2.980  11.793  23.818  0.00  0.00    +0.000 F 
ATOM     15  F   UNL     1      -2.684  13.092  22.099  0.00  0.00    +0.000 F 
ENDBRANCH   6  13
ENDBRANCH   1   9
BRANCH   3  16
ATOM     16  C   UNL     1       3.104   5.290  20.053  0.00  0.00    +0.000 C 
BRANCH  16  17
ATOM     17  N   UNL     1       3.199   4.552  18.795  0.00  0.00    +0.000 N 
ATOM     18  C   UNL     1       2.257   3.699  18.274  0.00  0.00    +0.000 A 
ATOM     19  C   UNL     1       2.732   3.328  17.045  0.00  0.00    +0.000 A 
ATOM     20  N   UNL     1       3.936   3.921  16.803  0.00  0.00    +0.000 NA
ATOM     21  C   UNL     1       4.237   4.640  17.875  0.00  0.00    +0.000 A 
BRANCH  21  22
ATOM     22  C   UNL     1       5.463   5.449  17.982  0.00  0.00    +0.000 A 
ATOM     23  C   UNL     1       6.418   5.092  18.949  0.00  0.00    +0.000 A 
ATOM     24  C   UNL     1       7.600   5.822  19.102  0.00  0.00    +0.000 A 
ATOM     25  C   UNL     1       7.848   6.921  18.285  0.00  0.00    +0.000 A 
ATOM     26  C   UNL     1       6.903   7.306  17.339  0.00  0.00    +0.000 A 
ATOM     27  C   UNL     1       5.710   6.587  17.204  0.00  0.00    +0.000 A 
ENDBRANCH  21  22
ENDBRANCH  16  17
ENDBRANCH   3  16
TORSDOF 5
ENDMDL
MODEL 2
REMARK VINA RESULT:      -8.4      2.835      3.741
REMARK  Name = 
REMARK  5 active torsions:
REMARK  status: ('A' for Active; 'I' for Inactive)
REMARK    1  A    between atoms: C_2  and  C_5
REMARK    2  A    between atoms: C_8  and  C_9
REMARK    3  A    between atoms: C_11  and  C_12
REMARK    4  A    between atoms: C_12  and  N_13
REMARK    5  A    between atoms: C_17  and  C_18
REMARK                            x       y       z     vdW  Elec       q    Type
REMARK                         _______ _______ _______ _____ _____    ______ ____
ROOT
ATOM      1  C   UNL     1       2.469   7.527  18.668  0.00  0.00    +0.000 A 
ATOM      2  N   UNL     1       3.400   7.838  17.788  0.00  0.00    +0.000 NA
ATOM      3  C   UNL     1       3.845   6.617  17.320  0.00  0.00    +0.000 A 
ATOM      4  C   UNL     1       3.122   5.611  17.915  0.00  0.00    +0.000 A 
ATOM      5  O   UNL     1       2.242   6.179  18.783  0.00  0.00    +0.000 OA
ENDROOT
BRANCH   1   9
ATOM      6  C   UNL     1       0.159  10.078  21.229  0.00  0.00    +0.000 A 
ATOM      7  C   UNL     1       0.715   8.887  21.715  0.00  0.00    +0.000 A 
ATOM      8  C   UNL     1       1.466   8.061  20.873  0.00  0.00    +0.000 A 
ATOM      9  C   UNL     1       1.681   8.403  19.530  0.00  0.00    +0.000 A 
ATOM     10  C   UNL     1       1.114   9.590  19.045  0.00  0.00    +0.000 A 
ATOM     11  C   UNL     1       0.362  10.417  19.883  0.00  0.00    +0.000 A 
BRANCH   6  13
ATOM     12  F   UNL     1      -0.025  12.181  22.383  0.00  0.00    +0.000 F 
ATOM     13  C   UNL     1      -0.643  10.996  22.118  0.00  0.00    +0.000 C 
ATOM     14  F   UNL     1      -0.916  10.437  23.330  0.00  0.00    +0.000 F 
ATOM     15  F   UNL     1      -1.850  11.318  21.575  0.00  0.00    +0.000 F 
ENDBRANCH   6  13
ENDBRANCH   1   9
BRANCH   3  16
ATOM     16  C   UNL     1       4.964   6.531  16.350  0.00  0.00    +0.000 C 
BRANCH  16  17
ATOM     17  N   UNL     1       6.140   5.833  16.868  0.00  0.00    +0.000 N 
ATOM     18  C   UNL     1       6.562   5.800  18.176  0.00  0.00    +0.000 A 
ATOM     19  C   UNL     1       7.634   4.950  18.197  0.00  0.00    +0.000 A 
ATOM     20  N   UNL     1       7.884   4.468  16.946  0.00  0.00    +0.000 NA
ATOM     21  C   UNL     1       6.999   5.026  16.132  0.00  0.00    +0.000 A 
BRANCH  21  22
ATOM     22  C   UNL     1       6.938   4.734  14.690  0.00  0.00    +0.000 A 
ATOM     23  C   UNL     1       6.026   3.765  14.241  0.00  0.00    +0.000 A 
ATOM     24  C   UNL     1       5.923   3.441  12.885  0.00  0.00    +0.000 A 
ATOM     25  C   UNL     1       6.731   4.086  11.954  0.00  0.00    +0.000 A 
ATOM     26  C   UNL     1       7.660   5.030  12.382  0.00  0.00    +0.000 A 
ATOM     27  C   UNL     1       7.776   5.336  13.742  0.00  0.00    +0.000 A 
ENDBRANCH  21  22
ENDBRANCH  16  17
ENDBRANCH   3  16
TORSDOF 5
ENDMDL
MODEL 3
REMARK VINA RESULT:      -8.3      2.772      3.722
REMARK  Name = 
REMARK  5 active torsions:
REMARK  status: ('A' for Active; 'I' for Inactive)
REMARK    1  A    between atoms: C_2  and  C_5
REMARK    2  A    between atoms: C_8  and  C_9
REMARK    3  A    between atoms: C_11  and  C_12
REMARK    4  A    between atoms: C_12  and  N_13
REMARK    5  A    between atoms: C_17  and  C_18
REMARK                            x       y       z     vdW  Elec       q    Type
REMARK                         _______ _______ _______ _____ _____    ______ ____
ROOT
ATOM      1  C   UNL     1       2.403   7.423  18.893  0.00  0.00    +0.000 A 
ATOM      2  N   UNL     1       3.206   7.653  17.873  0.00  0.00    +0.000 NA
ATOM      3  C   UNL     1       3.746   6.417  17.581  0.00  0.00    +0.000 A 
ATOM      4  C   UNL     1       3.205   5.474  18.422  0.00  0.00    +0.000 A 
ATOM      5  O   UNL     1       2.348   6.105  19.269  0.00  0.00    +0.000 OA
ENDROOT
BRANCH   1   9
ATOM      6  C   UNL     1       0.044  10.161  21.203  0.00  0.00    +0.000 A 
ATOM      7  C   UNL     1       0.460   8.938  21.746  0.00  0.00    +0.000 A 
ATOM      8  C   UNL     1       1.229   8.052  20.986  0.00  0.00    +0.000 A 
ATOM      9  C   UNL     1       1.599   8.362  19.670  0.00  0.00    +0.000 A 
ATOM     10  C   UNL     1       1.171   9.582  19.127  0.00  0.00    +0.000 A 
ATOM     11  C   UNL     1       0.403  10.471  19.884  0.00  0.00    +0.000 A 
BRANCH   6  13
ATOM     12  F   UNL     1      -1.231  10.642  23.186  0.00  0.00    +0.000 F 
ATOM     13  C   UNL     1      -0.773  11.145  22.006  0.00  0.00    +0.000 C 
ATOM     14  F   UNL     1      -1.874  11.578  21.331  0.00  0.00    +0.000 F 
ATOM     15  F   UNL     1      -0.066  12.265  22.326  0.00  0.00    +0.000 F 
ENDBRANCH   6  13
ENDBRANCH   1   9
BRANCH   3  16
ATOM     16  C   UNL     1       4.774   6.261  16.523  0.00  0.00    +0.000 C 
BRANCH  16  17
ATOM     17  N   UNL     1       6.025   5.672  16.998  0.00  0.00    +0.000 N 
ATOM     18  C   UNL     1       6.494   5.679  18.290  0.00  0.00    +0.000 A 
ATOM     19  C   UNL     1       7.637   4.928  18.272  0.00  0.00    +0.000 A 
ATOM     20  N   UNL     1       7.884   4.468  17.012  0.00  0.00    +0.000 NA
ATOM     21  C   UNL     1       6.925   4.943  16.231  0.00  0.00    +0.000 A 
BRANCH  21  22
ATOM     22  C   UNL     1       6.839   4.643  14.791  0.00  0.00    +0.000 A 
ATOM     23  C   UNL     1       7.705   5.317  13.915  0.00  0.00    +0.000 A 
ATOM     24  C   UNL     1       7.670   5.080  12.539  0.00  0.00    +0.000 A 
ATOM     25  C   UNL     1       6.767   4.159  12.016  0.00  0.00    +0.000 A 
ATOM     26  C   UNL     1       5.883   3.500  12.864  0.00  0.00    +0.000 A 
ATOM     27  C   UNL     1       5.905   3.757  14.240  0.00  0.00    +0.000 A 
ENDBRANCH  21  22
ENDBRANCH  16  17
ENDBRANCH   3  16
TORSDOF 5
ENDMDL
MODEL 4
REMARK VINA RESULT:      -8.3      2.743      3.839
REMARK  Name = 
REMARK  5 active torsions:
REMARK  status: ('A' for Active; 'I' for Inactive)
REMARK    1  A    between atoms: C_2  and  C_5
REMARK    2  A    between atoms: C_8  and  C_9
REMARK    3  A    between atoms: C_11  and  C_12
REMARK    4  A    between atoms: C_12  and  N_13
REMARK    5  A    between atoms: C_17  and  C_18
REMARK                            x       y       z     vdW  Elec       q    Type
REMARK                         _______ _______ _______ _____ _____    ______ ____
ROOT
ATOM      1  C   UNL     1       2.387   7.375  18.971  0.00  0.00    +0.000 A 
ATOM      2  N   UNL     1       3.168   7.602  17.934  0.00  0.00    +0.000 NA
ATOM      3  C   UNL     1       3.741   6.374  17.665  0.00  0.00    +0.000 A 
ATOM      4  C   UNL     1       3.240   5.438  18.538  0.00  0.00    +0.000 A 
ATOM      5  O   UNL     1       2.377   6.066  19.382  0.00  0.00    +0.000 OA
ENDROOT
BRANCH   1   9
ATOM      6  C   UNL     1      -0.024  10.145  21.188  0.00  0.00    +0.000 A 
ATOM      7  C   UNL     1       0.356  10.422  19.868  0.00  0.00    +0.000 A 
ATOM      8  C   UNL     1       1.142   9.513  19.152  0.00  0.00    +0.000 A 
ATOM      9  C   UNL     1       1.567   8.311  19.736  0.00  0.00    +0.000 A 
ATOM     10  C   UNL     1       1.194   8.043  21.060  0.00  0.00    +0.000 A 
ATOM     11  C   UNL     1       0.408   8.949  21.778  0.00  0.00    +0.000 A 
BRANCH   6  13
ATOM     12  F   UNL     1      -1.919  11.624  21.265  0.00  0.00    +0.000 F 
ATOM     13  C   UNL     1      -0.885  11.100  21.979  0.00  0.00    +0.000 C 
ATOM     14  F   UNL     1      -0.179  12.164  22.454  0.00  0.00    +0.000 F 
ATOM     15  F   UNL     1      -1.447  10.507  23.070  0.00  0.00    +0.000 F 
ENDBRANCH   6  13
ENDBRANCH   1   9
BRANCH   3  16
ATOM     16  C   UNL     1       4.756   6.221  16.596  0.00  0.00    +0.000 C 
BRANCH  16  17
ATOM     17  N   UNL     1       6.022   5.655  17.061  0.00  0.00    +0.000 N 
ATOM     18  C   UNL     1       6.498   5.665  18.350  0.00  0.00    +0.000 A 
ATOM     19  C   UNL     1       7.656   4.937  18.323  0.00  0.00    +0.000 A 
ATOM     20  N   UNL     1       7.905   4.488  17.060  0.00  0.00    +0.000 NA
ATOM     21  C   UNL     1       6.932   4.947  16.286  0.00  0.00    +0.000 A 
BRANCH  21  22
ATOM     22  C   UNL     1       6.845   4.653  14.845  0.00  0.00    +0.000 A 
ATOM     23  C   UNL     1       7.706   5.334  13.970  0.00  0.00    +0.000 A 
ATOM     24  C   UNL     1       7.670   5.101  12.593  0.00  0.00    +0.000 A 
ATOM     25  C   UNL     1       6.770   4.179  12.068  0.00  0.00    +0.000 A 
ATOM     26  C   UNL     1       5.889   3.514  12.916  0.00  0.00    +0.000 A 
ATOM     27  C   UNL     1       5.913   3.766  14.292  0.00  0.00    +0.000 A 
ENDBRANCH  21  22
ENDBRANCH  16  17
ENDBRANCH   3  16
TORSDOF 5
ENDMDL
MODEL 5
REMARK VINA RESULT:      -8.1      5.855      8.227
REMARK  Name = 
REMARK  5 active torsions:
REMARK  status: ('A' for Active; 'I' for Inactive)
REMARK    1  A    between atoms: C_2  and  C_5
REMARK    2  A    between atoms: C_8  and  C_9
REMARK    3  A    between atoms: C_11  and  C_12
REMARK    4  A    between atoms: C_12  and  N_13
REMARK    5  A    between atoms: C_17  and  C_18
REMARK                            x       y       z     vdW  Elec       q    Type
REMARK                         _______ _______ _______ _____ _____    ______ ____
ROOT
ATOM      1  C   UNL     1       8.358   8.902  18.328  0.00  0.00    +0.000 A 
ATOM      2  N   UNL     1       8.394   7.698  18.862  0.00  0.00    +0.000 NA
ATOM      3  C   UNL     1       7.533   6.954  18.079  0.00  0.00    +0.000 A 
ATOM      4  C   UNL     1       7.042   7.744  17.067  0.00  0.00    +0.000 A 
ATOM      5  O   UNL     1       7.558   8.993  17.218  0.00  0.00    +0.000 OA
ENDROOT
BRANCH   1   9
ATOM      6  C   UNL     1      10.307  12.516  19.569  0.00  0.00    +0.000 A 
ATOM      7  C   UNL     1       9.926  12.330  18.234  0.00  0.00    +0.000 A 
ATOM      8  C   UNL     1       9.291  11.149  17.838  0.00  0.00    +0.000 A 
ATOM      9  C   UNL     1       9.023  10.128  18.762  0.00  0.00    +0.000 A 
ATOM     10  C   UNL     1       9.416  10.315  20.094  0.00  0.00    +0.000 A 
ATOM     11  C   UNL     1      10.051  11.494  20.494  0.00  0.00    +0.000 A 
BRANCH   6  13
ATOM     12  F   UNL     1      12.333  13.775  19.880  0.00  0.00    +0.000 F 
ATOM     13  C   UNL     1      10.980  13.788  20.028  0.00  0.00    +0.000 C 
ATOM     14  F   UNL     1      10.749  14.051  21.345  0.00  0.00    +0.000 F 
ATOM     15  F   UNL     1      10.539  14.881  19.346  0.00  0.00    +0.000 F 
ENDBRANCH   6  13
ENDBRANCH   1   9
BRANCH   3  16
ATOM     16  C   UNL     1       7.236   5.537  18.402  0.00  0.00    +0.000 C 
BRANCH  16  17
ATOM     17  N   UNL     1       6.535   4.824  17.335  0.00  0.00    +0.000 N 
ATOM     18  C   UNL     1       7.081   4.369  16.159  0.00  0.00    +0.000 A 
ATOM     19  C   UNL     1       6.081   3.681  15.528  0.00  0.00    +0.000 A 
ATOM     20  N   UNL     1       4.941   3.707  16.277  0.00  0.00    +0.000 NA
ATOM     21  C   UNL     1       5.204   4.425  17.359  0.00  0.00    +0.000 A 
BRANCH  21  22
ATOM     22  C   UNL     1       4.216   4.664  18.425  0.00  0.00    +0.000 A 
ATOM     23  C   UNL     1       3.872   3.596  19.269  0.00  0.00    +0.000 A 
ATOM     24  C   UNL     1       2.939   3.758  20.297  0.00  0.00    +0.000 A 
ATOM     25  C   UNL     1       2.336   4.996  20.498  0.00  0.00    +0.000 A 
ATOM     26  C   UNL     1       2.644   6.059  19.656  0.00  0.00    +0.000 A 
ATOM     27  C   UNL     1       3.562   5.888  18.614  0.00  0.00    +0.000 A 
ENDBRANCH  21  22
ENDBRANCH  16  17
ENDBRANCH   3  16
TORSDOF 5
ENDMDL
MODEL 6
REMARK VINA RESULT:      -8.1      1.392      2.069
REMARK  Name = 
REMARK  5 active torsions:
REMARK  status: ('A' for Active; 'I' for Inactive)
REMARK    1  A    between atoms: C_2  and  C_5
REMARK    2  A    between atoms: C_8  and  C_9
REMARK    3  A    between atoms: C_11  and  C_12
REMARK    4  A    between atoms: C_12  and  N_13
REMARK    5  A    between atoms: C_17  and  C_18
REMARK                            x       y       z     vdW  Elec       q    Type
REMARK                         _______ _______ _______ _____ _____    ______ ____
ROOT
ATOM      1  C   UNL     1       1.192   8.691  20.319  0.00  0.00    +0.000 A 
ATOM      2  N   UNL     1       1.801   7.609  20.762  0.00  0.00    +0.000 NA
ATOM      3  C   UNL     1       2.447   7.105  19.651  0.00  0.00    +0.000 A 
ATOM      4  C   UNL     1       2.231   7.940  18.581  0.00  0.00    +0.000 A 
ATOM      5  O   UNL     1       1.426   8.956  18.994  0.00  0.00    +0.000 OA
ENDROOT
BRANCH   1   9
ATOM      6  C   UNL     1      -1.414  11.413  22.369  0.00  0.00    +0.000 A 
ATOM      7  C   UNL     1      -1.080  11.616  21.023  0.00  0.00    +0.000 A 
ATOM      8  C   UNL     1      -0.230  10.724  20.363  0.00  0.00    +0.000 A 
ATOM      9  C   UNL     1       0.307   9.611  21.027  0.00  0.00    +0.000 A 
ATOM     10  C   UNL     1      -0.021   9.419  22.377  0.00  0.00    +0.000 A 
ATOM     11  C   UNL     1      -0.871  10.308  23.040  0.00  0.00    +0.000 A 
BRANCH   6  13
ATOM     12  F   UNL     1      -3.159  11.726  23.995  0.00  0.00    +0.000 F 
ATOM     13  C   UNL     1      -2.342  12.351  23.103  0.00  0.00    +0.000 C 
ATOM     14  F   UNL     1      -3.163  13.034  22.258  0.00  0.00    +0.000 F 
ATOM     15  F   UNL     1      -1.666  13.296  23.813  0.00  0.00    +0.000 F 
ENDBRANCH   6  13
ENDBRANCH   1   9
BRANCH   3  16
ATOM     16  C   UNL     1       3.199   5.828  19.717  0.00  0.00    +0.000 C 
BRANCH  16  17
ATOM     17  N   UNL     1       2.546   4.723  19.017  0.00  0.00    +0.000 N 
ATOM     18  C   UNL     1       1.378   4.099  19.384  0.00  0.00    +0.000 A 
ATOM     19  C   UNL     1       1.106   3.205  18.383  0.00  0.00    +0.000 A 
ATOM     20  N   UNL     1       2.073   3.259  17.423  0.00  0.00    +0.000 NA
ATOM     21  C   UNL     1       2.964   4.157  17.819  0.00  0.00    +0.000 A 
BRANCH  21  22
ATOM     22  C   UNL     1       4.154   4.511  17.027  0.00  0.00    +0.000 A 
ATOM     23  C   UNL     1       4.440   5.870  16.819  0.00  0.00    +0.000 A 
ATOM     24  C   UNL     1       5.552   6.270  16.074  0.00  0.00    +0.000 A 
ATOM     25  C   UNL     1       6.402   5.313  15.527  0.00  0.00    +0.000 A 
ATOM     26  C   UNL     1       6.122   3.961  15.700  0.00  0.00    +0.000 A 
ATOM     27  C   UNL     1       4.994   3.564  16.427  0.00  0.00    +0.000 A 
ENDBRANCH  21  22
ENDBRANCH  16  17
ENDBRANCH   3  16
TORSDOF 5
ENDMDL
MODEL 7
REMARK VINA RESULT:      -8.1      5.772      8.201
REMARK  Name = 
REMARK  5 active torsions:
REMARK  status: ('A' for Active; 'I' for Inactive)
REMARK    1  A    between atoms: C_2  and  C_5
REMARK    2  A    between atoms: C_8  and  C_9
REMARK    3  A    between atoms: C_11  and  C_12
REMARK    4  A    between atoms: C_12  and  N_13
REMARK    5  A    between atoms: C_17  and  C_18
REMARK                            x       y       z     vdW  Elec       q    Type
REMARK                         _______ _______ _______ _____ _____    ______ ____
ROOT
ATOM      1  C   UNL     1       8.387   8.983  18.319  0.00  0.00    +0.000 A 
ATOM      2  N   UNL     1       8.442   7.777  18.849  0.00  0.00    +0.000 NA
ATOM      3  C   UNL     1       7.592   7.022  18.064  0.00  0.00    +0.000 A 
ATOM      4  C   UNL     1       7.089   7.807  17.055  0.00  0.00    +0.000 A 
ATOM      5  O   UNL     1       7.585   9.064  17.209  0.00  0.00    +0.000 OA
ENDROOT
BRANCH   1   9
ATOM      6  C   UNL     1      10.289  12.595  19.636  0.00  0.00    +0.000 A 
ATOM      7  C   UNL     1      10.056  11.541  20.529  0.00  0.00    +0.000 A 
ATOM      8  C   UNL     1       9.435  10.367  20.091  0.00  0.00    +0.000 A 
ATOM      9  C   UNL     1       9.032  10.217  18.756  0.00  0.00    +0.000 A 
ATOM     10  C   UNL     1       9.258  11.279  17.869  0.00  0.00    +0.000 A 
ATOM     11  C   UNL     1       9.878  12.453  18.303  0.00  0.00    +0.000 A 
BRANCH   6  13
ATOM     12  F   UNL     1      12.329  13.823  19.979  0.00  0.00    +0.000 F 
ATOM     13  C   UNL     1      10.971  13.867  20.076  0.00  0.00    +0.000 C 
ATOM     14  F   UNL     1      10.698  14.180  21.374  0.00  0.00    +0.000 F 
ATOM     15  F   UNL     1      10.579  14.946  19.342  0.00  0.00    +0.000 F 
ENDBRANCH   6  13
ENDBRANCH   1   9
BRANCH   3  16
ATOM     16  C   UNL     1       7.317   5.600  18.383  0.00  0.00    +0.000 C 
BRANCH  16  17
ATOM     17  N   UNL     1       6.616   4.883  17.319  0.00  0.00    +0.000 N 
ATOM     18  C   UNL     1       7.185   4.308  16.208  0.00  0.00    +0.000 A 
ATOM     19  C   UNL     1       6.164   3.669  15.558  0.00  0.00    +0.000 A 
ATOM     20  N   UNL     1       4.991   3.840  16.232  0.00  0.00    +0.000 NA
ATOM     21  C   UNL     1       5.256   4.602  17.284  0.00  0.00    +0.000 A 
BRANCH  21  22
ATOM     22  C   UNL     1       4.235   4.993  18.271  0.00  0.00    +0.000 A 
ATOM     23  C   UNL     1       3.696   6.287  18.200  0.00  0.00    +0.000 A 
ATOM     24  C   UNL     1       2.726   6.719  19.109  0.00  0.00    +0.000 A 
ATOM     25  C   UNL     1       2.277   5.858  20.105  0.00  0.00    +0.000 A 
ATOM     26  C   UNL     1       2.818   4.580  20.209  0.00  0.00    +0.000 A 
ATOM     27  C   UNL     1       3.805   4.159  19.311  0.00  0.00    +0.000 A 
ENDBRANCH  21  22
ENDBRANCH  16  17
ENDBRANCH   3  16
TORSDOF 5
ENDMDL
MODEL 8
REMARK VINA RESULT:      -8.1      1.224      1.825
REMARK  Name = 
REMARK  5 active torsions:
REMARK  status: ('A' for Active; 'I' for Inactive)
REMARK    1  A    between atoms: C_2  and  C_5
REMARK    2  A    between atoms: C_8  and  C_9
REMARK    3  A    between atoms: C_11  and  C_12
REMARK    4  A    between atoms: C_12  and  N_13
REMARK    5  A    between atoms: C_17  and  C_18
REMARK                            x       y       z     vdW  Elec       q    Type
REMARK                         _______ _______ _______ _____ _____    ______ ____
ROOT
ATOM      1  C   UNL     1       1.469   8.564  20.042  0.00  0.00    +0.000 A 
ATOM      2  N   UNL     1       2.081   7.493  20.508  0.00  0.00    +0.000 NA
ATOM      3  C   UNL     1       2.724   6.964  19.406  0.00  0.00    +0.000 A 
ATOM      4  C   UNL     1       2.503   7.775  18.318  0.00  0.00    +0.000 A 
ATOM      5  O   UNL     1       1.698   8.799  18.710  0.00  0.00    +0.000 OA
ENDROOT
BRANCH   1   9
ATOM      6  C   UNL     1      -1.116  11.298  22.102  0.00  0.00    +0.000 A 
ATOM      7  C   UNL     1      -0.382  10.335  22.808  0.00  0.00    +0.000 A 
ATOM      8  C   UNL     1       0.459   9.448  22.129  0.00  0.00    +0.000 A 
ATOM      9  C   UNL     1       0.585   9.499  20.733  0.00  0.00    +0.000 A 
ATOM     10  C   UNL     1      -0.160  10.456  20.030  0.00  0.00    +0.000 A 
ATOM     11  C   UNL     1      -1.000  11.344  20.706  0.00  0.00    +0.000 A 
BRANCH   6  13
ATOM     12  F   UNL     1      -3.004  11.687  23.542  0.00  0.00    +0.000 F 
ATOM     13  C   UNL     1      -2.019  12.278  22.811  0.00  0.00    +0.000 C 
ATOM     14  F   UNL     1      -2.649  13.122  21.946  0.00  0.00    +0.000 F 
ATOM     15  F   UNL     1      -1.336  13.075  23.679  0.00  0.00    +0.000 F 
ENDBRANCH   6  13
ENDBRANCH   1   9
BRANCH   3  16
ATOM     16  C   UNL     1       3.477   5.690  19.497  0.00  0.00    +0.000 C 
BRANCH  16  17
ATOM     17  N   UNL     1       2.868   4.590  18.751  0.00  0.00    +0.000 N 
ATOM     18  C   UNL     1       1.634   4.031  18.981  0.00  0.00    +0.000 A 
ATOM     19  C   UNL     1       1.451   3.115  17.980  0.00  0.00    +0.000 A 
ATOM     20  N   UNL     1       2.535   3.093  17.152  0.00  0.00    +0.000 NA
ATOM     21  C   UNL     1       3.409   3.964  17.635  0.00  0.00    +0.000 A 
BRANCH  21  22
ATOM     22  C   UNL     1       4.707   4.238  16.996  0.00  0.00    +0.000 A 
ATOM     23  C   UNL     1       4.745   4.403  15.601  0.00  0.00    +0.000 A 
ATOM     24  C   UNL     1       5.946   4.661  14.936  0.00  0.00    +0.000 A 
ATOM     25  C   UNL     1       7.132   4.763  15.657  0.00  0.00    +0.000 A 
ATOM     26  C   UNL     1       7.120   4.577  17.036  0.00  0.00    +0.000 A 
ATOM     27  C   UNL     1       5.919   4.296  17.697  0.00  0.00    +0.000 A 
ENDBRANCH  21  22
ENDBRANCH  16  17
ENDBRANCH   3  16
TORSDOF 5
ENDMDL
MODEL 9
REMARK VINA RESULT:      -8.0      0.537      1.323
REMARK  Name = 
REMARK  5 active torsions:
REMARK  status: ('A' for Active; 'I' for Inactive)
REMARK    1  A    between atoms: C_2  and  C_5
REMARK    2  A    between atoms: C_8  and  C_9
REMARK    3  A    between atoms: C_11  and  C_12
REMARK    4  A    between atoms: C_12  and  N_13
REMARK    5  A    between atoms: C_17  and  C_18
REMARK                            x       y       z     vdW  Elec       q    Type
REMARK                         _______ _______ _______ _____ _____    ______ ____
ROOT
ATOM      1  C   UNL     1       1.171   8.653  20.245  0.00  0.00    +0.000 A 
ATOM      2  N   UNL     1       1.660   7.569  20.813  0.00  0.00    +0.000 NA
ATOM      3  C   UNL     1       2.365   6.946  19.802  0.00  0.00    +0.000 A 
ATOM      4  C   UNL     1       2.305   7.715  18.665  0.00  0.00    +0.000 A 
ATOM      5  O   UNL     1       1.540   8.808  18.933  0.00  0.00    +0.000 OA
ENDROOT
BRANCH   1   9
ATOM      6  C   UNL     1      -1.415  11.671  21.859  0.00  0.00    +0.000 A 
ATOM      7  C   UNL     1      -1.181  11.590  20.480  0.00  0.00    +0.000 A 
ATOM      8  C   UNL     1      -0.337  10.603  19.962  0.00  0.00    +0.000 A 
ATOM      9  C   UNL     1       0.293   9.677  20.806  0.00  0.00    +0.000 A 
ATOM     10  C   UNL     1       0.065   9.769  22.186  0.00  0.00    +0.000 A 
ATOM     11  C   UNL     1      -0.778  10.754  22.707  0.00  0.00    +0.000 A 
BRANCH   6  13
ATOM     12  F   UNL     1      -3.652  12.374  22.400  0.00  0.00    +0.000 F 
ATOM     13  C   UNL     1      -2.334  12.716  22.444  0.00  0.00    +0.000 C 
ATOM     14  F   UNL     1      -2.236  13.913  21.801  0.00  0.00    +0.000 F 
ATOM     15  F   UNL     1      -2.059  12.972  23.754  0.00  0.00    +0.000 F 
ENDBRANCH   6  13
ENDBRANCH   1   9
BRANCH   3  16
ATOM     16  C   UNL     1       3.016   5.631  20.021  0.00  0.00    +0.000 C 
BRANCH  16  17
ATOM     17  N   UNL     1       3.107   4.811  18.814  0.00  0.00    +0.000 N 
ATOM     18  C   UNL     1       2.139   3.968  18.323  0.00  0.00    +0.000 A 
ATOM     19  C   UNL     1       2.625   3.499  17.133  0.00  0.00    +0.000 A 
ATOM     20  N   UNL     1       3.860   4.022  16.885  0.00  0.00    +0.000 NA
ATOM     21  C   UNL     1       4.168   4.794  17.918  0.00  0.00    +0.000 A 
BRANCH  21  22
ATOM     22  C   UNL     1       5.427   5.553  18.006  0.00  0.00    +0.000 A 
ATOM     23  C   UNL     1       6.386   5.153  18.951  0.00  0.00    +0.000 A 
ATOM     24  C   UNL     1       7.598   5.834  19.086  0.00  0.00    +0.000 A 
ATOM     25  C   UNL     1       7.873   6.929  18.272  0.00  0.00    +0.000 A 
ATOM     26  C   UNL     1       6.926   7.357  17.347  0.00  0.00    +0.000 A 
ATOM     27  C   UNL     1       5.704   6.687  17.231  0.00  0.00    +0.000 A 
ENDBRANCH  21  22
ENDBRANCH  16  17
ENDBRANCH   3  16
TORSDOF 5
ENDMDL
