MODEL 1
REMARK VINA RESULT:      -7.6      0.000      0.000
REMARK  Name = 
REMARK  3 active torsions:
REMARK  status: ('A' for Active; 'I' for Inactive)
REMARK    1  A    between atoms: C_1  and  C_2
REMARK    2  A    between atoms: C_15  and  C_16
REMARK    3  A    between atoms: C_17  and  C_18
REMARK                            x       y       z     vdW  Elec       q    Type
REMARK                         _______ _______ _______ _____ _____    ______ ____
ROOT
ATOM      1  C   UNL     1       0.585   7.766  21.906  0.00  0.00    +0.000 C 
ATOM      2  C   UNL     1       1.293   7.864  20.600  0.00  0.00    +0.000 A 
ATOM      3  N   UNL     1       2.029   6.814  20.219  0.00  0.00    +0.000 NA
ATOM      4  N   UNL     1       2.610   7.192  19.052  0.00  0.00    +0.000 N 
ATOM      5  C   UNL     1       3.516   6.316  18.427  0.00  0.00    +0.000 A 
ATOM      6  N   UNL     1       3.612   6.185  17.135  0.00  0.00    +0.000 NA
ATOM      7  C   UNL     1       4.722   5.412  16.762  0.00  0.00    +0.000 A 
ATOM      8  C   UNL     1       4.952   4.864  15.485  0.00  0.00    +0.000 A 
ATOM      9  C   UNL     1       6.198   4.264  15.434  0.00  0.00    +0.000 A 
ATOM     10  S   UNL     1       7.056   4.401  16.924  0.00  0.00    +0.000 S 
ATOM     11  C   UNL     1       5.740   5.170  17.640  0.00  0.00    +0.000 A 
ATOM     12  C   UNL     1       5.620   5.545  19.014  0.00  0.00    +0.000 A 
ATOM     13  O   UNL     1       6.550   5.818  19.775  0.00  0.00    +0.000 OA
ATOM     14  N   UNL     1       4.303   5.698  19.379  0.00  0.00    +0.000 N 
ATOM     15  C   UNL     1       2.247   8.468  18.679  0.00  0.00    +0.000 A 
ATOM     16  C   UNL     1       2.818   9.183  17.503  0.00  0.00    +0.000 C 
ATOM     17  C   UNL     1       1.385   8.938  19.666  0.00  0.00    +0.000 A 
ATOM     18  H   UNL     1       3.926   4.761  19.467  0.00  0.00    +0.000 HD
ENDROOT
BRANCH  17  19
ATOM     19  C   UNL     1       0.830  10.290  19.683  0.00  0.00    +0.000 C 
ATOM     20  O   UNL     1       1.508  11.234  20.093  0.00  0.00    +0.000 OA
ATOM     21  N   UNL     1      -0.452  10.486  19.175  0.00  0.00    +0.000 N 
ATOM     22  C   UNL     1      -0.990  11.849  19.176  0.00  0.00    +0.000 C 
ATOM     23  C   UNL     1      -2.502  11.896  18.937  0.00  0.00    +0.000 C 
ATOM     24  C   UNL     1      -2.811  11.197  17.634  0.00  0.00    +0.000 A 
ATOM     25  C   UNL     1      -3.805  11.625  16.760  0.00  0.00    +0.000 A 
ATOM     26  C   UNL     1      -4.020  10.944  15.562  0.00  0.00    +0.000 A 
ATOM     27  C   UNL     1      -3.251   9.824  15.235  0.00  0.00    +0.000 A 
ATOM     28  C   UNL     1      -2.277   9.370  16.120  0.00  0.00    +0.000 A 
ATOM     29  C   UNL     1      -2.058  10.051  17.322  0.00  0.00    +0.000 A 
ATOM     30  C   UNL     1      -1.125   9.490  18.351  0.00  0.00    +0.000 C 
ENDBRANCH  17  19
TORSDOF 1
ENDMDL
MODEL 2
REMARK VINA RESULT:      -7.6      2.651      3.480
REMARK  Name = 
REMARK  3 active torsions:
REMARK  status: ('A' for Active; 'I' for Inactive)
REMARK    1  A    between atoms: C_1  and  C_2
REMARK    2  A    between atoms: C_15  and  C_16
REMARK    3  A    between atoms: C_17  and  C_18
REMARK                            x       y       z     vdW  Elec       q    Type
REMARK                         _______ _______ _______ _____ _____    ______ ____
ROOT
ATOM      1  C   UNL     1       2.606  10.723  17.518  0.00  0.00    +0.000 C 
ATOM      2  C   UNL     1       2.132   9.752  18.542  0.00  0.00    +0.000 A 
ATOM      3  N   UNL     1       2.586   8.496  18.456  0.00  0.00    +0.000 NA
ATOM      4  N   UNL     1       1.952   7.820  19.447  0.00  0.00    +0.000 N 
ATOM      5  C   UNL     1       2.168   6.436  19.574  0.00  0.00    +0.000 A 
ATOM      6  N   UNL     1       2.228   5.821  20.720  0.00  0.00    +0.000 NA
ATOM      7  C   UNL     1       2.243   4.426  20.573  0.00  0.00    +0.000 A 
ATOM      8  C   UNL     1       2.572   3.495  21.577  0.00  0.00    +0.000 A 
ATOM      9  C   UNL     1       2.365   2.203  21.125  0.00  0.00    +0.000 A 
ATOM     10  S   UNL     1       1.760   2.160  19.511  0.00  0.00    +0.000 S 
ATOM     11  C   UNL     1       1.863   3.837  19.400  0.00  0.00    +0.000 A 
ATOM     12  C   UNL     1       1.615   4.628  18.236  0.00  0.00    +0.000 A 
ATOM     13  O   UNL     1       0.861   4.333  17.307  0.00  0.00    +0.000 OA
ATOM     14  N   UNL     1       2.230   5.855  18.323  0.00  0.00    +0.000 N 
ATOM     15  C   UNL     1       1.105   8.632  20.172  0.00  0.00    +0.000 A 
ATOM     16  C   UNL     1       0.199   8.136  21.245  0.00  0.00    +0.000 C 
ATOM     17  C   UNL     1       1.198   9.901  19.609  0.00  0.00    +0.000 A 
ATOM     18  H   UNL     1       3.215   5.687  18.157  0.00  0.00    +0.000 HD
ENDROOT
BRANCH  17  19
ATOM     19  C   UNL     1       0.394  11.043  20.044  0.00  0.00    +0.000 C 
ATOM     20  O   UNL     1       0.915  11.962  20.679  0.00  0.00    +0.000 OA
ATOM     21  N   UNL     1      -0.948  11.086  19.675  0.00  0.00    +0.000 N 
ATOM     22  C   UNL     1      -1.739  12.246  20.097  0.00  0.00    +0.000 C 
ATOM     23  C   UNL     1      -3.247  12.026  19.953  0.00  0.00    +0.000 C 
ATOM     24  C   UNL     1      -3.550  11.662  18.519  0.00  0.00    +0.000 A 
ATOM     25  C   UNL     1      -4.697  12.087  17.854  0.00  0.00    +0.000 A 
ATOM     26  C   UNL     1      -4.901  11.731  16.521  0.00  0.00    +0.000 A 
ATOM     27  C   UNL     1      -3.968  10.939  15.847  0.00  0.00    +0.000 A 
ATOM     28  C   UNL     1      -2.835  10.482  16.516  0.00  0.00    +0.000 A 
ATOM     29  C   UNL     1      -2.627  10.839  17.852  0.00  0.00    +0.000 A 
ATOM     30  C   UNL     1      -1.497  10.233  18.628  0.00  0.00    +0.000 C 
ENDBRANCH  17  19
TORSDOF 1
ENDMDL
MODEL 3
REMARK VINA RESULT:      -7.4      5.633      7.617
REMARK  Name = 
REMARK  3 active torsions:
REMARK  status: ('A' for Active; 'I' for Inactive)
REMARK    1  A    between atoms: C_1  and  C_2
REMARK    2  A    between atoms: C_15  and  C_16
REMARK    3  A    between atoms: C_17  and  C_18
REMARK                            x       y       z     vdW  Elec       q    Type
REMARK                         _______ _______ _______ _____ _____    ______ ____
ROOT
ATOM      1  C   UNL     1      -0.229   9.665  20.538  0.00  0.00    +0.000 C 
ATOM      2  C   UNL     1       0.041  11.027  20.002  0.00  0.00    +0.000 A 
ATOM      3  N   UNL     1       1.279  11.512  20.149  0.00  0.00    +0.000 NA
ATOM      4  N   UNL     1       1.229  12.771  19.646  0.00  0.00    +0.000 N 
ATOM      5  C   UNL     1       2.377  13.581  19.723  0.00  0.00    +0.000 A 
ATOM      6  N   UNL     1       2.723  14.426  18.795  0.00  0.00    +0.000 NA
ATOM      7  C   UNL     1       3.780  15.255  19.198  0.00  0.00    +0.000 A 
ATOM      8  C   UNL     1       4.555  16.072  18.354  0.00  0.00    +0.000 A 
ATOM      9  C   UNL     1       5.429  16.846  19.098  0.00  0.00    +0.000 A 
ATOM     10  S   UNL     1       5.268  16.573  20.793  0.00  0.00    +0.000 S 
ATOM     11  C   UNL     1       4.114  15.379  20.517  0.00  0.00    +0.000 A 
ATOM     12  C   UNL     1       3.517  14.532  21.501  0.00  0.00    +0.000 A 
ATOM     13  O   UNL     1       3.354  14.807  22.692  0.00  0.00    +0.000 OA
ATOM     14  N   UNL     1       3.007  13.386  20.936  0.00  0.00    +0.000 N 
ATOM     15  C   UNL     1      -0.024  13.093  19.171  0.00  0.00    +0.000 A 
ATOM     16  C   UNL     1      -0.398  14.445  18.667  0.00  0.00    +0.000 C 
ATOM     17  C   UNL     1      -0.826  11.976  19.385  0.00  0.00    +0.000 A 
ATOM     18  H   UNL     1       3.807  12.798  20.728  0.00  0.00    +0.000 HD
ENDROOT
BRANCH  17  19
ATOM     19  C   UNL     1      -2.257  11.935  19.086  0.00  0.00    +0.000 C 
ATOM     20  O   UNL     1      -2.661  11.375  18.066  0.00  0.00    +0.000 OA
ATOM     21  N   UNL     1      -3.142  12.491  20.007  0.00  0.00    +0.000 N 
ATOM     22  C   UNL     1      -4.576  12.424  19.708  0.00  0.00    +0.000 C 
ATOM     23  C   UNL     1      -5.414  13.359  20.585  0.00  0.00    +0.000 C 
ATOM     24  C   UNL     1      -5.151  13.030  22.035  0.00  0.00    +0.000 A 
ATOM     25  C   UNL     1      -6.139  13.079  23.015  0.00  0.00    +0.000 A 
ATOM     26  C   UNL     1      -5.829  12.740  24.332  0.00  0.00    +0.000 A 
ATOM     27  C   UNL     1      -4.530  12.361  24.682  0.00  0.00    +0.000 A 
ATOM     28  C   UNL     1      -3.530  12.343  23.713  0.00  0.00    +0.000 A 
ATOM     29  C   UNL     1      -3.837  12.681  22.391  0.00  0.00    +0.000 A 
ATOM     30  C   UNL     1      -2.747  12.814  21.372  0.00  0.00    +0.000 C 
ENDBRANCH  17  19
TORSDOF 1
ENDMDL
MODEL 4
REMARK VINA RESULT:      -7.2      6.430     10.436
REMARK  Name = 
REMARK  3 active torsions:
REMARK  status: ('A' for Active; 'I' for Inactive)
REMARK    1  A    between atoms: C_1  and  C_2
REMARK    2  A    between atoms: C_15  and  C_16
REMARK    3  A    between atoms: C_17  and  C_18
REMARK                            x       y       z     vdW  Elec       q    Type
REMARK                         _______ _______ _______ _____ _____    ______ ____
ROOT
ATOM      1  C   UNL     1      -0.445  10.058  23.219  0.00  0.00    +0.000 C 
ATOM      2  C   UNL     1      -1.269  11.137  22.609  0.00  0.00    +0.000 A 
ATOM      3  N   UNL     1      -2.212  11.698  23.374  0.00  0.00    +0.000 NA
ATOM      4  N   UNL     1      -2.848  12.582  22.564  0.00  0.00    +0.000 N 
ATOM      5  C   UNL     1      -3.955  13.291  23.065  0.00  0.00    +0.000 A 
ATOM      6  N   UNL     1      -4.218  14.527  22.750  0.00  0.00    +0.000 NA
ATOM      7  C   UNL     1      -5.478  14.935  23.212  0.00  0.00    +0.000 A 
ATOM      8  C   UNL     1      -5.942  16.263  23.276  0.00  0.00    +0.000 A 
ATOM      9  C   UNL     1      -7.270  16.294  23.665  0.00  0.00    +0.000 A 
ATOM     10  S   UNL     1      -7.917  14.715  23.919  0.00  0.00    +0.000 S 
ATOM     11  C   UNL     1      -6.417  14.021  23.599  0.00  0.00    +0.000 A 
ATOM     12  C   UNL     1      -6.079  12.637  23.716  0.00  0.00    +0.000 A 
ATOM     13  O   UNL     1      -6.857  11.689  23.595  0.00  0.00    +0.000 OA
ATOM     14  N   UNL     1      -4.723  12.461  23.858  0.00  0.00    +0.000 N 
ATOM     15  C   UNL     1      -2.317  12.597  21.291  0.00  0.00    +0.000 A 
ATOM     16  C   UNL     1      -2.888  13.387  20.164  0.00  0.00    +0.000 C 
ATOM     17  C   UNL     1      -1.282  11.667  21.285  0.00  0.00    +0.000 A 
ATOM     18  H   UNL     1      -4.504  12.729  24.811  0.00  0.00    +0.000 HD
ENDROOT
BRANCH  17  19
ATOM     19  C   UNL     1      -0.506  11.325  20.094  0.00  0.00    +0.000 C 
ATOM     20  O   UNL     1      -0.828  10.358  19.400  0.00  0.00    +0.000 OA
ATOM     21  N   UNL     1       0.562  12.147  19.741  0.00  0.00    +0.000 N 
ATOM     22  C   UNL     1       1.319  11.807  18.532  0.00  0.00    +0.000 C 
ATOM     23  C   UNL     1       2.657  12.546  18.438  0.00  0.00    +0.000 C 
ATOM     24  C   UNL     1       2.398  14.032  18.510  0.00  0.00    +0.000 A 
ATOM     25  C   UNL     1       3.126  14.966  17.778  0.00  0.00    +0.000 A 
ATOM     26  C   UNL     1       2.817  16.322  17.877  0.00  0.00    +0.000 A 
ATOM     27  C   UNL     1       1.787  16.756  18.717  0.00  0.00    +0.000 A 
ATOM     28  C   UNL     1       1.078  15.831  19.478  0.00  0.00    +0.000 A 
ATOM     29  C   UNL     1       1.384  14.470  19.379  0.00  0.00    +0.000 A 
ATOM     30  C   UNL     1       0.737  13.481  20.301  0.00  0.00    +0.000 C 
ENDBRANCH  17  19
TORSDOF 1
ENDMDL
MODEL 5
REMARK VINA RESULT:      -6.9      5.480      7.444
REMARK  Name = 
REMARK  3 active torsions:
REMARK  status: ('A' for Active; 'I' for Inactive)
REMARK    1  A    between atoms: C_1  and  C_2
REMARK    2  A    between atoms: C_15  and  C_16
REMARK    3  A    between atoms: C_17  and  C_18
REMARK                            x       y       z     vdW  Elec       q    Type
REMARK                         _______ _______ _______ _____ _____    ______ ____
ROOT
ATOM      1  C   UNL     1      -0.671  11.023  21.944  0.00  0.00    +0.000 C 
ATOM      2  C   UNL     1       0.333  11.685  21.066  0.00  0.00    +0.000 A 
ATOM      3  N   UNL     1       1.083  12.651  21.609  0.00  0.00    +0.000 NA
ATOM      4  N   UNL     1       1.847  13.122  20.592  0.00  0.00    +0.000 N 
ATOM      5  C   UNL     1       2.706  14.210  20.831  0.00  0.00    +0.000 A 
ATOM      6  N   UNL     1       3.880  14.332  20.281  0.00  0.00    +0.000 NA
ATOM      7  C   UNL     1       4.447  15.594  20.516  0.00  0.00    +0.000 A 
ATOM      8  C   UNL     1       5.792  15.947  20.298  0.00  0.00    +0.000 A 
ATOM      9  C   UNL     1       5.979  17.300  20.518  0.00  0.00    +0.000 A 
ATOM     10  S   UNL     1       4.519  18.102  20.961  0.00  0.00    +0.000 S 
ATOM     11  C   UNL     1       3.681  16.642  20.942  0.00  0.00    +0.000 A 
ATOM     12  C   UNL     1       2.321  16.438  21.332  0.00  0.00    +0.000 A 
ATOM     13  O   UNL     1       1.420  17.278  21.284  0.00  0.00    +0.000 OA
ATOM     14  N   UNL     1       2.084  15.124  21.659  0.00  0.00    +0.000 N 
ATOM     15  C   UNL     1       1.600  12.462  19.406  0.00  0.00    +0.000 A 
ATOM     16  C   UNL     1       2.211  12.844  18.102  0.00  0.00    +0.000 C 
ATOM     17  C   UNL     1       0.617  11.515  19.679  0.00  0.00    +0.000 A 
ATOM     18  H   UNL     1       2.503  14.983  22.571  0.00  0.00    +0.000 HD
ENDROOT
BRANCH  17  19
ATOM     19  C   UNL     1       0.017  10.652  18.663  0.00  0.00    +0.000 C 
ATOM     20  O   UNL     1       0.567   9.597  18.343  0.00  0.00    +0.000 OA
ATOM     21  N   UNL     1      -1.208  11.027  18.116  0.00  0.00    +0.000 N 
ATOM     22  C   UNL     1      -1.812  10.142  17.115  0.00  0.00    +0.000 C 
ATOM     23  C   UNL     1      -2.949  10.809  16.336  0.00  0.00    +0.000 C 
ATOM     24  C   UNL     1      -3.988  11.299  17.316  0.00  0.00    +0.000 A 
ATOM     25  C   UNL     1      -5.355  11.262  17.055  0.00  0.00    +0.000 A 
ATOM     26  C   UNL     1      -6.259  11.712  18.017  0.00  0.00    +0.000 A 
ATOM     27  C   UNL     1      -5.805  12.211  19.241  0.00  0.00    +0.000 A 
ATOM     28  C   UNL     1      -4.438  12.283  19.494  0.00  0.00    +0.000 A 
ATOM     29  C   UNL     1      -3.528  11.832  18.533  0.00  0.00    +0.000 A 
ATOM     30  C   UNL     1      -2.057  12.043  18.726  0.00  0.00    +0.000 C 
ENDBRANCH  17  19
TORSDOF 1
ENDMDL
MODEL 6
REMARK VINA RESULT:      -6.7      7.031      7.911
REMARK  Name = 
REMARK  3 active torsions:
REMARK  status: ('A' for Active; 'I' for Inactive)
REMARK    1  A    between atoms: C_1  and  C_2
REMARK    2  A    between atoms: C_15  and  C_16
REMARK    3  A    between atoms: C_17  and  C_18
REMARK                            x       y       z     vdW  Elec       q    Type
REMARK                         _______ _______ _______ _____ _____    ______ ____
ROOT
ATOM      1  C   UNL     1       4.839  16.249  22.291  0.00  0.00    +0.000 C 
ATOM      2  C   UNL     1       5.434  15.648  21.066  0.00  0.00    +0.000 A 
ATOM      3  N   UNL     1       6.658  15.120  21.172  0.00  0.00    +0.000 NA
ATOM      4  N   UNL     1       6.981  14.715  19.918  0.00  0.00    +0.000 N 
ATOM      5  C   UNL     1       8.258  14.174  19.684  0.00  0.00    +0.000 A 
ATOM      6  N   UNL     1       8.484  13.201  18.849  0.00  0.00    +0.000 NA
ATOM      7  C   UNL     1       9.854  12.985  18.643  0.00  0.00    +0.000 A 
ATOM      8  C   UNL     1      10.427  11.857  18.025  0.00  0.00    +0.000 A 
ATOM      9  C   UNL     1      11.793  12.028  17.877  0.00  0.00    +0.000 A 
ATOM     10  S   UNL     1      12.333  13.554  18.471  0.00  0.00    +0.000 S 
ATOM     11  C   UNL     1      10.777  13.930  18.993  0.00  0.00    +0.000 A 
ATOM     12  C   UNL     1      10.388  15.084  19.742  0.00  0.00    +0.000 A 
ATOM     13  O   UNL     1      10.950  16.181  19.727  0.00  0.00    +0.000 OA
ATOM     14  N   UNL     1       9.203  14.874  20.408  0.00  0.00    +0.000 N 
ATOM     15  C   UNL     1       5.972  14.970  19.013  0.00  0.00    +0.000 A 
ATOM     16  C   UNL     1       6.095  14.735  17.547  0.00  0.00    +0.000 C 
ATOM     17  C   UNL     1       4.945  15.578  19.728  0.00  0.00    +0.000 A 
ATOM     18  H   UNL     1       9.428  14.278  21.197  0.00  0.00    +0.000 HD
ENDROOT
BRANCH  17  19
ATOM     19  C   UNL     1       3.715  16.077  19.116  0.00  0.00    +0.000 C 
ATOM     20  O   UNL     1       3.736  17.098  18.425  0.00  0.00    +0.000 OA
ATOM     21  N   UNL     1       2.544  15.343  19.289  0.00  0.00    +0.000 N 
ATOM     22  C   UNL     1       1.321  15.840  18.651  0.00  0.00    +0.000 C 
ATOM     23  C   UNL     1       0.052  15.172  19.189  0.00  0.00    +0.000 C 
ATOM     24  C   UNL     1       0.179  13.677  19.015  0.00  0.00    +0.000 A 
ATOM     25  C   UNL     1      -0.896  12.858  18.682  0.00  0.00    +0.000 A 
ATOM     26  C   UNL     1      -0.702  11.487  18.516  0.00  0.00    +0.000 A 
ATOM     27  C   UNL     1       0.566  10.924  18.691  0.00  0.00    +0.000 A 
ATOM     28  C   UNL     1       1.638  11.732  19.057  0.00  0.00    +0.000 A 
ATOM     29  C   UNL     1       1.447  13.107  19.223  0.00  0.00    +0.000 A 
ATOM     30  C   UNL     1       2.551  13.965  19.764  0.00  0.00    +0.000 C 
ENDBRANCH  17  19
TORSDOF 1
ENDMDL
MODEL 7
REMARK VINA RESULT:      -6.7      6.794      7.862
REMARK  Name = 
REMARK  3 active torsions:
REMARK  status: ('A' for Active; 'I' for Inactive)
REMARK    1  A    between atoms: C_1  and  C_2
REMARK    2  A    between atoms: C_15  and  C_16
REMARK    3  A    between atoms: C_17  and  C_18
REMARK                            x       y       z     vdW  Elec       q    Type
REMARK                         _______ _______ _______ _____ _____    ______ ____
ROOT
ATOM      1  C   UNL     1       4.055  15.688  22.597  0.00  0.00    +0.000 C 
ATOM      2  C   UNL     1       4.648  15.358  21.271  0.00  0.00    +0.000 A 
ATOM      3  N   UNL     1       5.961  15.107  21.230  0.00  0.00    +0.000 NA
ATOM      4  N   UNL     1       6.245  14.910  19.918  0.00  0.00    +0.000 N 
ATOM      5  C   UNL     1       7.580  14.691  19.535  0.00  0.00    +0.000 A 
ATOM      6  N   UNL     1       7.928  13.880  18.577  0.00  0.00    +0.000 NA
ATOM      7  C   UNL     1       9.288  13.994  18.254  0.00  0.00    +0.000 A 
ATOM      8  C   UNL     1      10.028  13.088  17.470  0.00  0.00    +0.000 A 
ATOM      9  C   UNL     1      11.306  13.570  17.249  0.00  0.00    +0.000 A 
ATOM     10  S   UNL     1      11.563  15.111  17.980  0.00  0.00    +0.000 S 
ATOM     11  C   UNL     1      10.018  15.080  18.648  0.00  0.00    +0.000 A 
ATOM     12  C   UNL     1       9.464  16.038  19.552  0.00  0.00    +0.000 A 
ATOM     13  O   UNL     1       9.777  17.228  19.628  0.00  0.00    +0.000 OA
ATOM     14  N   UNL     1       8.418  15.506  20.269  0.00  0.00    +0.000 N 
ATOM     15  C   UNL     1       5.125  15.025  19.121  0.00  0.00    +0.000 A 
ATOM     16  C   UNL     1       5.159  14.970  17.632  0.00  0.00    +0.000 C 
ATOM     17  C   UNL     1       4.063  15.316  19.972  0.00  0.00    +0.000 A 
ATOM     18  H   UNL     1       8.837  14.899  20.965  0.00  0.00    +0.000 HD
ENDROOT
BRANCH  17  19
ATOM     19  C   UNL     1       2.704  15.589  19.509  0.00  0.00    +0.000 C 
ATOM     20  O   UNL     1       2.422  16.689  19.029  0.00  0.00    +0.000 OA
ATOM     21  N   UNL     1       1.763  14.564  19.573  0.00  0.00    +0.000 N 
ATOM     22  C   UNL     1       0.409  14.842  19.085  0.00  0.00    +0.000 C 
ATOM     23  C   UNL     1      -0.613  13.790  19.524  0.00  0.00    +0.000 C 
ATOM     24  C   UNL     1      -0.142  12.432  19.059  0.00  0.00    +0.000 A 
ATOM     25  C   UNL     1      -1.010  11.441  18.609  0.00  0.00    +0.000 A 
ATOM     26  C   UNL     1      -0.503  10.217  18.173  0.00  0.00    +0.000 A 
ATOM     27  C   UNL     1       0.873   9.970  18.194  0.00  0.00    +0.000 A 
ATOM     28  C   UNL     1       1.743  10.945  18.675  0.00  0.00    +0.000 A 
ATOM     29  C   UNL     1       1.238  12.173  19.112  0.00  0.00    +0.000 A 
ATOM     30  C   UNL     1       2.142  13.170  19.772  0.00  0.00    +0.000 C 
ENDBRANCH  17  19
TORSDOF 1
ENDMDL
MODEL 8
REMARK VINA RESULT:      -6.6      6.381      7.741
REMARK  Name = 
REMARK  3 active torsions:
REMARK  status: ('A' for Active; 'I' for Inactive)
REMARK    1  A    between atoms: C_1  and  C_2
REMARK    2  A    between atoms: C_15  and  C_16
REMARK    3  A    between atoms: C_17  and  C_18
REMARK                            x       y       z     vdW  Elec       q    Type
REMARK                         _______ _______ _______ _____ _____    ______ ____
ROOT
ATOM      1  C   UNL     1       2.644  16.824  17.791  0.00  0.00    +0.000 C 
ATOM      2  C   UNL     1       3.706  16.262  18.671  0.00  0.00    +0.000 A 
ATOM      3  N   UNL     1       4.907  16.044  18.124  0.00  0.00    +0.000 NA
ATOM      4  N   UNL     1       5.648  15.474  19.107  0.00  0.00    +0.000 N 
ATOM      5  C   UNL     1       6.959  15.054  18.817  0.00  0.00    +0.000 A 
ATOM      6  N   UNL     1       7.944  15.140  19.665  0.00  0.00    +0.000 NA
ATOM      7  C   UNL     1       9.091  14.471  19.214  0.00  0.00    +0.000 A 
ATOM      8  C   UNL     1      10.385  14.599  19.753  0.00  0.00    +0.000 A 
ATOM      9  C   UNL     1      11.252  13.705  19.149  0.00  0.00    +0.000 A 
ATOM     10  S   UNL     1      10.467  12.727  17.964  0.00  0.00    +0.000 S 
ATOM     11  C   UNL     1       9.020  13.554  18.203  0.00  0.00    +0.000 A 
ATOM     12  C   UNL     1       7.813  13.386  17.457  0.00  0.00    +0.000 A 
ATOM     13  O   UNL     1       7.454  12.356  16.882  0.00  0.00    +0.000 OA
ATOM     14  N   UNL     1       7.002  14.492  17.557  0.00  0.00    +0.000 N 
ATOM     15  C   UNL     1       4.936  15.333  20.280  0.00  0.00    +0.000 A 
ATOM     16  C   UNL     1       5.460  14.638  21.489  0.00  0.00    +0.000 C 
ATOM     17  C   UNL     1       3.663  15.839  20.032  0.00  0.00    +0.000 A 
ATOM     18  H   UNL     1       7.422  15.200  16.965  0.00  0.00    +0.000 HD
ENDROOT
BRANCH  17  19
ATOM     19  C   UNL     1       2.573  15.806  21.006  0.00  0.00    +0.000 C 
ATOM     20  O   UNL     1       2.426  16.735  21.803  0.00  0.00    +0.000 OA
ATOM     21  N   UNL     1       1.684  14.735  20.969  0.00  0.00    +0.000 N 
ATOM     22  C   UNL     1       0.581  14.724  21.935  0.00  0.00    +0.000 C 
ATOM     23  C   UNL     1      -0.106  13.360  22.042  0.00  0.00    +0.000 C 
ATOM     24  C   UNL     1      -0.589  12.949  20.671  0.00  0.00    +0.000 A 
ATOM     25  C   UNL     1      -1.782  12.264  20.460  0.00  0.00    +0.000 A 
ATOM     26  C   UNL     1      -2.176  11.936  19.163  0.00  0.00    +0.000 A 
ATOM     27  C   UNL     1      -1.377  12.281  18.069  0.00  0.00    +0.000 A 
ATOM     28  C   UNL     1      -0.166  12.936  18.276  0.00  0.00    +0.000 A 
ATOM     29  C   UNL     1       0.232  13.268  19.575  0.00  0.00    +0.000 A 
ATOM     30  C   UNL     1       1.596  13.833  19.827  0.00  0.00    +0.000 C 
ENDBRANCH  17  19
TORSDOF 1
ENDMDL
MODEL 9
REMARK VINA RESULT:      -6.6      6.765     10.269
REMARK  Name = 
REMARK  3 active torsions:
REMARK  status: ('A' for Active; 'I' for Inactive)
REMARK    1  A    between atoms: C_1  and  C_2
REMARK    2  A    between atoms: C_15  and  C_16
REMARK    3  A    between atoms: C_17  and  C_18
REMARK                            x       y       z     vdW  Elec       q    Type
REMARK                         _______ _______ _______ _____ _____    ______ ____
ROOT
ATOM      1  C   UNL     1       2.955  17.146  16.832  0.00  0.00    +0.000 C 
ATOM      2  C   UNL     1       3.083  16.200  17.975  0.00  0.00    +0.000 A 
ATOM      3  N   UNL     1       2.081  15.338  18.175  0.00  0.00    +0.000 NA
ATOM      4  N   UNL     1       2.416  14.657  19.300  0.00  0.00    +0.000 N 
ATOM      5  C   UNL     1       1.514  13.711  19.819  0.00  0.00    +0.000 A 
ATOM      6  N   UNL     1       1.887  12.596  20.380  0.00  0.00    +0.000 NA
ATOM      7  C   UNL     1       0.818  11.929  20.996  0.00  0.00    +0.000 A 
ATOM      8  C   UNL     1       0.827  10.595  21.445  0.00  0.00    +0.000 A 
ATOM      9  C   UNL     1      -0.348  10.300  22.112  0.00  0.00    +0.000 A 
ATOM     10  S   UNL     1      -1.416  11.652  22.192  0.00  0.00    +0.000 S 
ATOM     11  C   UNL     1      -0.353  12.578  21.271  0.00  0.00    +0.000 A 
ATOM     12  C   UNL     1      -0.586  13.899  20.778  0.00  0.00    +0.000 A 
ATOM     13  O   UNL     1      -1.320  14.745  21.291  0.00  0.00    +0.000 OA
ATOM     14  N   UNL     1       0.222  14.183  19.701  0.00  0.00    +0.000 N 
ATOM     15  C   UNL     1       3.627  15.070  19.817  0.00  0.00    +0.000 A 
ATOM     16  C   UNL     1       4.189  14.578  21.106  0.00  0.00    +0.000 C 
ATOM     17  C   UNL     1       4.092  16.077  18.976  0.00  0.00    +0.000 A 
ATOM     18  H   UNL     1      -0.174  13.679  18.915  0.00  0.00    +0.000 HD
ENDROOT
BRANCH  17  19
ATOM     19  C   UNL     1       5.318  16.835  19.218  0.00  0.00    +0.000 C 
ATOM     20  O   UNL     1       5.316  17.781  20.008  0.00  0.00    +0.000 OA
ATOM     21  N   UNL     1       6.487  16.425  18.580  0.00  0.00    +0.000 N 
ATOM     22  C   UNL     1       7.716  17.178  18.848  0.00  0.00    +0.000 C 
ATOM     23  C   UNL     1       8.833  16.875  17.846  0.00  0.00    +0.000 C 
ATOM     24  C   UNL     1       9.102  15.389  17.851  0.00  0.00    +0.000 A 
ATOM     25  C   UNL     1      10.376  14.848  17.706  0.00  0.00    +0.000 A 
ATOM     26  C   UNL     1      10.553  13.465  17.743  0.00  0.00    +0.000 A 
ATOM     27  C   UNL     1       9.457  12.613  17.913  0.00  0.00    +0.000 A 
ATOM     28  C   UNL     1       8.176  13.147  18.025  0.00  0.00    +0.000 A 
ATOM     29  C   UNL     1       7.996  14.533  17.989  0.00  0.00    +0.000 A 
ATOM     30  C   UNL     1       6.615  15.115  17.954  0.00  0.00    +0.000 C 
ENDBRANCH  17  19
TORSDOF 1
ENDMDL
