MODEL 1
REMARK VINA RESULT:      -7.5      0.000      0.000
REMARK  Name = 
REMARK  3 active torsions:
REMARK  status: ('A' for Active; 'I' for Inactive)
REMARK    1  A    between atoms: O_1  and  C_2
REMARK    2  A    between atoms: C_8  and  C_9
REMARK    3  A    between atoms: N_10  and  N_11
REMARK                            x       y       z     vdW  Elec       q    Type
REMARK                         _______ _______ _______ _____ _____    ______ ____
ROOT
ATOM      1  C   UNL     1       5.563   3.523  12.454  0.00  0.00    +0.000 A 
ATOM      2  C   UNL     1       6.888   3.972  12.225  0.00  0.00    +0.000 A 
ATOM      3  C   UNL     1       7.592   4.667  13.223  0.00  0.00    +0.000 A 
ATOM      4  C   UNL     1       6.943   4.896  14.435  0.00  0.00    +0.000 A 
ATOM      5  N   UNL     1       7.431   5.542  15.508  0.00  0.00    +0.000 N 
ATOM      6  C   UNL     1       6.453   5.520  16.442  0.00  0.00    +0.000 A 
ATOM      7  C   UNL     1       5.336   4.848  15.951  0.00  0.00    +0.000 A 
ATOM      8  C   UNL     1       5.664   4.460  14.666  0.00  0.00    +0.000 A 
ATOM      9  C   UNL     1       4.940   3.766  13.694  0.00  0.00    +0.000 A 
ATOM     10  H   UNL     1       8.376   5.975  15.606  0.00  0.00    +0.000 HD
ENDROOT
BRANCH   1  11
ATOM     11  O   UNL     1       4.884   2.870  11.490  0.00  0.00    +0.000 OA
ATOM     12  H   UNL     1       3.936   2.690  11.564  0.00  0.00    +0.000 HD
ENDBRANCH   1  11
BRANCH   7  13
ATOM     13  C   UNL     1       4.076   4.601  16.673  0.00  0.00    +0.000 C 
ATOM     14  N   UNL     1       3.640   5.475  17.508  0.00  0.00    +0.000 NA
BRANCH  14  15
ATOM     15  N   UNL     1       2.489   5.282  18.239  0.00  0.00    +0.000 N 
ATOM     16  C   UNL     1       2.479   4.348  19.303  0.00  0.00    +0.000 A 
ATOM     17  C   UNL     1       1.299   4.090  20.016  0.00  0.00    +0.000 A 
ATOM     18  C   UNL     1       1.320   3.165  21.064  0.00  0.00    +0.000 A 
ATOM     19  C   UNL     1       2.510   2.516  21.394  0.00  0.00    +0.000 A 
ATOM     20  C   UNL     1       3.666   2.797  20.666  0.00  0.00    +0.000 A 
ATOM     21  N   UNL     1       3.626   3.695  19.647  0.00  0.00    +0.000 NA
ATOM     22  H   UNL     1       1.627   5.802  18.003  0.00  0.00    +0.000 HD
ENDBRANCH  14  15
ENDBRANCH   7  13
TORSDOF 3
ENDMDL
MODEL 2
REMARK VINA RESULT:      -7.5      2.898      7.481
REMARK  Name = 
REMARK  3 active torsions:
REMARK  status: ('A' for Active; 'I' for Inactive)
REMARK    1  A    between atoms: O_1  and  C_2
REMARK    2  A    between atoms: C_8  and  C_9
REMARK    3  A    between atoms: N_10  and  N_11
REMARK                            x       y       z     vdW  Elec       q    Type
REMARK                         _______ _______ _______ _____ _____    ______ ____
ROOT
ATOM      1  C   UNL     1       1.940   5.333  20.324  0.00  0.00    +0.000 A 
ATOM      2  C   UNL     1       1.262   4.198  20.835  0.00  0.00    +0.000 A 
ATOM      3  C   UNL     1       1.398   2.943  20.216  0.00  0.00    +0.000 A 
ATOM      4  C   UNL     1       2.217   2.860  19.092  0.00  0.00    +0.000 A 
ATOM      5  N   UNL     1       2.474   1.766  18.354  0.00  0.00    +0.000 N 
ATOM      6  C   UNL     1       3.315   2.160  17.370  0.00  0.00    +0.000 A 
ATOM      7  C   UNL     1       3.593   3.519  17.493  0.00  0.00    +0.000 A 
ATOM      8  C   UNL     1       2.881   3.952  18.595  0.00  0.00    +0.000 A 
ATOM      9  C   UNL     1       2.766   5.210  19.189  0.00  0.00    +0.000 A 
ATOM     10  H   UNL     1       2.103   0.802  18.507  0.00  0.00    +0.000 HD
ENDROOT
BRANCH   1  11
ATOM     11  O   UNL     1       1.796   6.539  20.909  0.00  0.00    +0.000 OA
ATOM     12  H   UNL     1       1.479   7.311  20.419  0.00  0.00    +0.000 HD
ENDBRANCH   1  11
BRANCH   7  13
ATOM     13  C   UNL     1       4.478   4.313  16.624  0.00  0.00    +0.000 C 
ATOM     14  N   UNL     1       5.753   4.177  16.721  0.00  0.00    +0.000 NA
BRANCH  14  15
ATOM     15  N   UNL     1       6.630   4.918  15.961  0.00  0.00    +0.000 N 
ATOM     16  C   UNL     1       6.759   4.654  14.576  0.00  0.00    +0.000 A 
ATOM     17  C   UNL     1       7.694   5.354  13.800  0.00  0.00    +0.000 A 
ATOM     18  C   UNL     1       7.798   5.074  12.434  0.00  0.00    +0.000 A 
ATOM     19  C   UNL     1       6.970   4.111  11.857  0.00  0.00    +0.000 A 
ATOM     20  C   UNL     1       6.049   3.434  12.658  0.00  0.00    +0.000 A 
ATOM     21  N   UNL     1       5.966   3.715  13.985  0.00  0.00    +0.000 NA
ATOM     22  H   UNL     1       7.207   5.654  16.401  0.00  0.00    +0.000 HD
ENDBRANCH  14  15
ENDBRANCH   7  13
TORSDOF 3
ENDMDL
MODEL 3
REMARK VINA RESULT:      -7.5      1.031      1.430
REMARK  Name = 
REMARK  3 active torsions:
REMARK  status: ('A' for Active; 'I' for Inactive)
REMARK    1  A    between atoms: O_1  and  C_2
REMARK    2  A    between atoms: C_8  and  C_9
REMARK    3  A    between atoms: N_10  and  N_11
REMARK                            x       y       z     vdW  Elec       q    Type
REMARK                         _______ _______ _______ _____ _____    ______ ____
ROOT
ATOM      1  C   UNL     1       5.875   3.330  12.216  0.00  0.00    +0.000 A 
ATOM      2  C   UNL     1       7.082   4.018  11.930  0.00  0.00    +0.000 A 
ATOM      3  C   UNL     1       7.685   4.839  12.898  0.00  0.00    +0.000 A 
ATOM      4  C   UNL     1       7.057   4.950  14.137  0.00  0.00    +0.000 A 
ATOM      5  N   UNL     1       7.460   5.683  15.189  0.00  0.00    +0.000 N 
ATOM      6  C   UNL     1       6.543   5.484  16.164  0.00  0.00    +0.000 A 
ATOM      7  C   UNL     1       5.553   4.612  15.721  0.00  0.00    +0.000 A 
ATOM      8  C   UNL     1       5.893   4.283  14.423  0.00  0.00    +0.000 A 
ATOM      9  C   UNL     1       5.271   3.460  13.482  0.00  0.00    +0.000 A 
ATOM     10  H   UNL     1       8.310   6.285  15.247  0.00  0.00    +0.000 HD
ENDROOT
BRANCH   1  11
ATOM     11  O   UNL     1       5.290   2.555  11.280  0.00  0.00    +0.000 OA
ATOM     12  H   UNL     1       5.038   2.902  10.413  0.00  0.00    +0.000 HD
ENDBRANCH   1  11
BRANCH   7  13
ATOM     13  C   UNL     1       4.394   4.138  16.495  0.00  0.00    +0.000 C 
ATOM     14  N   UNL     1       4.537   3.163  17.322  0.00  0.00    +0.000 NA
BRANCH  14  15
ATOM     15  N   UNL     1       3.482   2.653  18.045  0.00  0.00    +0.000 N 
ATOM     16  C   UNL     1       2.807   3.475  18.980  0.00  0.00    +0.000 A 
ATOM     17  C   UNL     1       1.773   2.955  19.773  0.00  0.00    +0.000 A 
ATOM     18  C   UNL     1       1.123   3.790  20.685  0.00  0.00    +0.000 A 
ATOM     19  C   UNL     1       1.500   5.129  20.793  0.00  0.00    +0.000 A 
ATOM     20  C   UNL     1       2.531   5.615  19.988  0.00  0.00    +0.000 A 
ATOM     21  N   UNL     1       3.156   4.786  19.110  0.00  0.00    +0.000 NA
ATOM     22  H   UNL     1       3.192   1.668  17.922  0.00  0.00    +0.000 HD
ENDBRANCH  14  15
ENDBRANCH   7  13
TORSDOF 3
ENDMDL
MODEL 4
REMARK VINA RESULT:      -7.3      4.164      5.552
REMARK  Name = 
REMARK  3 active torsions:
REMARK  status: ('A' for Active; 'I' for Inactive)
REMARK    1  A    between atoms: O_1  and  C_2
REMARK    2  A    between atoms: C_8  and  C_9
REMARK    3  A    between atoms: N_10  and  N_11
REMARK                            x       y       z     vdW  Elec       q    Type
REMARK                         _______ _______ _______ _____ _____    ______ ____
ROOT
ATOM      1  C   UNL     1       7.284   5.258  18.958  0.00  0.00    +0.000 A 
ATOM      2  C   UNL     1       7.608   4.725  17.685  0.00  0.00    +0.000 A 
ATOM      3  C   UNL     1       6.596   4.290  16.812  0.00  0.00    +0.000 A 
ATOM      4  C   UNL     1       5.276   4.400  17.242  0.00  0.00    +0.000 A 
ATOM      5  N   UNL     1       4.169   4.039  16.571  0.00  0.00    +0.000 N 
ATOM      6  C   UNL     1       3.123   4.330  17.377  0.00  0.00    +0.000 A 
ATOM      7  C   UNL     1       3.577   4.886  18.570  0.00  0.00    +0.000 A 
ATOM      8  C   UNL     1       4.954   4.920  18.470  0.00  0.00    +0.000 A 
ATOM      9  C   UNL     1       5.938   5.362  19.358  0.00  0.00    +0.000 A 
ATOM     10  H   UNL     1       4.122   3.618  15.617  0.00  0.00    +0.000 HD
ENDROOT
BRANCH   1  11
ATOM     11  O   UNL     1       8.257   5.660  19.800  0.00  0.00    +0.000 OA
ATOM     12  H   UNL     1       8.862   6.381  19.577  0.00  0.00    +0.000 HD
ENDBRANCH   1  11
BRANCH   7  13
ATOM     13  C   UNL     1       2.744   5.349  19.692  0.00  0.00    +0.000 C 
ATOM     14  N   UNL     1       2.589   6.609  19.892  0.00  0.00    +0.000 NA
BRANCH  14  15
ATOM     15  N   UNL     1       1.853   7.101  20.947  0.00  0.00    +0.000 N 
ATOM     16  C   UNL     1       1.197   8.351  20.826  0.00  0.00    +0.000 A 
ATOM     17  C   UNL     1       0.497   8.898  21.911  0.00  0.00    +0.000 A 
ATOM     18  C   UNL     1      -0.143  10.132  21.762  0.00  0.00    +0.000 A 
ATOM     19  C   UNL     1      -0.085  10.801  20.539  0.00  0.00    +0.000 A 
ATOM     20  C   UNL     1       0.618  10.228  19.479  0.00  0.00    +0.000 A 
ATOM     21  N   UNL     1       1.239   9.030  19.644  0.00  0.00    +0.000 NA
ATOM     22  H   UNL     1       1.791   6.571  21.832  0.00  0.00    +0.000 HD
ENDBRANCH  14  15
ENDBRANCH   7  13
TORSDOF 3
ENDMDL
MODEL 5
REMARK VINA RESULT:      -7.3      4.220      5.988
REMARK  Name = 
REMARK  3 active torsions:
REMARK  status: ('A' for Active; 'I' for Inactive)
REMARK    1  A    between atoms: O_1  and  C_2
REMARK    2  A    between atoms: C_8  and  C_9
REMARK    3  A    between atoms: N_10  and  N_11
REMARK                            x       y       z     vdW  Elec       q    Type
REMARK                         _______ _______ _______ _____ _____    ______ ____
ROOT
ATOM      1  C   UNL     1       1.582   2.699  18.580  0.00  0.00    +0.000 A 
ATOM      2  C   UNL     1       2.511   1.720  19.014  0.00  0.00    +0.000 A 
ATOM      3  C   UNL     1       3.874   2.035  19.148  0.00  0.00    +0.000 A 
ATOM      4  C   UNL     1       4.274   3.334  18.840  0.00  0.00    +0.000 A 
ATOM      5  N   UNL     1       5.520   3.835  18.894  0.00  0.00    +0.000 N 
ATOM      6  C   UNL     1       5.426   5.128  18.509  0.00  0.00    +0.000 A 
ATOM      7  C   UNL     1       4.103   5.446  18.213  0.00  0.00    +0.000 A 
ATOM      8  C   UNL     1       3.380   4.288  18.425  0.00  0.00    +0.000 A 
ATOM      9  C   UNL     1       2.020   4.005  18.284  0.00  0.00    +0.000 A 
ATOM     10  H   UNL     1       6.389   3.331  19.176  0.00  0.00    +0.000 HD
ENDROOT
BRANCH   1  11
ATOM     11  O   UNL     1       0.278   2.391  18.436  0.00  0.00    +0.000 OA
ATOM     12  H   UNL     1      -0.330   2.377  19.188  0.00  0.00    +0.000 HD
ENDBRANCH   1  11
BRANCH   7  13
ATOM     13  C   UNL     1       3.595   6.758  17.776  0.00  0.00    +0.000 C 
ATOM     14  N   UNL     1       2.689   7.351  18.470  0.00  0.00    +0.000 NA
BRANCH  14  15
ATOM     15  N   UNL     1       2.150   8.561  18.091  0.00  0.00    +0.000 N 
ATOM     16  C   UNL     1       1.340   9.285  18.999  0.00  0.00    +0.000 A 
ATOM     17  C   UNL     1       0.728  10.486  18.609  0.00  0.00    +0.000 A 
ATOM     18  C   UNL     1      -0.064  11.181  19.527  0.00  0.00    +0.000 A 
ATOM     19  C   UNL     1      -0.233  10.681  20.819  0.00  0.00    +0.000 A 
ATOM     20  C   UNL     1       0.391   9.484  21.174  0.00  0.00    +0.000 A 
ATOM     21  N   UNL     1       1.153   8.819  20.266  0.00  0.00    +0.000 NA
ATOM     22  H   UNL     1       2.319   8.933  17.142  0.00  0.00    +0.000 HD
ENDBRANCH  14  15
ENDBRANCH   7  13
TORSDOF 3
ENDMDL
MODEL 6
REMARK VINA RESULT:      -7.3      3.734      5.045
REMARK  Name = 
REMARK  3 active torsions:
REMARK  status: ('A' for Active; 'I' for Inactive)
REMARK    1  A    between atoms: O_1  and  C_2
REMARK    2  A    between atoms: C_8  and  C_9
REMARK    3  A    between atoms: N_10  and  N_11
REMARK                            x       y       z     vdW  Elec       q    Type
REMARK                         _______ _______ _______ _____ _____    ______ ____
ROOT
ATOM      1  C   UNL     1       6.584   6.301  16.938  0.00  0.00    +0.000 A 
ATOM      2  C   UNL     1       6.827   5.296  15.967  0.00  0.00    +0.000 A 
ATOM      3  C   UNL     1       6.109   4.088  15.991  0.00  0.00    +0.000 A 
ATOM      4  C   UNL     1       5.160   3.917  16.997  0.00  0.00    +0.000 A 
ATOM      5  N   UNL     1       4.378   2.843  17.202  0.00  0.00    +0.000 N 
ATOM      6  C   UNL     1       3.620   3.126  18.286  0.00  0.00    +0.000 A 
ATOM      7  C   UNL     1       3.927   4.396  18.767  0.00  0.00    +0.000 A 
ATOM      8  C   UNL     1       4.915   4.886  17.936  0.00  0.00    +0.000 A 
ATOM      9  C   UNL     1       5.611   6.097  17.936  0.00  0.00    +0.000 A 
ATOM     10  H   UNL     1       4.356   1.965  16.638  0.00  0.00    +0.000 HD
ENDROOT
BRANCH   1  11
ATOM     11  O   UNL     1       7.285   7.452  16.923  0.00  0.00    +0.000 OA
ATOM     12  H   UNL     1       7.952   7.636  16.247  0.00  0.00    +0.000 HD
ENDBRANCH   1  11
BRANCH   7  13
ATOM     13  C   UNL     1       3.306   5.068  19.921  0.00  0.00    +0.000 C 
ATOM     14  N   UNL     1       2.569   6.104  19.732  0.00  0.00    +0.000 NA
BRANCH  14  15
ATOM     15  N   UNL     1       1.992   6.796  20.774  0.00  0.00    +0.000 N 
ATOM     16  C   UNL     1       1.516   8.113  20.567  0.00  0.00    +0.000 A 
ATOM     17  C   UNL     1       0.986   8.856  21.632  0.00  0.00    +0.000 A 
ATOM     18  C   UNL     1       0.521  10.154  21.398  0.00  0.00    +0.000 A 
ATOM     19  C   UNL     1       0.582  10.692  20.112  0.00  0.00    +0.000 A 
ATOM     20  C   UNL     1       1.114   9.925  19.074  0.00  0.00    +0.000 A 
ATOM     21  N   UNL     1       1.566   8.667  19.322  0.00  0.00    +0.000 NA
ATOM     22  H   UNL     1       1.921   6.364  21.710  0.00  0.00    +0.000 HD
ENDBRANCH  14  15
ENDBRANCH   7  13
TORSDOF 3
ENDMDL
MODEL 7
REMARK VINA RESULT:      -7.2      2.436      6.988
REMARK  Name = 
REMARK  3 active torsions:
REMARK  status: ('A' for Active; 'I' for Inactive)
REMARK    1  A    between atoms: O_1  and  C_2
REMARK    2  A    between atoms: C_8  and  C_9
REMARK    3  A    between atoms: N_10  and  N_11
REMARK                            x       y       z     vdW  Elec       q    Type
REMARK                         _______ _______ _______ _____ _____    ______ ____
ROOT
ATOM      1  C   UNL     1       4.294   2.831  19.718  0.00  0.00    +0.000 A 
ATOM      2  C   UNL     1       3.229   3.064  20.626  0.00  0.00    +0.000 A 
ATOM      3  C   UNL     1       2.500   4.265  20.581  0.00  0.00    +0.000 A 
ATOM      4  C   UNL     1       2.861   5.208  19.621  0.00  0.00    +0.000 A 
ATOM      5  N   UNL     1       2.302   6.413  19.415  0.00  0.00    +0.000 N 
ATOM      6  C   UNL     1       2.976   6.974  18.386  0.00  0.00    +0.000 A 
ATOM      7  C   UNL     1       3.969   6.109  17.934  0.00  0.00    +0.000 A 
ATOM      8  C   UNL     1       3.885   4.987  18.736  0.00  0.00    +0.000 A 
ATOM      9  C   UNL     1       4.627   3.804  18.756  0.00  0.00    +0.000 A 
ATOM     10  H   UNL     1       1.506   6.835  19.943  0.00  0.00    +0.000 HD
ENDROOT
BRANCH   1  11
ATOM     11  O   UNL     1       5.002   1.686  19.773  0.00  0.00    +0.000 OA
ATOM     12  H   UNL     1       5.688   1.476  19.124  0.00  0.00    +0.000 HD
ENDBRANCH   1  11
BRANCH   7  13
ATOM     13  C   UNL     1       4.901   6.352  16.820  0.00  0.00    +0.000 C 
ATOM     14  N   UNL     1       5.850   5.515  16.591  0.00  0.00    +0.000 NA
BRANCH  14  15
ATOM     15  N   UNL     1       6.773   5.709  15.588  0.00  0.00    +0.000 N 
ATOM     16  C   UNL     1       6.660   4.982  14.378  0.00  0.00    +0.000 A 
ATOM     17  C   UNL     1       7.627   5.117  13.371  0.00  0.00    +0.000 A 
ATOM     18  C   UNL     1       7.488   4.389  12.185  0.00  0.00    +0.000 A 
ATOM     19  C   UNL     1       6.390   3.545  12.013  0.00  0.00    +0.000 A 
ATOM     20  C   UNL     1       5.446   3.435  13.034  0.00  0.00    +0.000 A 
ATOM     21  N   UNL     1       5.601   4.146  14.182  0.00  0.00    +0.000 NA
ATOM     22  H   UNL     1       7.558   6.368  15.720  0.00  0.00    +0.000 HD
ENDBRANCH  14  15
ENDBRANCH   7  13
TORSDOF 3
ENDMDL
MODEL 8
REMARK VINA RESULT:      -7.2      4.233      5.991
REMARK  Name = 
REMARK  3 active torsions:
REMARK  status: ('A' for Active; 'I' for Inactive)
REMARK    1  A    between atoms: O_1  and  C_2
REMARK    2  A    between atoms: C_8  and  C_9
REMARK    3  A    between atoms: N_10  and  N_11
REMARK                            x       y       z     vdW  Elec       q    Type
REMARK                         _______ _______ _______ _____ _____    ______ ____
ROOT
ATOM      1  C   UNL     1       1.451   3.155  19.457  0.00  0.00    +0.000 A 
ATOM      2  C   UNL     1       2.100   1.961  19.054  0.00  0.00    +0.000 A 
ATOM      3  C   UNL     1       3.238   2.007  18.231  0.00  0.00    +0.000 A 
ATOM      4  C   UNL     1       3.698   3.259  17.828  0.00  0.00    +0.000 A 
ATOM      5  N   UNL     1       4.755   3.521  17.041  0.00  0.00    +0.000 N 
ATOM      6  C   UNL     1       4.817   4.867  16.924  0.00  0.00    +0.000 A 
ATOM      7  C   UNL     1       3.788   5.459  17.650  0.00  0.00    +0.000 A 
ATOM      8  C   UNL     1       3.079   4.419  18.219  0.00  0.00    +0.000 A 
ATOM      9  C   UNL     1       1.948   4.405  19.037  0.00  0.00    +0.000 A 
ATOM     10  H   UNL     1       5.403   2.828  16.606  0.00  0.00    +0.000 HD
ENDROOT
BRANCH   1  11
ATOM     11  O   UNL     1       0.351   3.109  20.234  0.00  0.00    +0.000 OA
ATOM     12  H   UNL     1       0.299   3.580  21.077  0.00  0.00    +0.000 HD
ENDBRANCH   1  11
BRANCH   7  13
ATOM     13  C   UNL     1       3.529   6.903  17.784  0.00  0.00    +0.000 C 
ATOM     14  N   UNL     1       2.318   7.332  17.823  0.00  0.00    +0.000 NA
BRANCH  14  15
ATOM     15  N   UNL     1       2.015   8.673  17.911  0.00  0.00    +0.000 N 
ATOM     16  C   UNL     1       1.504   9.201  19.121  0.00  0.00    +0.000 A 
ATOM     17  C   UNL     1       1.129  10.550  19.208  0.00  0.00    +0.000 A 
ATOM     18  C   UNL     1       0.630  11.046  20.416  0.00  0.00    +0.000 A 
ATOM     19  C   UNL     1       0.517  10.200  21.521  0.00  0.00    +0.000 A 
ATOM     20  C   UNL     1       0.901   8.864  21.400  0.00  0.00    +0.000 A 
ATOM     21  N   UNL     1       1.379   8.399  20.215  0.00  0.00    +0.000 NA
ATOM     22  H   UNL     1       2.143   9.290  17.092  0.00  0.00    +0.000 HD
ENDBRANCH  14  15
ENDBRANCH   7  13
TORSDOF 3
ENDMDL
MODEL 9
REMARK VINA RESULT:      -7.1      2.247      6.812
REMARK  Name = 
REMARK  3 active torsions:
REMARK  status: ('A' for Active; 'I' for Inactive)
REMARK    1  A    between atoms: O_1  and  C_2
REMARK    2  A    between atoms: C_8  and  C_9
REMARK    3  A    between atoms: N_10  and  N_11
REMARK                            x       y       z     vdW  Elec       q    Type
REMARK                         _______ _______ _______ _____ _____    ______ ____
ROOT
ATOM      1  C   UNL     1       2.670   2.678  18.453  0.00  0.00    +0.000 A 
ATOM      2  C   UNL     1       1.764   2.981  19.502  0.00  0.00    +0.000 A 
ATOM      3  C   UNL     1       1.566   4.310  19.914  0.00  0.00    +0.000 A 
ATOM      4  C   UNL     1       2.287   5.307  19.261  0.00  0.00    +0.000 A 
ATOM      5  N   UNL     1       2.250   6.628  19.505  0.00  0.00    +0.000 N 
ATOM      6  C   UNL     1       3.110   7.201  18.631  0.00  0.00    +0.000 A 
ATOM      7  C   UNL     1       3.692   6.227  17.825  0.00  0.00    +0.000 A 
ATOM      8  C   UNL     1       3.159   5.022  18.242  0.00  0.00    +0.000 A 
ATOM      9  C   UNL     1       3.376   3.713  17.809  0.00  0.00    +0.000 A 
ATOM     10  H   UNL     1       1.673   7.120  20.223  0.00  0.00    +0.000 HD
ENDROOT
BRANCH   1  11
ATOM     11  O   UNL     1       2.871   1.402  18.069  0.00  0.00    +0.000 OA
ATOM     12  H   UNL     1       2.409   1.016  17.311  0.00  0.00    +0.000 HD
ENDBRANCH   1  11
BRANCH   7  13
ATOM     13  C   UNL     1       4.666   6.454  16.743  0.00  0.00    +0.000 C 
ATOM     14  N   UNL     1       5.663   5.654  16.607  0.00  0.00    +0.000 NA
BRANCH  14  15
ATOM     15  N   UNL     1       6.625   5.837  15.639  0.00  0.00    +0.000 N 
ATOM     16  C   UNL     1       6.574   5.079  14.444  0.00  0.00    +0.000 A 
ATOM     17  C   UNL     1       7.581   5.204  13.476  0.00  0.00    +0.000 A 
ATOM     18  C   UNL     1       7.504   4.445  12.304  0.00  0.00    +0.000 A 
ATOM     19  C   UNL     1       6.428   3.579  12.107  0.00  0.00    +0.000 A 
ATOM     20  C   UNL     1       5.442   3.479  13.090  0.00  0.00    +0.000 A 
ATOM     21  N   UNL     1       5.537   4.221  14.225  0.00  0.00    +0.000 NA
ATOM     22  H   UNL     1       7.393   6.513  15.788  0.00  0.00    +0.000 HD
ENDBRANCH  14  15
ENDBRANCH   7  13
TORSDOF 3
ENDMDL
