MODEL 1
REMARK VINA RESULT:      -6.3      0.000      0.000
REMARK  Name = 
REMARK  11 active torsions:
REMARK  status: ('A' for Active; 'I' for Inactive)
REMARK    1  A    between atoms: C_1  and  N_2
REMARK    2  A    between atoms: N_2  and  C_3
REMARK    3  A    between atoms: N_2  and  C_4
REMARK    4  A    between atoms: C_7  and  C_8
REMARK    5  A    between atoms: N_10  and  C_11
REMARK    6  A    between atoms: C_11  and  C_12
REMARK    7  A    between atoms: C_12  and  C_13
REMARK    8  A    between atoms: C_13  and  C_14
REMARK    9  A    between atoms: C_14  and  C_15
REMARK   10  A    between atoms: C_15  and  C_16
REMARK   11  A    between atoms: N_18  and  O_19
REMARK                            x       y       z     vdW  Elec       q    Type
REMARK                         _______ _______ _______ _____ _____    ______ ____
ROOT
ATOM      1  C   UNL     1       4.861   5.174  17.854  0.00  0.00    +0.000 A 
ATOM      2  C   UNL     1       3.609   5.714  18.067  0.00  0.00    +0.000 A 
ATOM      3  N   UNL     1       3.454   5.648  19.415  0.00  0.00    +0.000 N 
ATOM      4  N   UNL     1       4.526   5.099  20.011  0.00  0.00    +0.000 NA
ATOM      5  N   UNL     1       5.401   4.806  19.057  0.00  0.00    +0.000 NA
ENDROOT
BRANCH   1   9
ATOM      6  C   UNL     1       6.747   4.730  14.040  0.00  0.00    +0.000 A 
ATOM      7  C   UNL     1       7.341   5.462  15.082  0.00  0.00    +0.000 A 
ATOM      8  C   UNL     1       6.732   5.609  16.326  0.00  0.00    +0.000 A 
ATOM      9  C   UNL     1       5.494   5.014  16.576  0.00  0.00    +0.000 A 
ATOM     10  C   UNL     1       4.887   4.271  15.561  0.00  0.00    +0.000 A 
ATOM     11  C   UNL     1       5.505   4.131  14.321  0.00  0.00    +0.000 A 
BRANCH   6  13
ATOM     12  C   UNL     1       8.249   5.647  12.305  0.00  0.00    +0.000 C 
ATOM     13  N   UNL     1       7.359   4.604  12.802  0.00  0.00    +0.000 N 
ATOM     14  C   UNL     1       6.904   3.575  11.877  0.00  0.00    +0.000 C 
ENDBRANCH   6  13
ENDBRANCH   1   9
BRANCH   3  15
ATOM     15  C   UNL     1       2.318   6.052  20.213  0.00  0.00    +0.000 C 
BRANCH  15  16
ATOM     16  C   UNL     1       1.740   4.926  21.065  0.00  0.00    +0.000 C 
BRANCH  16  17
ATOM     17  C   UNL     1       0.754   4.034  20.308  0.00  0.00    +0.000 C 
BRANCH  17  18
ATOM     18  C   UNL     1       1.327   2.621  20.217  0.00  0.00    +0.000 C 
BRANCH  18  19
ATOM     19  C   UNL     1       1.763   2.256  18.804  0.00  0.00    +0.000 C 
BRANCH  19  20
ATOM     20  C   UNL     1       3.241   1.923  18.762  0.00  0.00    +0.000 C 
ATOM     21  O   UNL     1       3.813   1.400  17.810  0.00  0.00    +0.000 OA
ATOM     22  N   UNL     1       3.908   2.253  19.915  0.00  0.00    +0.000 N 
ATOM     23  H   UNL     1       3.512   2.738  20.710  0.00  0.00    +0.000 HD
BRANCH  22  24
ATOM     24  O   UNL     1       5.291   1.972  19.941  0.00  0.00    +0.000 OA
ATOM     25  H   UNL     1       5.489   1.986  20.904  0.00  0.00    +0.000 HD
ENDBRANCH  22  24
ENDBRANCH  19  20
ENDBRANCH  18  19
ENDBRANCH  17  18
ENDBRANCH  16  17
ENDBRANCH  15  16
ENDBRANCH   3  15
TORSDOF 9
ENDMDL
MODEL 2
REMARK VINA RESULT:      -6.1      0.381      1.294
REMARK  Name = 
REMARK  11 active torsions:
REMARK  status: ('A' for Active; 'I' for Inactive)
REMARK    1  A    between atoms: C_1  and  N_2
REMARK    2  A    between atoms: N_2  and  C_3
REMARK    3  A    between atoms: N_2  and  C_4
REMARK    4  A    between atoms: C_7  and  C_8
REMARK    5  A    between atoms: N_10  and  C_11
REMARK    6  A    between atoms: C_11  and  C_12
REMARK    7  A    between atoms: C_12  and  C_13
REMARK    8  A    between atoms: C_13  and  C_14
REMARK    9  A    between atoms: C_14  and  C_15
REMARK   10  A    between atoms: C_15  and  C_16
REMARK   11  A    between atoms: N_18  and  O_19
REMARK                            x       y       z     vdW  Elec       q    Type
REMARK                         _______ _______ _______ _____ _____    ______ ____
ROOT
ATOM      1  C   UNL     1       4.802   5.115  17.693  0.00  0.00    +0.000 A 
ATOM      2  C   UNL     1       3.564   5.660  17.971  0.00  0.00    +0.000 A 
ATOM      3  N   UNL     1       3.515   5.673  19.328  0.00  0.00    +0.000 N 
ATOM      4  N   UNL     1       4.635   5.167  19.871  0.00  0.00    +0.000 NA
ATOM      5  N   UNL     1       5.436   4.822  18.870  0.00  0.00    +0.000 NA
ENDROOT
BRANCH   1   9
ATOM      6  C   UNL     1       6.386   4.392  13.785  0.00  0.00    +0.000 A 
ATOM      7  C   UNL     1       5.107   3.950  14.163  0.00  0.00    +0.000 A 
ATOM      8  C   UNL     1       4.586   4.184  15.434  0.00  0.00    +0.000 A 
ATOM      9  C   UNL     1       5.335   4.883  16.381  0.00  0.00    +0.000 A 
ATOM     10  C   UNL     1       6.604   5.345  16.028  0.00  0.00    +0.000 A 
ATOM     11  C   UNL     1       7.115   5.105  14.755  0.00  0.00    +0.000 A 
BRANCH   6  13
ATOM     12  C   UNL     1       6.717   2.835  11.895  0.00  0.00    +0.000 C 
ATOM     13  N   UNL     1       6.897   4.139  12.521  0.00  0.00    +0.000 N 
ATOM     14  C   UNL     1       7.848   5.071  11.932  0.00  0.00    +0.000 C 
ENDBRANCH   6  13
ENDBRANCH   1   9
BRANCH   3  15
ATOM     15  C   UNL     1       2.441   6.118  20.187  0.00  0.00    +0.000 C 
BRANCH  15  16
ATOM     16  C   UNL     1       1.831   5.002  21.029  0.00  0.00    +0.000 C 
BRANCH  16  17
ATOM     17  C   UNL     1       0.845   4.124  20.257  0.00  0.00    +0.000 C 
BRANCH  17  18
ATOM     18  C   UNL     1       1.296   2.668  20.345  0.00  0.00    +0.000 C 
BRANCH  18  19
ATOM     19  C   UNL     1       1.647   2.080  18.985  0.00  0.00    +0.000 C 
BRANCH  19  20
ATOM     20  C   UNL     1       3.149   1.974  18.811  0.00  0.00    +0.000 C 
ATOM     21  O   UNL     1       3.712   1.698  17.755  0.00  0.00    +0.000 OA
ATOM     22  N   UNL     1       3.850   2.206  19.967  0.00  0.00    +0.000 N 
ATOM     23  H   UNL     1       3.453   2.495  20.852  0.00  0.00    +0.000 HD
BRANCH  22  24
ATOM     24  O   UNL     1       5.256   2.127  19.873  0.00  0.00    +0.000 OA
ATOM     25  H   UNL     1       5.396   2.035  18.904  0.00  0.00    +0.000 HD
ENDBRANCH  22  24
ENDBRANCH  19  20
ENDBRANCH  18  19
ENDBRANCH  17  18
ENDBRANCH  16  17
ENDBRANCH  15  16
ENDBRANCH   3  15
TORSDOF 9
ENDMDL
MODEL 3
REMARK VINA RESULT:      -5.9      3.720      7.087
REMARK  Name = 
REMARK  11 active torsions:
REMARK  status: ('A' for Active; 'I' for Inactive)
REMARK    1  A    between atoms: C_1  and  N_2
REMARK    2  A    between atoms: N_2  and  C_3
REMARK    3  A    between atoms: N_2  and  C_4
REMARK    4  A    between atoms: C_7  and  C_8
REMARK    5  A    between atoms: N_10  and  C_11
REMARK    6  A    between atoms: C_11  and  C_12
REMARK    7  A    between atoms: C_12  and  C_13
REMARK    8  A    between atoms: C_13  and  C_14
REMARK    9  A    between atoms: C_14  and  C_15
REMARK   10  A    between atoms: C_15  and  C_16
REMARK   11  A    between atoms: N_18  and  O_19
REMARK                            x       y       z     vdW  Elec       q    Type
REMARK                         _______ _______ _______ _____ _____    ______ ____
ROOT
ATOM      1  C   UNL     1       2.456   6.598  19.494  0.00  0.00    +0.000 A 
ATOM      2  C   UNL     1       3.435   6.031  18.702  0.00  0.00    +0.000 A 
ATOM      3  N   UNL     1       3.596   4.789  19.227  0.00  0.00    +0.000 N 
ATOM      4  N   UNL     1       2.784   4.586  20.279  0.00  0.00    +0.000 NA
ATOM      5  N   UNL     1       2.075   5.696  20.449  0.00  0.00    +0.000 NA
ENDROOT
BRANCH   1   9
ATOM      6  C   UNL     1       0.913  10.562  19.039  0.00  0.00    +0.000 A 
ATOM      7  C   UNL     1       1.456   9.848  17.959  0.00  0.00    +0.000 A 
ATOM      8  C   UNL     1       1.959   8.556  18.101  0.00  0.00    +0.000 A 
ATOM      9  C   UNL     1       1.929   7.925  19.345  0.00  0.00    +0.000 A 
ATOM     10  C   UNL     1       1.383   8.607  20.434  0.00  0.00    +0.000 A 
ATOM     11  C   UNL     1       0.884   9.898  20.280  0.00  0.00    +0.000 A 
BRANCH   6  13
ATOM     12  C   UNL     1       1.237  13.000  19.279  0.00  0.00    +0.000 C 
ATOM     13  N   UNL     1       0.429  11.853  18.886  0.00  0.00    +0.000 N 
ATOM     14  C   UNL     1      -0.984  12.060  18.596  0.00  0.00    +0.000 C 
ENDBRANCH   6  13
ENDBRANCH   1   9
BRANCH   3  15
ATOM     15  C   UNL     1       4.509   3.747  18.816  0.00  0.00    +0.000 C 
BRANCH  15  16
ATOM     16  C   UNL     1       4.400   3.389  17.338  0.00  0.00    +0.000 C 
BRANCH  16  17
ATOM     17  C   UNL     1       5.202   4.318  16.424  0.00  0.00    +0.000 C 
BRANCH  17  18
ATOM     18  C   UNL     1       6.616   4.468  16.979  0.00  0.00    +0.000 C 
BRANCH  18  19
ATOM     19  C   UNL     1       7.067   5.921  17.047  0.00  0.00    +0.000 C 
BRANCH  19  20
ATOM     20  C   UNL     1       7.701   6.229  18.390  0.00  0.00    +0.000 C 
ATOM     21  O   UNL     1       8.302   7.266  18.657  0.00  0.00    +0.000 OA
ATOM     22  N   UNL     1       7.553   5.220  19.308  0.00  0.00    +0.000 N 
ATOM     23  H   UNL     1       7.021   4.370  19.172  0.00  0.00    +0.000 HD
BRANCH  22  24
ATOM     24  O   UNL     1       8.118   5.444  20.582  0.00  0.00    +0.000 OA
ATOM     25  H   UNL     1       8.969   4.954  20.522  0.00  0.00    +0.000 HD
ENDBRANCH  22  24
ENDBRANCH  19  20
ENDBRANCH  18  19
ENDBRANCH  17  18
ENDBRANCH  16  17
ENDBRANCH  15  16
ENDBRANCH   3  15
TORSDOF 9
ENDMDL
MODEL 4
REMARK VINA RESULT:      -5.9      3.459      6.281
REMARK  Name = 
REMARK  11 active torsions:
REMARK  status: ('A' for Active; 'I' for Inactive)
REMARK    1  A    between atoms: C_1  and  N_2
REMARK    2  A    between atoms: N_2  and  C_3
REMARK    3  A    between atoms: N_2  and  C_4
REMARK    4  A    between atoms: C_7  and  C_8
REMARK    5  A    between atoms: N_10  and  C_11
REMARK    6  A    between atoms: C_11  and  C_12
REMARK    7  A    between atoms: C_12  and  C_13
REMARK    8  A    between atoms: C_13  and  C_14
REMARK    9  A    between atoms: C_14  and  C_15
REMARK   10  A    between atoms: C_15  and  C_16
REMARK   11  A    between atoms: N_18  and  O_19
REMARK                            x       y       z     vdW  Elec       q    Type
REMARK                         _______ _______ _______ _____ _____    ______ ____
ROOT
ATOM      1  C   UNL     1       2.209   6.773  20.009  0.00  0.00    +0.000 A 
ATOM      2  C   UNL     1       1.464   5.888  20.762  0.00  0.00    +0.000 A 
ATOM      3  N   UNL     1       2.247   4.780  20.827  0.00  0.00    +0.000 N 
ATOM      4  N   UNL     1       3.401   4.949  20.158  0.00  0.00    +0.000 NA
ATOM      5  N   UNL     1       3.387   6.176  19.653  0.00  0.00    +0.000 NA
ENDROOT
BRANCH   1   9
ATOM      6  C   UNL     1       1.046  10.746  18.929  0.00  0.00    +0.000 A 
ATOM      7  C   UNL     1       1.728   9.903  18.037  0.00  0.00    +0.000 A 
ATOM      8  C   UNL     1       2.108   8.607  18.382  0.00  0.00    +0.000 A 
ATOM      9  C   UNL     1       1.808   8.104  19.649  0.00  0.00    +0.000 A 
ATOM     10  C   UNL     1       1.121   8.917  20.552  0.00  0.00    +0.000 A 
ATOM     11  C   UNL     1       0.746  10.210  20.195  0.00  0.00    +0.000 A 
BRANCH   6  13
ATOM     12  C   UNL     1       1.696  13.083  18.457  0.00  0.00    +0.000 C 
ATOM     13  N   UNL     1       0.687  12.038  18.575  0.00  0.00    +0.000 N 
ATOM     14  C   UNL     1      -0.718  12.423  18.593  0.00  0.00    +0.000 C 
ENDBRANCH   6  13
ENDBRANCH   1   9
BRANCH   3  15
ATOM     15  C   UNL     1       1.971   3.517  21.472  0.00  0.00    +0.000 C 
BRANCH  15  16
ATOM     16  C   UNL     1       1.884   2.343  20.502  0.00  0.00    +0.000 C 
BRANCH  16  17
ATOM     17  C   UNL     1       0.904   2.574  19.350  0.00  0.00    +0.000 C 
BRANCH  17  18
ATOM     18  C   UNL     1       1.689   2.740  18.052  0.00  0.00    +0.000 C 
BRANCH  18  19
ATOM     19  C   UNL     1       3.029   2.015  18.081  0.00  0.00    +0.000 C 
BRANCH  19  20
ATOM     20  C   UNL     1       4.168   2.970  17.782  0.00  0.00    +0.000 C 
ATOM     21  O   UNL     1       4.268   3.639  16.758  0.00  0.00    +0.000 OA
ATOM     22  N   UNL     1       5.113   3.020  18.775  0.00  0.00    +0.000 N 
ATOM     23  H   UNL     1       5.062   2.542  19.666  0.00  0.00    +0.000 HD
BRANCH  22  24
ATOM     24  O   UNL     1       6.201   3.894  18.562  0.00  0.00    +0.000 OA
ATOM     25  H   UNL     1       6.872   3.550  19.194  0.00  0.00    +0.000 HD
ENDBRANCH  22  24
ENDBRANCH  19  20
ENDBRANCH  18  19
ENDBRANCH  17  18
ENDBRANCH  16  17
ENDBRANCH  15  16
ENDBRANCH   3  15
TORSDOF 9
ENDMDL
MODEL 5
REMARK VINA RESULT:      -5.9      0.928      1.624
REMARK  Name = 
REMARK  11 active torsions:
REMARK  status: ('A' for Active; 'I' for Inactive)
REMARK    1  A    between atoms: C_1  and  N_2
REMARK    2  A    between atoms: N_2  and  C_3
REMARK    3  A    between atoms: N_2  and  C_4
REMARK    4  A    between atoms: C_7  and  C_8
REMARK    5  A    between atoms: N_10  and  C_11
REMARK    6  A    between atoms: C_11  and  C_12
REMARK    7  A    between atoms: C_12  and  C_13
REMARK    8  A    between atoms: C_13  and  C_14
REMARK    9  A    between atoms: C_14  and  C_15
REMARK   10  A    between atoms: C_15  and  C_16
REMARK   11  A    between atoms: N_18  and  O_19
REMARK                            x       y       z     vdW  Elec       q    Type
REMARK                         _______ _______ _______ _____ _____    ______ ____
ROOT
ATOM      1  C   UNL     1       5.069   4.579  17.898  0.00  0.00    +0.000 A 
ATOM      2  C   UNL     1       4.031   5.363  18.359  0.00  0.00    +0.000 A 
ATOM      3  N   UNL     1       3.785   4.875  19.602  0.00  0.00    +0.000 N 
ATOM      4  N   UNL     1       4.603   3.851  19.904  0.00  0.00    +0.000 NA
ATOM      5  N   UNL     1       5.400   3.663  18.859  0.00  0.00    +0.000 NA
ENDROOT
BRANCH   1   9
ATOM      6  C   UNL     1       6.936   4.901  14.062  0.00  0.00    +0.000 A 
ATOM      7  C   UNL     1       5.733   4.200  14.246  0.00  0.00    +0.000 A 
ATOM      8  C   UNL     1       5.120   4.093  15.493  0.00  0.00    +0.000 A 
ATOM      9  C   UNL     1       5.696   4.698  16.612  0.00  0.00    +0.000 A 
ATOM     10  C   UNL     1       6.886   5.411  16.454  0.00  0.00    +0.000 A 
ATOM     11  C   UNL     1       7.490   5.511  15.204  0.00  0.00    +0.000 A 
BRANCH   6  13
ATOM     12  C   UNL     1       7.216   4.031  11.766  0.00  0.00    +0.000 C 
ATOM     13  N   UNL     1       7.542   4.986  12.818  0.00  0.00    +0.000 N 
ATOM     14  C   UNL     1       8.703   5.849  12.642  0.00  0.00    +0.000 C 
ENDBRANCH   6  13
ENDBRANCH   1   9
BRANCH   3  15
ATOM     15  C   UNL     1       2.783   5.296  20.555  0.00  0.00    +0.000 C 
BRANCH  15  16
ATOM     16  C   UNL     1       2.264   4.162  21.434  0.00  0.00    +0.000 C 
BRANCH  16  17
ATOM     17  C   UNL     1       0.903   3.621  20.992  0.00  0.00    +0.000 C 
BRANCH  17  18
ATOM     18  C   UNL     1       1.110   2.325  20.211  0.00  0.00    +0.000 C 
BRANCH  18  19
ATOM     19  C   UNL     1       0.845   2.492  18.720  0.00  0.00    +0.000 C 
BRANCH  19  20
ATOM     20  C   UNL     1       2.111   2.264  17.917  0.00  0.00    +0.000 C 
ATOM     21  O   UNL     1       2.310   2.704  16.788  0.00  0.00    +0.000 OA
ATOM     22  N   UNL     1       3.040   1.494  18.569  0.00  0.00    +0.000 N 
ATOM     23  H   UNL     1       2.964   1.151  19.519  0.00  0.00    +0.000 HD
BRANCH  22  24
ATOM     24  O   UNL     1       4.245   1.246  17.877  0.00  0.00    +0.000 OA
ATOM     25  H   UNL     1       4.872   1.859  18.323  0.00  0.00    +0.000 HD
ENDBRANCH  22  24
ENDBRANCH  19  20
ENDBRANCH  18  19
ENDBRANCH  17  18
ENDBRANCH  16  17
ENDBRANCH  15  16
ENDBRANCH   3  15
TORSDOF 9
ENDMDL
MODEL 6
REMARK VINA RESULT:      -5.8      3.397      7.511
REMARK  Name = 
REMARK  11 active torsions:
REMARK  status: ('A' for Active; 'I' for Inactive)
REMARK    1  A    between atoms: C_1  and  N_2
REMARK    2  A    between atoms: N_2  and  C_3
REMARK    3  A    between atoms: N_2  and  C_4
REMARK    4  A    between atoms: C_7  and  C_8
REMARK    5  A    between atoms: N_10  and  C_11
REMARK    6  A    between atoms: C_11  and  C_12
REMARK    7  A    between atoms: C_12  and  C_13
REMARK    8  A    between atoms: C_13  and  C_14
REMARK    9  A    between atoms: C_14  and  C_15
REMARK   10  A    between atoms: C_15  and  C_16
REMARK   11  A    between atoms: N_18  and  O_19
REMARK                            x       y       z     vdW  Elec       q    Type
REMARK                         _______ _______ _______ _____ _____    ______ ____
ROOT
ATOM      1  C   UNL     1       3.550   5.968  18.482  0.00  0.00    +0.000 A 
ATOM      2  C   UNL     1       4.049   5.650  17.235  0.00  0.00    +0.000 A 
ATOM      3  N   UNL     1       4.749   4.506  17.449  0.00  0.00    +0.000 N 
ATOM      4  N   UNL     1       4.703   4.130  18.739  0.00  0.00    +0.000 NA
ATOM      5  N   UNL     1       3.964   5.025  19.383  0.00  0.00    +0.000 NA
ENDROOT
BRANCH   1   9
ATOM      6  C   UNL     1       1.101   9.353  19.402  0.00  0.00    +0.000 A 
ATOM      7  C   UNL     1       1.355   8.342  20.343  0.00  0.00    +0.000 A 
ATOM      8  C   UNL     1       2.153   7.237  20.049  0.00  0.00    +0.000 A 
ATOM      9  C   UNL     1       2.737   7.110  18.788  0.00  0.00    +0.000 A 
ATOM     10  C   UNL     1       2.511   8.108  17.838  0.00  0.00    +0.000 A 
ATOM     11  C   UNL     1       1.712   9.206  18.142  0.00  0.00    +0.000 A 
BRANCH   6  13
ATOM     12  C   UNL     1      -0.429  11.142  18.651  0.00  0.00    +0.000 C 
ATOM     13  N   UNL     1       0.293  10.439  19.704  0.00  0.00    +0.000 N 
ATOM     14  C   UNL     1       0.380  11.053  21.022  0.00  0.00    +0.000 C 
ENDBRANCH   6  13
ENDBRANCH   1   9
BRANCH   3  15
ATOM     15  C   UNL     1       5.509   3.723  16.502  0.00  0.00    +0.000 C 
BRANCH  15  16
ATOM     16  C   UNL     1       6.844   4.356  16.120  0.00  0.00    +0.000 C 
BRANCH  16  17
ATOM     17  C   UNL     1       6.865   4.924  14.700  0.00  0.00    +0.000 C 
BRANCH  17  18
ATOM     18  C   UNL     1       5.860   4.161  13.840  0.00  0.00    +0.000 C 
BRANCH  18  19
ATOM     19  C   UNL     1       6.501   3.526  12.613  0.00  0.00    +0.000 C 
BRANCH  19  20
ATOM     20  C   UNL     1       5.474   2.769  11.795  0.00  0.00    +0.000 C 
ATOM     21  O   UNL     1       5.630   1.633  11.355  0.00  0.00    +0.000 OA
ATOM     22  N   UNL     1       4.323   3.482  11.569  0.00  0.00    +0.000 N 
ATOM     23  H   UNL     1       4.107   4.394  11.951  0.00  0.00    +0.000 HD
BRANCH  22  24
ATOM     24  O   UNL     1       3.322   2.832  10.815  0.00  0.00    +0.000 OA
ATOM     25  H   UNL     1       3.833   2.132  10.349  0.00  0.00    +0.000 HD
ENDBRANCH  22  24
ENDBRANCH  19  20
ENDBRANCH  18  19
ENDBRANCH  17  18
ENDBRANCH  16  17
ENDBRANCH  15  16
ENDBRANCH   3  15
TORSDOF 9
ENDMDL
MODEL 7
REMARK VINA RESULT:      -5.8      3.644      7.049
REMARK  Name = 
REMARK  11 active torsions:
REMARK  status: ('A' for Active; 'I' for Inactive)
REMARK    1  A    between atoms: C_1  and  N_2
REMARK    2  A    between atoms: N_2  and  C_3
REMARK    3  A    between atoms: N_2  and  C_4
REMARK    4  A    between atoms: C_7  and  C_8
REMARK    5  A    between atoms: N_10  and  C_11
REMARK    6  A    between atoms: C_11  and  C_12
REMARK    7  A    between atoms: C_12  and  C_13
REMARK    8  A    between atoms: C_13  and  C_14
REMARK    9  A    between atoms: C_14  and  C_15
REMARK   10  A    between atoms: C_15  and  C_16
REMARK   11  A    between atoms: N_18  and  O_19
REMARK                            x       y       z     vdW  Elec       q    Type
REMARK                         _______ _______ _______ _____ _____    ______ ____
ROOT
ATOM      1  C   UNL     1       2.187   6.454  20.020  0.00  0.00    +0.000 A 
ATOM      2  C   UNL     1       3.290   5.927  19.380  0.00  0.00    +0.000 A 
ATOM      3  N   UNL     1       3.317   4.634  19.793  0.00  0.00    +0.000 N 
ATOM      4  N   UNL     1       2.309   4.363  20.641  0.00  0.00    +0.000 NA
ATOM      5  N   UNL     1       1.605   5.479  20.784  0.00  0.00    +0.000 NA
ENDROOT
BRANCH   1   9
ATOM      6  C   UNL     1       0.850  10.505  19.686  0.00  0.00    +0.000 A 
ATOM      7  C   UNL     1       1.428   9.821  18.604  0.00  0.00    +0.000 A 
ATOM      8  C   UNL     1       1.864   8.501  18.706  0.00  0.00    +0.000 A 
ATOM      9  C   UNL     1       1.728   7.810  19.911  0.00  0.00    +0.000 A 
ATOM     10  C   UNL     1       1.146   8.462  21.000  0.00  0.00    +0.000 A 
ATOM     11  C   UNL     1       0.715   9.781  20.886  0.00  0.00    +0.000 A 
BRANCH   6  13
ATOM     12  C   UNL     1       0.954  12.845  20.473  0.00  0.00    +0.000 C 
ATOM     13  N   UNL     1       0.434  11.822  19.573  0.00  0.00    +0.000 N 
ATOM     14  C   UNL     1      -0.723  12.141  18.747  0.00  0.00    +0.000 C 
ENDBRANCH   6  13
ENDBRANCH   1   9
BRANCH   3  15
ATOM     15  C   UNL     1       4.271   3.600  19.462  0.00  0.00    +0.000 C 
BRANCH  15  16
ATOM     16  C   UNL     1       3.874   2.773  18.243  0.00  0.00    +0.000 C 
BRANCH  16  17
ATOM     17  C   UNL     1       3.503   3.620  17.025  0.00  0.00    +0.000 C 
BRANCH  17  18
ATOM     18  C   UNL     1       4.736   3.790  16.140  0.00  0.00    +0.000 C 
BRANCH  18  19
ATOM     19  C   UNL     1       5.266   5.218  16.143  0.00  0.00    +0.000 C 
BRANCH  19  20
ATOM     20  C   UNL     1       6.709   5.259  16.608  0.00  0.00    +0.000 C 
ATOM     21  O   UNL     1       7.478   6.196  16.417  0.00  0.00    +0.000 OA
ATOM     22  N   UNL     1       7.101   4.123  17.270  0.00  0.00    +0.000 N 
ATOM     23  H   UNL     1       6.504   3.342  17.513  0.00  0.00    +0.000 HD
BRANCH  22  24
ATOM     24  O   UNL     1       8.434   4.097  17.734  0.00  0.00    +0.000 OA
ATOM     25  H   UNL     1       8.427   4.793  18.429  0.00  0.00    +0.000 HD
ENDBRANCH  22  24
ENDBRANCH  19  20
ENDBRANCH  18  19
ENDBRANCH  17  18
ENDBRANCH  16  17
ENDBRANCH  15  16
ENDBRANCH   3  15
TORSDOF 9
ENDMDL
MODEL 8
REMARK VINA RESULT:      -5.7      3.409      7.191
REMARK  Name = 
REMARK  11 active torsions:
REMARK  status: ('A' for Active; 'I' for Inactive)
REMARK    1  A    between atoms: C_1  and  N_2
REMARK    2  A    between atoms: N_2  and  C_3
REMARK    3  A    between atoms: N_2  and  C_4
REMARK    4  A    between atoms: C_7  and  C_8
REMARK    5  A    between atoms: N_10  and  C_11
REMARK    6  A    between atoms: C_11  and  C_12
REMARK    7  A    between atoms: C_12  and  C_13
REMARK    8  A    between atoms: C_13  and  C_14
REMARK    9  A    between atoms: C_14  and  C_15
REMARK   10  A    between atoms: C_15  and  C_16
REMARK   11  A    between atoms: N_18  and  O_19
REMARK                            x       y       z     vdW  Elec       q    Type
REMARK                         _______ _______ _______ _____ _____    ______ ____
ROOT
ATOM      1  C   UNL     1       2.459   6.445  19.599  0.00  0.00    +0.000 A 
ATOM      2  C   UNL     1       3.226   5.929  18.574  0.00  0.00    +0.000 A 
ATOM      3  N   UNL     1       3.495   4.661  18.979  0.00  0.00    +0.000 N 
ATOM      4  N   UNL     1       2.946   4.396  20.177  0.00  0.00    +0.000 NA
ATOM      5  N   UNL     1       2.303   5.489  20.566  0.00  0.00    +0.000 NA
ENDROOT
BRANCH   1   9
ATOM      6  C   UNL     1       0.823  10.395  19.758  0.00  0.00    +0.000 A 
ATOM      7  C   UNL     1       0.856   9.559  20.885  0.00  0.00    +0.000 A 
ATOM      8  C   UNL     1       1.389   8.272  20.840  0.00  0.00    +0.000 A 
ATOM      9  C   UNL     1       1.919   7.774  19.649  0.00  0.00    +0.000 A 
ATOM     10  C   UNL     1       1.911   8.590  18.515  0.00  0.00    +0.000 A 
ATOM     11  C   UNL     1       1.376   9.874  18.573  0.00  0.00    +0.000 A 
BRANCH   6  13
ATOM     12  C   UNL     1      -1.143  11.856  20.087  0.00  0.00    +0.000 C 
ATOM     13  N   UNL     1       0.277  11.669  19.815  0.00  0.00    +0.000 N 
ATOM     14  C   UNL     1       1.052  12.804  19.333  0.00  0.00    +0.000 C 
ENDBRANCH   6  13
ENDBRANCH   1   9
BRANCH   3  15
ATOM     15  C   UNL     1       4.284   3.649  18.313  0.00  0.00    +0.000 C 
BRANCH  15  16
ATOM     16  C   UNL     1       4.158   3.682  16.793  0.00  0.00    +0.000 C 
BRANCH  16  17
ATOM     17  C   UNL     1       5.484   3.947  16.077  0.00  0.00    +0.000 C 
BRANCH  17  18
ATOM     18  C   UNL     1       5.738   5.452  16.036  0.00  0.00    +0.000 C 
BRANCH  18  19
ATOM     19  C   UNL     1       7.168   5.814  16.418  0.00  0.00    +0.000 C 
BRANCH  19  20
ATOM     20  C   UNL     1       7.560   5.164  17.730  0.00  0.00    +0.000 C 
ATOM     21  O   UNL     1       8.269   4.167  17.831  0.00  0.00    +0.000 OA
ATOM     22  N   UNL     1       7.032   5.792  18.829  0.00  0.00    +0.000 N 
ATOM     23  H   UNL     1       6.491   6.648  18.820  0.00  0.00    +0.000 HD
BRANCH  22  24
ATOM     24  O   UNL     1       7.361   5.239  20.085  0.00  0.00    +0.000 OA
ATOM     25  H   UNL     1       7.609   6.036  20.606  0.00  0.00    +0.000 HD
ENDBRANCH  22  24
ENDBRANCH  19  20
ENDBRANCH  18  19
ENDBRANCH  17  18
ENDBRANCH  16  17
ENDBRANCH  15  16
ENDBRANCH   3  15
TORSDOF 9
ENDMDL
MODEL 9
REMARK VINA RESULT:      -5.7      3.707      7.728
REMARK  Name = 
REMARK  11 active torsions:
REMARK  status: ('A' for Active; 'I' for Inactive)
REMARK    1  A    between atoms: C_1  and  N_2
REMARK    2  A    between atoms: N_2  and  C_3
REMARK    3  A    between atoms: N_2  and  C_4
REMARK    4  A    between atoms: C_7  and  C_8
REMARK    5  A    between atoms: N_10  and  C_11
REMARK    6  A    between atoms: C_11  and  C_12
REMARK    7  A    between atoms: C_12  and  C_13
REMARK    8  A    between atoms: C_13  and  C_14
REMARK    9  A    between atoms: C_14  and  C_15
REMARK   10  A    between atoms: C_15  and  C_16
REMARK   11  A    between atoms: N_18  and  O_19
REMARK                            x       y       z     vdW  Elec       q    Type
REMARK                         _______ _______ _______ _____ _____    ______ ____
ROOT
ATOM      1  C   UNL     1       3.157   6.502  18.158  0.00  0.00    +0.000 A 
ATOM      2  C   UNL     1       4.525   6.457  17.978  0.00  0.00    +0.000 A 
ATOM      3  N   UNL     1       4.754   5.182  17.570  0.00  0.00    +0.000 N 
ATOM      4  N   UNL     1       3.616   4.470  17.504  0.00  0.00    +0.000 NA
ATOM      5  N   UNL     1       2.625   5.277  17.863  0.00  0.00    +0.000 NA
ENDROOT
BRANCH   1   9
ATOM      6  C   UNL     1       0.960   9.938  19.452  0.00  0.00    +0.000 A 
ATOM      7  C   UNL     1       1.425   9.807  18.134  0.00  0.00    +0.000 A 
ATOM      8  C   UNL     1       2.140   8.690  17.706  0.00  0.00    +0.000 A 
ATOM      9  C   UNL     1       2.412   7.649  18.595  0.00  0.00    +0.000 A 
ATOM     10  C   UNL     1       1.951   7.748  19.910  0.00  0.00    +0.000 A 
ATOM     11  C   UNL     1       1.238   8.869  20.325  0.00  0.00    +0.000 A 
BRANCH   6  13
ATOM     12  C   UNL     1       0.914  12.084  20.677  0.00  0.00    +0.000 C 
ATOM     13  N   UNL     1       0.262  11.062  19.867  0.00  0.00    +0.000 N 
ATOM     14  C   UNL     1      -1.188  11.096  19.735  0.00  0.00    +0.000 C 
ENDBRANCH   6  13
ENDBRANCH   1   9
BRANCH   3  15
ATOM     15  C   UNL     1       6.015   4.550  17.251  0.00  0.00    +0.000 C 
BRANCH  15  16
ATOM     16  C   UNL     1       5.958   3.673  16.003  0.00  0.00    +0.000 C 
BRANCH  16  17
ATOM     17  C   UNL     1       6.419   4.390  14.733  0.00  0.00    +0.000 C 
BRANCH  17  18
ATOM     18  C   UNL     1       5.533   3.959  13.566  0.00  0.00    +0.000 C 
BRANCH  18  19
ATOM     19  C   UNL     1       6.336   3.602  12.322  0.00  0.00    +0.000 C 
BRANCH  19  20
ATOM     20  C   UNL     1       5.726   2.413  11.606  0.00  0.00    +0.000 C 
ATOM     21  O   UNL     1       4.562   2.352  11.220  0.00  0.00    +0.000 OA
ATOM     22  N   UNL     1       6.604   1.373  11.431  0.00  0.00    +0.000 N 
ATOM     23  H   UNL     1       7.587   1.381  11.671  0.00  0.00    +0.000 HD
BRANCH  22  24
ATOM     24  O   UNL     1       6.100   0.234  10.766  0.00  0.00    +0.000 OA
ATOM     25  H   UNL     1       6.225   0.471   9.820  0.00  0.00    +0.000 HD
ENDBRANCH  22  24
ENDBRANCH  19  20
ENDBRANCH  18  19
ENDBRANCH  17  18
ENDBRANCH  16  17
ENDBRANCH  15  16
ENDBRANCH   3  15
TORSDOF 9
ENDMDL
