MODEL 1
REMARK VINA RESULT:      -6.5      0.000      0.000
REMARK  Name = 
REMARK  3 active torsions:
REMARK  status: ('A' for Active; 'I' for Inactive)
REMARK    1  A    between atoms: C_2  and  C_3
REMARK    2  A    between atoms: C_3  and  O_4
REMARK    3  A    between atoms: C_9  and  C_11
REMARK                            x       y       z     vdW  Elec       q    Type
REMARK                         _______ _______ _______ _____ _____    ______ ____
ROOT
ATOM      1  O   UNL     1       5.707   3.662  12.539  0.00  0.00    +0.000 OA
ATOM      2  C   UNL     1       6.546   4.201  13.267  0.00  0.00    +0.000 C 
ATOM      3  N   UNL     1       6.346   4.389  14.627  0.00  0.00    +0.000 N 
ATOM      4  C   UNL     1       7.400   4.830  15.555  0.00  0.00    +0.000 C 
ATOM      5  C   UNL     1       6.826   5.562  16.776  0.00  0.00    +0.000 C 
ATOM      6  N   UNL     1       5.764   4.774  17.405  0.00  0.00    +0.000 N 
ATOM      7  C   UNL     1       5.777   4.633  18.791  0.00  0.00    +0.000 C 
ATOM      8  O   UNL     1       6.628   5.209  19.470  0.00  0.00    +0.000 OA
ATOM      9  C   UNL     1       4.668   4.458  16.480  0.00  0.00    +0.000 C 
ATOM     10  C   UNL     1       5.204   3.705  15.251  0.00  0.00    +0.000 C 
ENDROOT
BRANCH   7  11
ATOM     11  C   UNL     1       4.773   3.817  19.464  0.00  0.00    +0.000 A 
ATOM     12  C   UNL     1       5.041   2.507  19.829  0.00  0.00    +0.000 A 
ATOM     13  O   UNL     1       3.983   1.935  20.451  0.00  0.00    +0.000 OA
ATOM     14  C   UNL     1       2.987   2.858  20.451  0.00  0.00    +0.000 A 
ATOM     15  C   UNL     1       1.722   2.665  21.001  0.00  0.00    +0.000 A 
ATOM     16  C   UNL     1       0.824   3.729  20.902  0.00  0.00    +0.000 A 
ATOM     17  C   UNL     1       1.175   4.901  20.233  0.00  0.00    +0.000 A 
ATOM     18  C   UNL     1       2.442   5.045  19.652  0.00  0.00    +0.000 A 
ATOM     19  C   UNL     1       3.397   4.022  19.812  0.00  0.00    +0.000 A 
ENDBRANCH   7  11
BRANCH   2  20
ATOM     20  C   UNL     1       7.880   4.664  12.666  0.00  0.00    +0.000 C 
BRANCH  20  21
ATOM     21  O   UNL     1       7.963   6.079  12.567  0.00  0.00    +0.000 OA
ATOM     22  H   UNL     1       7.187   6.358  12.042  0.00  0.00    +0.000 HD
ENDBRANCH  20  21
ENDBRANCH   2  20
TORSDOF 3
ENDMDL
MODEL 2
REMARK VINA RESULT:      -6.5      3.923      6.724
REMARK  Name = 
REMARK  3 active torsions:
REMARK  status: ('A' for Active; 'I' for Inactive)
REMARK    1  A    between atoms: C_2  and  C_3
REMARK    2  A    between atoms: C_3  and  O_4
REMARK    3  A    between atoms: C_9  and  C_11
REMARK                            x       y       z     vdW  Elec       q    Type
REMARK                         _______ _______ _______ _____ _____    ______ ____
ROOT
ATOM      1  O   UNL     1       2.623   2.220  21.489  0.00  0.00    +0.000 OA
ATOM      2  C   UNL     1       3.444   2.670  20.685  0.00  0.00    +0.000 C 
ATOM      3  N   UNL     1       3.243   3.857  19.994  0.00  0.00    +0.000 N 
ATOM      4  C   UNL     1       4.284   4.526  19.197  0.00  0.00    +0.000 C 
ATOM      5  C   UNL     1       3.689   5.382  18.071  0.00  0.00    +0.000 C 
ATOM      6  N   UNL     1       2.658   6.283  18.589  0.00  0.00    +0.000 N 
ATOM      7  C   UNL     1       2.682   7.616  18.186  0.00  0.00    +0.000 C 
ATOM      8  O   UNL     1       3.513   8.007  17.367  0.00  0.00    +0.000 OA
ATOM      9  C   UNL     1       1.571   5.569  19.271  0.00  0.00    +0.000 C 
ATOM     10  C   UNL     1       2.129   4.716  20.422  0.00  0.00    +0.000 C 
ENDROOT
BRANCH   7  11
ATOM     11  C   UNL     1       1.710   8.568  18.712  0.00  0.00    +0.000 A 
ATOM     12  C   UNL     1       1.050   9.455  17.876  0.00  0.00    +0.000 A 
ATOM     13  O   UNL     1       0.184  10.239  18.561  0.00  0.00    +0.000 OA
ATOM     14  C   UNL     1       0.311   9.904  19.870  0.00  0.00    +0.000 A 
ATOM     15  C   UNL     1      -0.410  10.481  20.913  0.00  0.00    +0.000 A 
ATOM     16  C   UNL     1      -0.141  10.010  22.200  0.00  0.00    +0.000 A 
ATOM     17  C   UNL     1       0.845   9.049  22.418  0.00  0.00    +0.000 A 
ATOM     18  C   UNL     1       1.583   8.522  21.349  0.00  0.00    +0.000 A 
ATOM     19  C   UNL     1       1.273   8.915  20.033  0.00  0.00    +0.000 A 
ENDBRANCH   7  11
BRANCH   2  20
ATOM     20  C   UNL     1       4.759   1.915  20.446  0.00  0.00    +0.000 C 
BRANCH  20  21
ATOM     21  O   UNL     1       5.334   1.438  21.655  0.00  0.00    +0.000 OA
ATOM     22  H   UNL     1       5.853   0.646  21.411  0.00  0.00    +0.000 HD
ENDBRANCH  20  21
ENDBRANCH   2  20
TORSDOF 3
ENDMDL
MODEL 3
REMARK VINA RESULT:      -6.5      2.001      7.103
REMARK  Name = 
REMARK  3 active torsions:
REMARK  status: ('A' for Active; 'I' for Inactive)
REMARK    1  A    between atoms: C_2  and  C_3
REMARK    2  A    between atoms: C_3  and  O_4
REMARK    3  A    between atoms: C_9  and  C_11
REMARK                            x       y       z     vdW  Elec       q    Type
REMARK                         _______ _______ _______ _____ _____    ______ ____
ROOT
ATOM      1  O   UNL     1       3.560   1.757  21.442  0.00  0.00    +0.000 OA
ATOM      2  C   UNL     1       2.897   2.751  21.132  0.00  0.00    +0.000 C 
ATOM      3  N   UNL     1       3.342   3.689  20.210  0.00  0.00    +0.000 N 
ATOM      4  C   UNL     1       2.496   4.761  19.662  0.00  0.00    +0.000 C 
ATOM      5  C   UNL     1       3.319   5.980  19.223  0.00  0.00    +0.000 C 
ATOM      6  N   UNL     1       4.421   5.577  18.346  0.00  0.00    +0.000 N 
ATOM      7  C   UNL     1       4.639   6.307  17.181  0.00  0.00    +0.000 C 
ATOM      8  O   UNL     1       3.959   7.302  16.929  0.00  0.00    +0.000 OA
ATOM      9  C   UNL     1       5.317   4.597  18.975  0.00  0.00    +0.000 C 
ATOM     10  C   UNL     1       4.528   3.351  19.409  0.00  0.00    +0.000 C 
ENDROOT
BRANCH   7  11
ATOM     11  C   UNL     1       5.690   5.918  16.247  0.00  0.00    +0.000 A 
ATOM     12  C   UNL     1       6.986   6.388  16.389  0.00  0.00    +0.000 A 
ATOM     13  O   UNL     1       7.805   5.896  15.429  0.00  0.00    +0.000 OA
ATOM     14  C   UNL     1       7.032   5.137  14.612  0.00  0.00    +0.000 A 
ATOM     15  C   UNL     1       7.493   4.447  13.493  0.00  0.00    +0.000 A 
ATOM     16  C   UNL     1       6.547   3.720  12.768  0.00  0.00    +0.000 A 
ATOM     17  C   UNL     1       5.201   3.738  13.129  0.00  0.00    +0.000 A 
ATOM     18  C   UNL     1       4.764   4.479  14.236  0.00  0.00    +0.000 A 
ATOM     19  C   UNL     1       5.707   5.152  15.035  0.00  0.00    +0.000 A 
ENDBRANCH   7  11
BRANCH   2  20
ATOM     20  C   UNL     1       1.512   2.961  21.758  0.00  0.00    +0.000 C 
BRANCH  20  21
ATOM     21  O   UNL     1       0.467   2.865  20.800  0.00  0.00    +0.000 OA
ATOM     22  H   UNL     1       0.875   2.491  19.994  0.00  0.00    +0.000 HD
ENDBRANCH  20  21
ENDBRANCH   2  20
TORSDOF 3
ENDMDL
MODEL 4
REMARK VINA RESULT:      -6.4      3.874      7.408
REMARK  Name = 
REMARK  3 active torsions:
REMARK  status: ('A' for Active; 'I' for Inactive)
REMARK    1  A    between atoms: C_2  and  C_3
REMARK    2  A    between atoms: C_3  and  O_4
REMARK    3  A    between atoms: C_9  and  C_11
REMARK                            x       y       z     vdW  Elec       q    Type
REMARK                         _______ _______ _______ _____ _____    ______ ____
ROOT
ATOM      1  O   UNL     1       0.459  10.786  18.726  0.00  0.00    +0.000 OA
ATOM      2  C   UNL     1       0.623   9.906  19.577  0.00  0.00    +0.000 C 
ATOM      3  N   UNL     1       1.459   8.817  19.376  0.00  0.00    +0.000 N 
ATOM      4  C   UNL     1       1.839   7.871  20.438  0.00  0.00    +0.000 C 
ATOM      5  C   UNL     1       2.186   6.484  19.880  0.00  0.00    +0.000 C 
ATOM      6  N   UNL     1       3.161   6.588  18.792  0.00  0.00    +0.000 N 
ATOM      7  C   UNL     1       4.250   5.720  18.794  0.00  0.00    +0.000 C 
ATOM      8  O   UNL     1       4.353   4.849  19.658  0.00  0.00    +0.000 OA
ATOM      9  C   UNL     1       2.694   7.442  17.692  0.00  0.00    +0.000 C 
ATOM     10  C   UNL     1       2.356   8.849  18.211  0.00  0.00    +0.000 C 
ENDROOT
BRANCH   7  11
ATOM     11  C   UNL     1       5.277   5.815  17.763  0.00  0.00    +0.000 A 
ATOM     12  C   UNL     1       6.304   6.741  17.857  0.00  0.00    +0.000 A 
ATOM     13  O   UNL     1       7.155   6.653  16.807  0.00  0.00    +0.000 OA
ATOM     14  C   UNL     1       6.657   5.696  15.984  0.00  0.00    +0.000 A 
ATOM     15  C   UNL     1       7.240   5.295  14.784  0.00  0.00    +0.000 A 
ATOM     16  C   UNL     1       6.579   4.295  14.067  0.00  0.00    +0.000 A 
ATOM     17  C   UNL     1       5.368   3.773  14.517  0.00  0.00    +0.000 A 
ATOM     18  C   UNL     1       4.787   4.231  15.707  0.00  0.00    +0.000 A 
ATOM     19  C   UNL     1       5.473   5.176  16.494  0.00  0.00    +0.000 A 
ENDBRANCH   7  11
BRANCH   2  20
ATOM     20  C   UNL     1      -0.098  10.019  20.927  0.00  0.00    +0.000 C 
BRANCH  20  21
ATOM     21  O   UNL     1       0.561  10.908  21.818  0.00  0.00    +0.000 OA
ATOM     22  H   UNL     1       0.175  11.791  21.649  0.00  0.00    +0.000 HD
ENDBRANCH  20  21
ENDBRANCH   2  20
TORSDOF 3
ENDMDL
MODEL 5
REMARK VINA RESULT:      -6.4      3.060      7.358
REMARK  Name = 
REMARK  3 active torsions:
REMARK  status: ('A' for Active; 'I' for Inactive)
REMARK    1  A    between atoms: C_2  and  C_3
REMARK    2  A    between atoms: C_3  and  O_4
REMARK    3  A    between atoms: C_9  and  C_11
REMARK                            x       y       z     vdW  Elec       q    Type
REMARK                         _______ _______ _______ _____ _____    ______ ____
ROOT
ATOM      1  O   UNL     1       1.656   9.425  19.510  0.00  0.00    +0.000 OA
ATOM      2  C   UNL     1       1.694   8.259  19.915  0.00  0.00    +0.000 C 
ATOM      3  N   UNL     1       2.361   7.251  19.233  0.00  0.00    +0.000 N 
ATOM      4  C   UNL     1       2.605   5.910  19.790  0.00  0.00    +0.000 C 
ATOM      5  C   UNL     1       2.745   4.846  18.693  0.00  0.00    +0.000 C 
ATOM      6  N   UNL     1       3.719   5.262  17.682  0.00  0.00    +0.000 N 
ATOM      7  C   UNL     1       4.670   4.337  17.260  0.00  0.00    +0.000 C 
ATOM      8  O   UNL     1       4.650   3.181  17.684  0.00  0.00    +0.000 OA
ATOM      9  C   UNL     1       3.376   6.548  17.059  0.00  0.00    +0.000 C 
ATOM     10  C   UNL     1       3.248   7.645  18.129  0.00  0.00    +0.000 C 
ENDROOT
BRANCH   7  11
ATOM     11  C   UNL     1       5.696   4.714  16.294  0.00  0.00    +0.000 A 
ATOM     12  C   UNL     1       6.695   5.616  16.625  0.00  0.00    +0.000 A 
ATOM     13  O   UNL     1       7.550   5.816  15.593  0.00  0.00    +0.000 OA
ATOM     14  C   UNL     1       7.081   5.081  14.553  0.00  0.00    +0.000 A 
ATOM     15  C   UNL     1       7.676   5.010  13.296  0.00  0.00    +0.000 A 
ATOM     16  C   UNL     1       7.046   4.203  12.346  0.00  0.00    +0.000 A 
ATOM     17  C   UNL     1       5.849   3.552  12.641  0.00  0.00    +0.000 A 
ATOM     18  C   UNL     1       5.253   3.682  13.904  0.00  0.00    +0.000 A 
ATOM     19  C   UNL     1       5.911   4.419  14.908  0.00  0.00    +0.000 A 
ENDBRANCH   7  11
BRANCH   2  20
ATOM     20  C   UNL     1       1.003   7.896  21.236  0.00  0.00    +0.000 C 
BRANCH  20  21
ATOM     21  O   UNL     1      -0.040   8.804  21.566  0.00  0.00    +0.000 OA
ATOM     22  H   UNL     1       0.402   9.613  21.892  0.00  0.00    +0.000 HD
ENDBRANCH  20  21
ENDBRANCH   2  20
TORSDOF 3
ENDMDL
MODEL 6
REMARK VINA RESULT:      -6.4      2.996      4.270
REMARK  Name = 
REMARK  3 active torsions:
REMARK  status: ('A' for Active; 'I' for Inactive)
REMARK    1  A    between atoms: C_2  and  C_3
REMARK    2  A    between atoms: C_3  and  O_4
REMARK    3  A    between atoms: C_9  and  C_11
REMARK                            x       y       z     vdW  Elec       q    Type
REMARK                         _______ _______ _______ _____ _____    ______ ____
ROOT
ATOM      1  O   UNL     1       7.370   5.878  15.078  0.00  0.00    +0.000 OA
ATOM      2  C   UNL     1       6.604   4.921  15.221  0.00  0.00    +0.000 C 
ATOM      3  N   UNL     1       5.624   4.887  16.203  0.00  0.00    +0.000 N 
ATOM      4  C   UNL     1       4.564   3.867  16.266  0.00  0.00    +0.000 C 
ATOM      5  C   UNL     1       4.053   3.651  17.697  0.00  0.00    +0.000 C 
ATOM      6  N   UNL     1       3.697   4.927  18.322  0.00  0.00    +0.000 N 
ATOM      7  C   UNL     1       2.488   5.011  19.008  0.00  0.00    +0.000 C 
ATOM      8  O   UNL     1       1.770   4.019  19.135  0.00  0.00    +0.000 OA
ATOM      9  C   UNL     1       4.817   5.876  18.353  0.00  0.00    +0.000 C 
ATOM     10  C   UNL     1       5.341   6.133  16.931  0.00  0.00    +0.000 C 
ENDROOT
BRANCH   7  11
ATOM     11  C   UNL     1       2.059   6.271  19.605  0.00  0.00    +0.000 A 
ATOM     12  C   UNL     1       1.617   6.329  20.917  0.00  0.00    +0.000 A 
ATOM     13  O   UNL     1       1.282   7.591  21.277  0.00  0.00    +0.000 OA
ATOM     14  C   UNL     1       1.453   8.366  20.176  0.00  0.00    +0.000 A 
ATOM     15  C   UNL     1       1.216   9.738  20.123  0.00  0.00    +0.000 A 
ATOM     16  C   UNL     1       1.444  10.369  18.898  0.00  0.00    +0.000 A 
ATOM     17  C   UNL     1       1.836   9.637  17.779  0.00  0.00    +0.000 A 
ATOM     18  C   UNL     1       2.021   8.250  17.856  0.00  0.00    +0.000 A 
ATOM     19  C   UNL     1       1.883   7.601  19.098  0.00  0.00    +0.000 A 
ENDBRANCH   7  11
BRANCH   2  20
ATOM     20  C   UNL     1       6.705   3.724  14.266  0.00  0.00    +0.000 C 
BRANCH  20  21
ATOM     21  O   UNL     1       6.153   4.005  12.988  0.00  0.00    +0.000 OA
ATOM     22  H   UNL     1       6.758   4.650  12.570  0.00  0.00    +0.000 HD
ENDBRANCH  20  21
ENDBRANCH   2  20
TORSDOF 3
ENDMDL
MODEL 7
REMARK VINA RESULT:      -6.3      1.348      1.506
REMARK  Name = 
REMARK  3 active torsions:
REMARK  status: ('A' for Active; 'I' for Inactive)
REMARK    1  A    between atoms: C_2  and  C_3
REMARK    2  A    between atoms: C_3  and  O_4
REMARK    3  A    between atoms: C_9  and  C_11
REMARK                            x       y       z     vdW  Elec       q    Type
REMARK                         _______ _______ _______ _____ _____    ______ ____
ROOT
ATOM      1  O   UNL     1       4.702   3.533  12.106  0.00  0.00    +0.000 OA
ATOM      2  C   UNL     1       5.777   3.692  12.692  0.00  0.00    +0.000 C 
ATOM      3  N   UNL     1       5.854   3.988  14.046  0.00  0.00    +0.000 N 
ATOM      4  C   UNL     1       7.108   3.973  14.816  0.00  0.00    +0.000 C 
ATOM      5  C   UNL     1       7.055   4.915  16.027  0.00  0.00    +0.000 C 
ATOM      6  N   UNL     1       5.855   4.666  16.829  0.00  0.00    +0.000 N 
ATOM      7  C   UNL     1       5.992   4.575  18.212  0.00  0.00    +0.000 C 
ATOM      8  O   UNL     1       7.085   4.761  18.745  0.00  0.00    +0.000 OA
ATOM      9  C   UNL     1       4.615   4.812  16.055  0.00  0.00    +0.000 C 
ATOM     10  C   UNL     1       4.625   3.866  14.843  0.00  0.00    +0.000 C 
ENDROOT
BRANCH   7  11
ATOM     11  C   UNL     1       4.839   4.278  19.054  0.00  0.00    +0.000 A 
ATOM     12  C   UNL     1       4.609   2.996  19.528  0.00  0.00    +0.000 A 
ATOM     13  O   UNL     1       3.497   2.939  20.299  0.00  0.00    +0.000 OA
ATOM     14  C   UNL     1       2.957   4.184  20.293  0.00  0.00    +0.000 A 
ATOM     15  C   UNL     1       1.798   4.554  20.971  0.00  0.00    +0.000 A 
ATOM     16  C   UNL     1       1.390   5.883  20.843  0.00  0.00    +0.000 A 
ATOM     17  C   UNL     1       2.090   6.770  20.027  0.00  0.00    +0.000 A 
ATOM     18  C   UNL     1       3.228   6.353  19.322  0.00  0.00    +0.000 A 
ATOM     19  C   UNL     1       3.711   5.043  19.501  0.00  0.00    +0.000 A 
ENDBRANCH   7  11
BRANCH   2  20
ATOM     20  C   UNL     1       7.091   3.533  11.916  0.00  0.00    +0.000 C 
BRANCH  20  21
ATOM     21  O   UNL     1       7.338   2.184  11.545  0.00  0.00    +0.000 OA
ATOM     22  H   UNL     1       6.516   1.867  11.122  0.00  0.00    +0.000 HD
ENDBRANCH  20  21
ENDBRANCH   2  20
TORSDOF 3
ENDMDL
MODEL 8
REMARK VINA RESULT:      -6.3      3.524      7.412
REMARK  Name = 
REMARK  3 active torsions:
REMARK  status: ('A' for Active; 'I' for Inactive)
REMARK    1  A    between atoms: C_2  and  C_3
REMARK    2  A    between atoms: C_3  and  O_4
REMARK    3  A    between atoms: C_9  and  C_11
REMARK                            x       y       z     vdW  Elec       q    Type
REMARK                         _______ _______ _______ _____ _____    ______ ____
ROOT
ATOM      1  O   UNL     1       0.788  10.196  20.309  0.00  0.00    +0.000 OA
ATOM      2  C   UNL     1       0.662   9.117  20.894  0.00  0.00    +0.000 C 
ATOM      3  N   UNL     1       1.359   7.977  20.519  0.00  0.00    +0.000 N 
ATOM      4  C   UNL     1       1.395   6.741  21.318  0.00  0.00    +0.000 C 
ATOM      5  C   UNL     1       1.644   5.499  20.450  0.00  0.00    +0.000 C 
ATOM      6  N   UNL     1       2.812   5.691  19.588  0.00  0.00    +0.000 N 
ATOM      7  C   UNL     1       3.748   4.662  19.505  0.00  0.00    +0.000 C 
ATOM      8  O   UNL     1       3.562   3.598  20.096  0.00  0.00    +0.000 OA
ATOM      9  C   UNL     1       2.687   6.865  18.715  0.00  0.00    +0.000 C 
ATOM     10  C   UNL     1       2.457   8.133  19.553  0.00  0.00    +0.000 C 
ENDROOT
BRANCH   7  11
ATOM     11  C   UNL     1       4.955   4.820  18.702  0.00  0.00    +0.000 A 
ATOM     12  C   UNL     1       6.119   5.335  19.251  0.00  0.00    +0.000 A 
ATOM     13  O   UNL     1       7.122   5.384  18.342  0.00  0.00    +0.000 OA
ATOM     14  C   UNL     1       6.601   4.949  17.167  0.00  0.00    +0.000 A 
ATOM     15  C   UNL     1       7.310   4.844  15.972  0.00  0.00    +0.000 A 
ATOM     16  C   UNL     1       6.603   4.379  14.860  0.00  0.00    +0.000 A 
ATOM     17  C   UNL     1       5.243   4.090  14.947  0.00  0.00    +0.000 A 
ATOM     18  C   UNL     1       4.550   4.249  16.155  0.00  0.00    +0.000 A 
ATOM     19  C   UNL     1       5.255   4.633  17.312  0.00  0.00    +0.000 A 
ENDBRANCH   7  11
BRANCH   2  20
ATOM     20  C   UNL     1      -0.279   9.018  22.102  0.00  0.00    +0.000 C 
BRANCH  20  21
ATOM     21  O   UNL     1       0.156   9.820  23.191  0.00  0.00    +0.000 OA
ATOM     22  H   UNL     1       1.121   9.678  23.260  0.00  0.00    +0.000 HD
ENDBRANCH  20  21
ENDBRANCH   2  20
TORSDOF 3
ENDMDL
MODEL 9
REMARK VINA RESULT:      -6.3      3.686      6.105
REMARK  Name = 
REMARK  3 active torsions:
REMARK  status: ('A' for Active; 'I' for Inactive)
REMARK    1  A    between atoms: C_2  and  C_3
REMARK    2  A    between atoms: C_3  and  O_4
REMARK    3  A    between atoms: C_9  and  C_11
REMARK                            x       y       z     vdW  Elec       q    Type
REMARK                         _______ _______ _______ _____ _____    ______ ____
ROOT
ATOM      1  O   UNL     1       1.841   1.549  19.465  0.00  0.00    +0.000 OA
ATOM      2  C   UNL     1       2.875   2.064  19.028  0.00  0.00    +0.000 C 
ATOM      3  N   UNL     1       2.948   3.400  18.662  0.00  0.00    +0.000 N 
ATOM      4  C   UNL     1       4.208   4.092  18.343  0.00  0.00    +0.000 C 
ATOM      5  C   UNL     1       3.992   5.275  17.388  0.00  0.00    +0.000 C 
ATOM      6  N   UNL     1       2.931   6.156  17.880  0.00  0.00    +0.000 N 
ATOM      7  C   UNL     1       3.158   7.530  17.874  0.00  0.00    +0.000 C 
ATOM      8  O   UNL     1       4.201   7.990  17.409  0.00  0.00    +0.000 OA
ATOM      9  C   UNL     1       1.654   5.456  18.070  0.00  0.00    +0.000 C 
ATOM     10  C   UNL     1       1.828   4.275  19.039  0.00  0.00    +0.000 C 
ENDROOT
BRANCH   7  11
ATOM     11  C   UNL     1       2.156   8.450  18.401  0.00  0.00    +0.000 A 
ATOM     12  C   UNL     1       1.694   9.517  17.646  0.00  0.00    +0.000 A 
ATOM     13  O   UNL     1       0.761  10.235  18.314  0.00  0.00    +0.000 OA
ATOM     14  C   UNL     1       0.642   9.671  19.543  0.00  0.00    +0.000 A 
ATOM     15  C   UNL     1      -0.221  10.113  20.543  0.00  0.00    +0.000 A 
ATOM     16  C   UNL     1      -0.201   9.407  21.748  0.00  0.00    +0.000 A 
ATOM     17  C   UNL     1       0.684   8.349  21.943  0.00  0.00    +0.000 A 
ATOM     18  C   UNL     1       1.571   7.958  20.930  0.00  0.00    +0.000 A 
ATOM     19  C   UNL     1       1.514   8.595  19.675  0.00  0.00    +0.000 A 
ENDBRANCH   7  11
BRANCH   2  20
ATOM     20  C   UNL     1       4.146   1.214  18.902  0.00  0.00    +0.000 C 
BRANCH  20  21
ATOM     21  O   UNL     1       5.028   1.396  20.002  0.00  0.00    +0.000 OA
ATOM     22  H   UNL     1       5.223   2.354  20.033  0.00  0.00    +0.000 HD
ENDBRANCH  20  21
ENDBRANCH   2  20
TORSDOF 3
ENDMDL
