MODEL 1
REMARK VINA RESULT:      -7.0      0.000      0.000
REMARK  Name = 
REMARK  2 active torsions:
REMARK  status: ('A' for Active; 'I' for Inactive)
REMARK    1  A    between atoms: C_5  and  C_6
REMARK    2  A    between atoms: C_8  and  C_9
REMARK                            x       y       z     vdW  Elec       q    Type
REMARK                         _______ _______ _______ _____ _____    ______ ____
ROOT
ATOM      1  C   UNL     1       2.785   6.595  18.940  0.00  0.00    +0.000 A 
ATOM      2  N   UNL     1       2.307   7.811  19.080  0.00  0.00    +0.000 NA
ATOM      3  C   UNL     1       1.617   7.728  20.273  0.00  0.00    +0.000 A 
ATOM      4  N   UNL     1       1.662   6.512  20.842  0.00  0.00    +0.000 NA
ATOM      5  O   UNL     1       2.432   5.762  19.963  0.00  0.00    +0.000 OA
ENDROOT
BRANCH   1  10
ATOM      6 BR   UNL     1       6.257   4.158  14.477  0.00  0.00    +0.000 Br
ATOM      7  C   UNL     1       5.210   4.905  15.862  0.00  0.00    +0.000 A 
ATOM      8  C   UNL     1       4.422   4.080  16.661  0.00  0.00    +0.000 A 
ATOM      9  C   UNL     1       3.638   4.639  17.676  0.00  0.00    +0.000 A 
ATOM     10  C   UNL     1       3.632   6.025  17.897  0.00  0.00    +0.000 A 
ATOM     11  C   UNL     1       4.442   6.837  17.087  0.00  0.00    +0.000 A 
ATOM     12  C   UNL     1       5.227   6.281  16.072  0.00  0.00    +0.000 A 
ENDBRANCH   1  10
BRANCH   3  13
ATOM     13  C   UNL     1       0.914   8.864  20.857  0.00  0.00    +0.000 A 
ATOM     14  C   UNL     1       0.635  10.001  20.085  0.00  0.00    +0.000 A 
ATOM     15  C   UNL     1      -0.039  11.091  20.644  0.00  0.00    +0.000 A 
ATOM     16  C   UNL     1      -0.437  11.056  21.980  0.00  0.00    +0.000 A 
ATOM     17  C   UNL     1      -0.165   9.933  22.757  0.00  0.00    +0.000 A 
ATOM     18  C   UNL     1       0.506   8.843  22.200  0.00  0.00    +0.000 A 
ENDBRANCH   3  13
TORSDOF 2
ENDMDL
MODEL 2
REMARK VINA RESULT:      -7.0      0.086      1.139
REMARK  Name = 
REMARK  2 active torsions:
REMARK  status: ('A' for Active; 'I' for Inactive)
REMARK    1  A    between atoms: C_5  and  C_6
REMARK    2  A    between atoms: C_8  and  C_9
REMARK                            x       y       z     vdW  Elec       q    Type
REMARK                         _______ _______ _______ _____ _____    ______ ____
ROOT
ATOM      1  C   UNL     1       2.762   6.607  18.990  0.00  0.00    +0.000 A 
ATOM      2  N   UNL     1       2.280   7.821  19.138  0.00  0.00    +0.000 NA
ATOM      3  C   UNL     1       1.598   7.730  20.336  0.00  0.00    +0.000 A 
ATOM      4  N   UNL     1       1.651   6.512  20.900  0.00  0.00    +0.000 NA
ATOM      5  O   UNL     1       2.418   5.769  20.012  0.00  0.00    +0.000 OA
ENDROOT
BRANCH   1  10
ATOM      6 BR   UNL     1       6.214   4.201  14.496  0.00  0.00    +0.000 Br
ATOM      7  C   UNL     1       5.173   4.939  15.890  0.00  0.00    +0.000 A 
ATOM      8  C   UNL     1       4.408   4.107  16.703  0.00  0.00    +0.000 A 
ATOM      9  C   UNL     1       3.628   4.658  17.725  0.00  0.00    +0.000 A 
ATOM     10  C   UNL     1       3.604   6.045  17.940  0.00  0.00    +0.000 A 
ATOM     11  C   UNL     1       4.391   6.865  17.115  0.00  0.00    +0.000 A 
ATOM     12  C   UNL     1       5.172   6.317  16.094  0.00  0.00    +0.000 A 
ENDBRANCH   1  10
BRANCH   3  13
ATOM     13  C   UNL     1       0.894   8.861  20.929  0.00  0.00    +0.000 A 
ATOM     14  C   UNL     1       0.582   8.868  22.296  0.00  0.00    +0.000 A 
ATOM     15  C   UNL     1      -0.093   9.952  22.865  0.00  0.00    +0.000 A 
ATOM     16  C   UNL     1      -0.466  11.037  22.073  0.00  0.00    +0.000 A 
ATOM     17  C   UNL     1      -0.163  11.042  20.713  0.00  0.00    +0.000 A 
ATOM     18  C   UNL     1       0.513   9.961  20.144  0.00  0.00    +0.000 A 
ENDBRANCH   3  13
TORSDOF 2
ENDMDL
MODEL 3
REMARK VINA RESULT:      -7.0      3.370      7.380
REMARK  Name = 
REMARK  2 active torsions:
REMARK  status: ('A' for Active; 'I' for Inactive)
REMARK    1  A    between atoms: C_5  and  C_6
REMARK    2  A    between atoms: C_8  and  C_9
REMARK                            x       y       z     vdW  Elec       q    Type
REMARK                         _______ _______ _______ _____ _____    ______ ____
ROOT
ATOM      1  C   UNL     1       1.617   7.783  20.247  0.00  0.00    +0.000 A 
ATOM      2  N   UNL     1       2.343   7.801  19.151  0.00  0.00    +0.000 NA
ATOM      3  C   UNL     1       2.784   6.495  19.060  0.00  0.00    +0.000 A 
ATOM      4  N   UNL     1       2.354   5.706  20.058  0.00  0.00    +0.000 NA
ATOM      5  O   UNL     1       1.584   6.555  20.844  0.00  0.00    +0.000 OA
ENDROOT
BRANCH   1  10
ATOM      6 BR   UNL     1      -1.745  12.207  22.898  0.00  0.00    +0.000 Br
ATOM      7  C   UNL     1      -0.693  10.861  22.089  0.00  0.00    +0.000 A 
ATOM      8  C   UNL     1      -0.495  10.868  20.710  0.00  0.00    +0.000 A 
ATOM      9  C   UNL     1       0.272   9.862  20.113  0.00  0.00    +0.000 A 
ATOM     10  C   UNL     1       0.845   8.841  20.888  0.00  0.00    +0.000 A 
ATOM     11  C   UNL     1       0.642   8.860  22.278  0.00  0.00    +0.000 A 
ATOM     12  C   UNL     1      -0.124   9.864  22.877  0.00  0.00    +0.000 A 
ENDBRANCH   1  10
BRANCH   3  13
ATOM     13  C   UNL     1       3.631   6.025  17.971  0.00  0.00    +0.000 A 
ATOM     14  C   UNL     1       4.339   6.937  17.175  0.00  0.00    +0.000 A 
ATOM     15  C   UNL     1       5.152   6.488  16.130  0.00  0.00    +0.000 A 
ATOM     16  C   UNL     1       5.261   5.123  15.869  0.00  0.00    +0.000 A 
ATOM     17  C   UNL     1       4.562   4.206  16.650  0.00  0.00    +0.000 A 
ATOM     18  C   UNL     1       3.752   4.654  17.696  0.00  0.00    +0.000 A 
ENDBRANCH   3  13
TORSDOF 2
ENDMDL
MODEL 4
REMARK VINA RESULT:      -7.0      0.171      1.151
REMARK  Name = 
REMARK  2 active torsions:
REMARK  status: ('A' for Active; 'I' for Inactive)
REMARK    1  A    between atoms: C_5  and  C_6
REMARK    2  A    between atoms: C_8  and  C_9
REMARK                            x       y       z     vdW  Elec       q    Type
REMARK                         _______ _______ _______ _____ _____    ______ ____
ROOT
ATOM      1  C   UNL     1       2.683   6.659  19.038  0.00  0.00    +0.000 A 
ATOM      2  N   UNL     1       2.210   7.876  19.190  0.00  0.00    +0.000 NA
ATOM      3  C   UNL     1       1.523   7.784  20.385  0.00  0.00    +0.000 A 
ATOM      4  N   UNL     1       1.565   6.563  20.944  0.00  0.00    +0.000 NA
ATOM      5  O   UNL     1       2.329   5.818  20.055  0.00  0.00    +0.000 OA
ENDROOT
BRANCH   1  10
ATOM      6 BR   UNL     1       6.333   4.312  14.671  0.00  0.00    +0.000 Br
ATOM      7  C   UNL     1       5.195   5.033  15.996  0.00  0.00    +0.000 A 
ATOM      8  C   UNL     1       5.164   6.408  16.214  0.00  0.00    +0.000 A 
ATOM      9  C   UNL     1       4.330   6.936  17.206  0.00  0.00    +0.000 A 
ATOM     10  C   UNL     1       3.524   6.095  17.988  0.00  0.00    +0.000 A 
ATOM     11  C   UNL     1       3.562   4.712  17.744  0.00  0.00    +0.000 A 
ATOM     12  C   UNL     1       4.394   4.182  16.754  0.00  0.00    +0.000 A 
ENDBRANCH   1  10
BRANCH   3  13
ATOM     13  C   UNL     1       0.826   8.918  20.981  0.00  0.00    +0.000 A 
ATOM     14  C   UNL     1       0.551  10.064  20.221  0.00  0.00    +0.000 A 
ATOM     15  C   UNL     1      -0.116  11.152  20.791  0.00  0.00    +0.000 A 
ATOM     16  C   UNL     1      -0.512  11.106  22.127  0.00  0.00    +0.000 A 
ATOM     17  C   UNL     1      -0.244   9.974  22.894  0.00  0.00    +0.000 A 
ATOM     18  C   UNL     1       0.421   8.887  22.325  0.00  0.00    +0.000 A 
ENDBRANCH   3  13
TORSDOF 2
ENDMDL
MODEL 5
REMARK VINA RESULT:      -7.0      1.382      2.023
REMARK  Name = 
REMARK  2 active torsions:
REMARK  status: ('A' for Active; 'I' for Inactive)
REMARK    1  A    between atoms: C_5  and  C_6
REMARK    2  A    between atoms: C_8  and  C_9
REMARK                            x       y       z     vdW  Elec       q    Type
REMARK                         _______ _______ _______ _____ _____    ______ ____
ROOT
ATOM      1  C   UNL     1       2.338   8.021  18.434  0.00  0.00    +0.000 A 
ATOM      2  N   UNL     1       1.912   8.117  19.674  0.00  0.00    +0.000 NA
ATOM      3  C   UNL     1       1.107   9.239  19.630  0.00  0.00    +0.000 A 
ATOM      4  N   UNL     1       1.044   9.814  18.417  0.00  0.00    +0.000 NA
ATOM      5  O   UNL     1       1.856   9.012  17.627  0.00  0.00    +0.000 OA
ENDROOT
BRANCH   1  10
ATOM      6 BR   UNL     1       5.895   3.801  15.706  0.00  0.00    +0.000 Br
ATOM      7  C   UNL     1       4.819   5.097  16.562  0.00  0.00    +0.000 A 
ATOM      8  C   UNL     1       3.747   4.697  17.356  0.00  0.00    +0.000 A 
ATOM      9  C   UNL     1       2.944   5.660  17.976  0.00  0.00    +0.000 A 
ATOM     10  C   UNL     1       3.203   7.029  17.805  0.00  0.00    +0.000 A 
ATOM     11  C   UNL     1       4.295   7.410  17.009  0.00  0.00    +0.000 A 
ATOM     12  C   UNL     1       5.100   6.450  16.389  0.00  0.00    +0.000 A 
ENDBRANCH   1  10
BRANCH   3  13
ATOM     13  C   UNL     1       0.391   9.740  20.796  0.00  0.00    +0.000 A 
ATOM     14  C   UNL     1       0.391   9.016  21.997  0.00  0.00    +0.000 A 
ATOM     15  C   UNL     1      -0.296   9.495  23.117  0.00  0.00    +0.000 A 
ATOM     16  C   UNL     1      -0.992  10.701  23.045  0.00  0.00    +0.000 A 
ATOM     17  C   UNL     1      -1.002  11.429  21.858  0.00  0.00    +0.000 A 
ATOM     18  C   UNL     1      -0.314  10.952  20.740  0.00  0.00    +0.000 A 
ENDBRANCH   3  13
TORSDOF 2
ENDMDL
MODEL 6
REMARK VINA RESULT:      -7.0      0.150      1.616
REMARK  Name = 
REMARK  2 active torsions:
REMARK  status: ('A' for Active; 'I' for Inactive)
REMARK    1  A    between atoms: C_5  and  C_6
REMARK    2  A    between atoms: C_8  and  C_9
REMARK                            x       y       z     vdW  Elec       q    Type
REMARK                         _______ _______ _______ _____ _____    ______ ____
ROOT
ATOM      1  C   UNL     1       2.693   6.650  19.018  0.00  0.00    +0.000 A 
ATOM      2  N   UNL     1       2.230   7.870  19.175  0.00  0.00    +0.000 NA
ATOM      3  C   UNL     1       1.538   7.778  20.367  0.00  0.00    +0.000 A 
ATOM      4  N   UNL     1       1.568   6.554  20.919  0.00  0.00    +0.000 NA
ATOM      5  O   UNL     1       2.329   5.807  20.029  0.00  0.00    +0.000 OA
ENDROOT
BRANCH   1  10
ATOM      6 BR   UNL     1       6.338   4.297  14.649  0.00  0.00    +0.000 Br
ATOM      7  C   UNL     1       5.201   5.019  15.975  0.00  0.00    +0.000 A 
ATOM      8  C   UNL     1       5.166   6.396  16.186  0.00  0.00    +0.000 A 
ATOM      9  C   UNL     1       4.333   6.925  17.178  0.00  0.00    +0.000 A 
ATOM     10  C   UNL     1       3.533   6.084  17.968  0.00  0.00    +0.000 A 
ATOM     11  C   UNL     1       3.576   4.701  17.730  0.00  0.00    +0.000 A 
ATOM     12  C   UNL     1       4.407   4.169  16.739  0.00  0.00    +0.000 A 
ENDBRANCH   1  10
BRANCH   3  13
ATOM     13  C   UNL     1       0.849   8.914  20.966  0.00  0.00    +0.000 A 
ATOM     14  C   UNL     1       0.419   8.865  22.300  0.00  0.00    +0.000 A 
ATOM     15  C   UNL     1      -0.242   9.953  22.875  0.00  0.00    +0.000 A 
ATOM     16  C   UNL     1      -0.484  11.101  22.121  0.00  0.00    +0.000 A 
ATOM     17  C   UNL     1      -0.064  11.163  20.795  0.00  0.00    +0.000 A 
ATOM     18  C   UNL     1       0.599  10.077  20.220  0.00  0.00    +0.000 A 
ENDBRANCH   3  13
TORSDOF 2
ENDMDL
MODEL 7
REMARK VINA RESULT:      -7.0      3.347      7.379
REMARK  Name = 
REMARK  2 active torsions:
REMARK  status: ('A' for Active; 'I' for Inactive)
REMARK    1  A    between atoms: C_5  and  C_6
REMARK    2  A    between atoms: C_8  and  C_9
REMARK                            x       y       z     vdW  Elec       q    Type
REMARK                         _______ _______ _______ _____ _____    ______ ____
ROOT
ATOM      1  C   UNL     1       1.659   7.802  20.161  0.00  0.00    +0.000 A 
ATOM      2  N   UNL     1       2.367   7.798  19.054  0.00  0.00    +0.000 NA
ATOM      3  C   UNL     1       2.812   6.492  18.986  0.00  0.00    +0.000 A 
ATOM      4  N   UNL     1       2.402   5.725  20.010  0.00  0.00    +0.000 NA
ATOM      5  O   UNL     1       1.641   6.589  20.787  0.00  0.00    +0.000 OA
ENDROOT
BRANCH   1  10
ATOM      6 BR   UNL     1      -1.477  12.351  22.878  0.00  0.00    +0.000 Br
ATOM      7  C   UNL     1      -0.535  10.945  22.037  0.00  0.00    +0.000 A 
ATOM      8  C   UNL     1      -0.095   9.856  22.787  0.00  0.00    +0.000 A 
ATOM      9  C   UNL     1       0.614   8.824  22.164  0.00  0.00    +0.000 A 
ATOM     10  C   UNL     1       0.892   8.872  20.789  0.00  0.00    +0.000 A 
ATOM     11  C   UNL     1       0.430   9.974  20.050  0.00  0.00    +0.000 A 
ATOM     12  C   UNL     1      -0.280  11.006  20.670  0.00  0.00    +0.000 A 
ENDBRANCH   1  10
BRANCH   3  13
ATOM     13  C   UNL     1       3.645   6.000  17.895  0.00  0.00    +0.000 A 
ATOM     14  C   UNL     1       3.723   4.627  17.622  0.00  0.00    +0.000 A 
ATOM     15  C   UNL     1       4.521   4.154  16.576  0.00  0.00    +0.000 A 
ATOM     16  C   UNL     1       5.253   5.049  15.797  0.00  0.00    +0.000 A 
ATOM     17  C   UNL     1       5.186   6.415  16.058  0.00  0.00    +0.000 A 
ATOM     18  C   UNL     1       4.387   6.889  17.101  0.00  0.00    +0.000 A 
ENDBRANCH   3  13
TORSDOF 2
ENDMDL
MODEL 8
REMARK VINA RESULT:      -7.0      1.393      2.315
REMARK  Name = 
REMARK  2 active torsions:
REMARK  status: ('A' for Active; 'I' for Inactive)
REMARK    1  A    between atoms: C_5  and  C_6
REMARK    2  A    between atoms: C_8  and  C_9
REMARK                            x       y       z     vdW  Elec       q    Type
REMARK                         _______ _______ _______ _____ _____    ______ ____
ROOT
ATOM      1  C   UNL     1       2.318   8.017  18.493  0.00  0.00    +0.000 A 
ATOM      2  N   UNL     1       1.871   8.091  19.727  0.00  0.00    +0.000 NA
ATOM      3  C   UNL     1       1.121   9.251  19.706  0.00  0.00    +0.000 A 
ATOM      4  N   UNL     1       1.110   9.869  18.513  0.00  0.00    +0.000 NA
ATOM      5  O   UNL     1       1.901   9.057  17.711  0.00  0.00    +0.000 OA
ENDROOT
BRANCH   1  10
ATOM      6 BR   UNL     1       5.920   3.788  15.840  0.00  0.00    +0.000 Br
ATOM      7  C   UNL     1       4.800   5.085  16.636  0.00  0.00    +0.000 A 
ATOM      8  C   UNL     1       5.078   6.440  16.470  0.00  0.00    +0.000 A 
ATOM      9  C   UNL     1       4.254   7.397  17.073  0.00  0.00    +0.000 A 
ATOM     10  C   UNL     1       3.149   7.008  17.846  0.00  0.00    +0.000 A 
ATOM     11  C   UNL     1       2.881   5.637  17.991  0.00  0.00    +0.000 A 
ATOM     12  C   UNL     1       3.702   4.678  17.389  0.00  0.00    +0.000 A 
ENDBRANCH   1  10
BRANCH   3  13
ATOM     13  C   UNL     1       0.405   9.746  20.875  0.00  0.00    +0.000 A 
ATOM     14  C   UNL     1       0.466   9.054  22.093  0.00  0.00    +0.000 A 
ATOM     15  C   UNL     1      -0.221   9.528  23.215  0.00  0.00    +0.000 A 
ATOM     16  C   UNL     1      -0.979  10.695  23.129  0.00  0.00    +0.000 A 
ATOM     17  C   UNL     1      -1.050  11.391  21.924  0.00  0.00    +0.000 A 
ATOM     18  C   UNL     1      -0.362  10.920  20.804  0.00  0.00    +0.000 A 
ENDBRANCH   3  13
TORSDOF 2
ENDMDL
MODEL 9
REMARK VINA RESULT:      -7.0      1.349      2.020
REMARK  Name = 
REMARK  2 active torsions:
REMARK  status: ('A' for Active; 'I' for Inactive)
REMARK    1  A    between atoms: C_5  and  C_6
REMARK    2  A    between atoms: C_8  and  C_9
REMARK                            x       y       z     vdW  Elec       q    Type
REMARK                         _______ _______ _______ _____ _____    ______ ____
ROOT
ATOM      1  C   UNL     1       2.433   7.955  18.346  0.00  0.00    +0.000 A 
ATOM      2  N   UNL     1       1.996   8.023  19.583  0.00  0.00    +0.000 NA
ATOM      3  C   UNL     1       1.226   9.170  19.568  0.00  0.00    +0.000 A 
ATOM      4  N   UNL     1       1.195   9.787  18.375  0.00  0.00    +0.000 NA
ATOM      5  O   UNL     1       1.992   8.987  17.567  0.00  0.00    +0.000 OA
ENDROOT
BRANCH   1  10
ATOM      6 BR   UNL     1       6.084   3.788  15.662  0.00  0.00    +0.000 Br
ATOM      7  C   UNL     1       4.948   5.065  16.468  0.00  0.00    +0.000 A 
ATOM      8  C   UNL     1       5.180   6.424  16.271  0.00  0.00    +0.000 A 
ATOM      9  C   UNL     1       4.346   7.367  16.881  0.00  0.00    +0.000 A 
ATOM     10  C   UNL     1       3.276   6.959  17.693  0.00  0.00    +0.000 A 
ATOM     11  C   UNL     1       3.054   5.584  17.869  0.00  0.00    +0.000 A 
ATOM     12  C   UNL     1       3.886   4.640  17.260  0.00  0.00    +0.000 A 
ENDBRANCH   1  10
BRANCH   3  13
ATOM     13  C   UNL     1       0.511   9.653  20.743  0.00  0.00    +0.000 A 
ATOM     14  C   UNL     1      -0.291  10.801  20.667  0.00  0.00    +0.000 A 
ATOM     15  C   UNL     1      -0.976  11.265  21.794  0.00  0.00    +0.000 A 
ATOM     16  C   UNL     1      -0.863  10.589  23.008  0.00  0.00    +0.000 A 
ATOM     17  C   UNL     1      -0.068   9.449  23.098  0.00  0.00    +0.000 A 
ATOM     18  C   UNL     1       0.615   8.983  21.973  0.00  0.00    +0.000 A 
ENDBRANCH   3  13
TORSDOF 2
ENDMDL
