MODEL 1
REMARK VINA RESULT:      -7.4      0.000      0.000
REMARK  Name = 
REMARK  4 active torsions:
REMARK  status: ('A' for Active; 'I' for Inactive)
REMARK    1  A    between atoms: C_2  and  C_3
REMARK    2  A    between atoms: C_3  and  C_4
REMARK    3  A    between atoms: C_4  and  C_5
REMARK    4  A    between atoms: C_14  and  N_15
REMARK                            x       y       z     vdW  Elec       q    Type
REMARK                         _______ _______ _______ _____ _____    ______ ____
ROOT
ATOM      1  O   UNL     1       7.926   4.477  16.676  0.00  0.00    +0.000 OA
ATOM      2  C   UNL     1       6.712   4.385  16.826  0.00  0.00    +0.000 C 
ATOM      3  N   UNL     1       6.201   4.025  18.058  0.00  0.00    +0.000 N 
ATOM      4  C   UNL     1       4.869   3.752  18.389  0.00  0.00    +0.000 A 
ATOM      5  C   UNL     1       4.495   3.702  19.727  0.00  0.00    +0.000 A 
ATOM      6  C   UNL     1       3.177   3.374  20.056  0.00  0.00    +0.000 A 
ATOM      7  C   UNL     1       2.263   3.132  19.028  0.00  0.00    +0.000 A 
ATOM      8  C   UNL     1       2.694   3.236  17.723  0.00  0.00    +0.000 A 
ATOM      9  N   UNL     1       3.974   3.530  17.405  0.00  0.00    +0.000 NA
ATOM     10  H   UNL     1       6.899   3.969  18.787  0.00  0.00    +0.000 HD
ENDROOT
BRANCH   7  11
ATOM     11  N   UNL     1       0.885   2.760  19.299  0.00  0.00    +0.000 N 
ATOM     12  O   UNL     1       0.419   3.069  20.405  0.00  0.00    +0.000 OA
ATOM     13  O   UNL     1       0.260   2.165  18.418  0.00  0.00    +0.000 OA
ENDBRANCH   7  11
BRANCH   2  14
ATOM     14  C   UNL     1       5.705   4.751  15.736  0.00  0.00    +0.000 C 
BRANCH  14  15
ATOM     15  C   UNL     1       6.260   5.034  14.347  0.00  0.00    +0.000 C 
BRANCH  15  16
ATOM     16  C   UNL     1       6.217   3.776  13.455  0.00  0.00    +0.000 C 
ATOM     17  C   UNL     1       4.915   3.530  12.685  0.00  0.00    +0.000 C 
ATOM     18  C   UNL     1       5.304   2.511  11.619  0.00  0.00    +0.000 C 
ATOM     19  C   UNL     1       6.776   2.780  11.313  0.00  0.00    +0.000 C 
ATOM     20  C   UNL     1       7.251   3.814  12.333  0.00  0.00    +0.000 C 
ENDBRANCH  15  16
ENDBRANCH  14  15
ENDBRANCH   2  14
TORSDOF 4
ENDMDL
MODEL 2
REMARK VINA RESULT:      -7.3      3.485      6.282
REMARK  Name = 
REMARK  4 active torsions:
REMARK  status: ('A' for Active; 'I' for Inactive)
REMARK    1  A    between atoms: C_2  and  C_3
REMARK    2  A    between atoms: C_3  and  C_4
REMARK    3  A    between atoms: C_4  and  C_5
REMARK    4  A    between atoms: C_14  and  N_15
REMARK                            x       y       z     vdW  Elec       q    Type
REMARK                         _______ _______ _______ _____ _____    ______ ____
ROOT
ATOM      1  O   UNL     1       7.616   6.693  17.868  0.00  0.00    +0.000 OA
ATOM      2  C   UNL     1       7.151   5.839  17.120  0.00  0.00    +0.000 C 
ATOM      3  N   UNL     1       7.464   5.864  15.775  0.00  0.00    +0.000 N 
ATOM      4  C   UNL     1       6.943   5.059  14.757  0.00  0.00    +0.000 A 
ATOM      5  C   UNL     1       7.585   5.015  13.525  0.00  0.00    +0.000 A 
ATOM      6  C   UNL     1       7.031   4.255  12.492  0.00  0.00    +0.000 A 
ATOM      7  C   UNL     1       5.858   3.535  12.734  0.00  0.00    +0.000 A 
ATOM      8  C   UNL     1       5.295   3.595  13.992  0.00  0.00    +0.000 A 
ATOM      9  N   UNL     1       5.818   4.350  14.984  0.00  0.00    +0.000 NA
ATOM     10  H   UNL     1       8.164   6.553  15.534  0.00  0.00    +0.000 HD
ENDROOT
BRANCH   7  11
ATOM     11  N   UNL     1       5.214   2.747  11.698  0.00  0.00    +0.000 N 
ATOM     12  O   UNL     1       5.778   1.702  11.344  0.00  0.00    +0.000 OA
ATOM     13  O   UNL     1       4.147   3.158  11.236  0.00  0.00    +0.000 OA
ENDBRANCH   7  11
BRANCH   2  14
ATOM     14  C   UNL     1       6.310   4.663  17.617  0.00  0.00    +0.000 C 
BRANCH  14  15
ATOM     15  C   UNL     1       5.562   4.851  18.929  0.00  0.00    +0.000 C 
BRANCH  15  16
ATOM     16  C   UNL     1       4.084   4.427  18.803  0.00  0.00    +0.000 C 
ATOM     17  C   UNL     1       3.212   5.264  17.860  0.00  0.00    +0.000 C 
ATOM     18  C   UNL     1       1.984   4.392  17.624  0.00  0.00    +0.000 C 
ATOM     19  C   UNL     1       2.474   2.951  17.743  0.00  0.00    +0.000 C 
ATOM     20  C   UNL     1       3.922   3.023  18.226  0.00  0.00    +0.000 C 
ENDBRANCH  15  16
ENDBRANCH  14  15
ENDBRANCH   2  14
TORSDOF 4
ENDMDL
MODEL 3
REMARK VINA RESULT:      -7.1      3.526      6.302
REMARK  Name = 
REMARK  4 active torsions:
REMARK  status: ('A' for Active; 'I' for Inactive)
REMARK    1  A    between atoms: C_2  and  C_3
REMARK    2  A    between atoms: C_3  and  C_4
REMARK    3  A    between atoms: C_4  and  C_5
REMARK    4  A    between atoms: C_14  and  N_15
REMARK                            x       y       z     vdW  Elec       q    Type
REMARK                         _______ _______ _______ _____ _____    ______ ____
ROOT
ATOM      1  O   UNL     1       7.717   6.717  17.877  0.00  0.00    +0.000 OA
ATOM      2  C   UNL     1       7.253   5.857  17.136  0.00  0.00    +0.000 C 
ATOM      3  N   UNL     1       7.530   5.899  15.783  0.00  0.00    +0.000 N 
ATOM      4  C   UNL     1       7.000   5.088  14.773  0.00  0.00    +0.000 A 
ATOM      5  C   UNL     1       7.610   5.068  13.524  0.00  0.00    +0.000 A 
ATOM      6  C   UNL     1       7.046   4.302  12.500  0.00  0.00    +0.000 A 
ATOM      7  C   UNL     1       5.897   3.555  12.768  0.00  0.00    +0.000 A 
ATOM      8  C   UNL     1       5.366   3.593  14.040  0.00  0.00    +0.000 A 
ATOM      9  N   UNL     1       5.898   4.353  15.023  0.00  0.00    +0.000 NA
ATOM     10  H   UNL     1       8.207   6.604  15.529  0.00  0.00    +0.000 HD
ENDROOT
BRANCH   7  11
ATOM     11  N   UNL     1       5.243   2.759  11.743  0.00  0.00    +0.000 N 
ATOM     12  O   UNL     1       4.165   3.178  11.299  0.00  0.00    +0.000 OA
ATOM     13  O   UNL     1       5.797   1.721  11.373  0.00  0.00    +0.000 OA
ENDBRANCH   7  11
BRANCH   2  14
ATOM     14  C   UNL     1       6.451   4.659  17.645  0.00  0.00    +0.000 C 
BRANCH  14  15
ATOM     15  C   UNL     1       5.263   4.955  18.549  0.00  0.00    +0.000 C 
BRANCH  15  16
ATOM     16  C   UNL     1       3.931   4.555  17.880  0.00  0.00    +0.000 C 
ATOM     17  C   UNL     1       3.717   3.059  17.625  0.00  0.00    +0.000 C 
ATOM     18  C   UNL     1       2.219   2.940  17.367  0.00  0.00    +0.000 C 
ATOM     19  C   UNL     1       1.573   4.063  18.176  0.00  0.00    +0.000 C 
ATOM     20  C   UNL     1       2.715   4.912  18.730  0.00  0.00    +0.000 C 
ENDBRANCH  15  16
ENDBRANCH  14  15
ENDBRANCH   2  14
TORSDOF 4
ENDMDL
MODEL 4
REMARK VINA RESULT:      -7.1      2.024      2.401
REMARK  Name = 
REMARK  4 active torsions:
REMARK  status: ('A' for Active; 'I' for Inactive)
REMARK    1  A    between atoms: C_2  and  C_3
REMARK    2  A    between atoms: C_3  and  C_4
REMARK    3  A    between atoms: C_4  and  C_5
REMARK    4  A    between atoms: C_14  and  N_15
REMARK                            x       y       z     vdW  Elec       q    Type
REMARK                         _______ _______ _______ _____ _____    ______ ____
ROOT
ATOM      1  O   UNL     1       5.174   7.178  15.776  0.00  0.00    +0.000 OA
ATOM      2  C   UNL     1       4.799   6.246  16.480  0.00  0.00    +0.000 C 
ATOM      3  N   UNL     1       3.960   6.492  17.549  0.00  0.00    +0.000 N 
ATOM      4  C   UNL     1       3.528   5.589  18.527  0.00  0.00    +0.000 A 
ATOM      5  C   UNL     1       2.457   5.930  19.345  0.00  0.00    +0.000 A 
ATOM      6  C   UNL     1       2.064   5.051  20.358  0.00  0.00    +0.000 A 
ATOM      7  C   UNL     1       2.741   3.838  20.502  0.00  0.00    +0.000 A 
ATOM      8  C   UNL     1       3.770   3.548  19.631  0.00  0.00    +0.000 A 
ATOM      9  N   UNL     1       4.166   4.409  18.667  0.00  0.00    +0.000 NA
ATOM     10  H   UNL     1       3.631   7.446  17.596  0.00  0.00    +0.000 HD
ENDROOT
BRANCH   7  11
ATOM     11  N   UNL     1       2.403   2.890  21.551  0.00  0.00    +0.000 N 
ATOM     12  O   UNL     1       3.301   2.134  21.945  0.00  0.00    +0.000 OA
ATOM     13  O   UNL     1       1.250   2.897  21.988  0.00  0.00    +0.000 OA
ENDBRANCH   7  11
BRANCH   2  14
ATOM     14  C   UNL     1       5.130   4.784  16.177  0.00  0.00    +0.000 C 
BRANCH  14  15
ATOM     15  C   UNL     1       6.577   4.457  15.840  0.00  0.00    +0.000 C 
BRANCH  15  16
ATOM     16  C   UNL     1       6.715   3.922  14.399  0.00  0.00    +0.000 C 
ATOM     17  C   UNL     1       5.410   3.706  13.624  0.00  0.00    +0.000 C 
ATOM     18  C   UNL     1       5.860   3.591  12.172  0.00  0.00    +0.000 C 
ATOM     19  C   UNL     1       7.122   4.445  12.064  0.00  0.00    +0.000 C 
ATOM     20  C   UNL     1       7.476   4.879  13.486  0.00  0.00    +0.000 C 
ENDBRANCH  15  16
ENDBRANCH  14  15
ENDBRANCH   2  14
TORSDOF 4
ENDMDL
MODEL 5
REMARK VINA RESULT:      -7.1      3.179      6.275
REMARK  Name = 
REMARK  4 active torsions:
REMARK  status: ('A' for Active; 'I' for Inactive)
REMARK    1  A    between atoms: C_2  and  C_3
REMARK    2  A    between atoms: C_3  and  C_4
REMARK    3  A    between atoms: C_4  and  C_5
REMARK    4  A    between atoms: C_14  and  N_15
REMARK                            x       y       z     vdW  Elec       q    Type
REMARK                         _______ _______ _______ _____ _____    ______ ____
ROOT
ATOM      1  O   UNL     1       1.699   6.224  20.886  0.00  0.00    +0.000 OA
ATOM      2  C   UNL     1       2.281   5.727  19.928  0.00  0.00    +0.000 C 
ATOM      3  N   UNL     1       3.628   5.971  19.745  0.00  0.00    +0.000 N 
ATOM      4  C   UNL     1       4.429   5.598  18.660  0.00  0.00    +0.000 A 
ATOM      5  C   UNL     1       5.812   5.660  18.779  0.00  0.00    +0.000 A 
ATOM      6  C   UNL     1       6.609   5.341  17.676  0.00  0.00    +0.000 A 
ATOM      7  C   UNL     1       5.992   4.941  16.489  0.00  0.00    +0.000 A 
ATOM      8  C   UNL     1       4.615   4.866  16.453  0.00  0.00    +0.000 A 
ATOM      9  N   UNL     1       3.844   5.197  17.512  0.00  0.00    +0.000 NA
ATOM     10  H   UNL     1       4.057   6.474  20.509  0.00  0.00    +0.000 HD
ENDROOT
BRANCH   7  11
ATOM     11  N   UNL     1       6.757   4.622  15.296  0.00  0.00    +0.000 N 
ATOM     12  O   UNL     1       7.742   5.331  15.046  0.00  0.00    +0.000 OA
ATOM     13  O   UNL     1       6.388   3.667  14.608  0.00  0.00    +0.000 OA
ENDBRANCH   7  11
BRANCH   2  14
ATOM     14  C   UNL     1       1.613   4.751  18.959  0.00  0.00    +0.000 C 
BRANCH  14  15
ATOM     15  C   UNL     1       1.069   3.456  19.546  0.00  0.00    +0.000 C 
BRANCH  15  16
ATOM     16  C   UNL     1       2.107   2.317  19.459  0.00  0.00    +0.000 C 
ATOM     17  C   UNL     1       2.717   2.054  18.078  0.00  0.00    +0.000 C 
ATOM     18  C   UNL     1       3.953   1.212  18.377  0.00  0.00    +0.000 C 
ATOM     19  C   UNL     1       4.419   1.644  19.766  0.00  0.00    +0.000 C 
ATOM     20  C   UNL     1       3.345   2.583  20.312  0.00  0.00    +0.000 C 
ENDBRANCH  15  16
ENDBRANCH  14  15
ENDBRANCH   2  14
TORSDOF 4
ENDMDL
MODEL 6
REMARK VINA RESULT:      -7.1      1.324      1.324
REMARK  Name = 
REMARK  4 active torsions:
REMARK  status: ('A' for Active; 'I' for Inactive)
REMARK    1  A    between atoms: C_2  and  C_3
REMARK    2  A    between atoms: C_3  and  C_4
REMARK    3  A    between atoms: C_4  and  C_5
REMARK    4  A    between atoms: C_14  and  N_15
REMARK                            x       y       z     vdW  Elec       q    Type
REMARK                         _______ _______ _______ _____ _____    ______ ____
ROOT
ATOM      1  O   UNL     1       7.637   6.774  16.804  0.00  0.00    +0.000 OA
ATOM      2  C   UNL     1       6.698   5.994  16.926  0.00  0.00    +0.000 C 
ATOM      3  N   UNL     1       5.712   6.252  17.858  0.00  0.00    +0.000 N 
ATOM      4  C   UNL     1       4.640   5.430  18.225  0.00  0.00    +0.000 A 
ATOM      5  C   UNL     1       3.584   5.968  18.951  0.00  0.00    +0.000 A 
ATOM      6  C   UNL     1       2.543   5.133  19.364  0.00  0.00    +0.000 A 
ATOM      7  C   UNL     1       2.579   3.782  19.012  0.00  0.00    +0.000 A 
ATOM      8  C   UNL     1       3.639   3.323  18.259  0.00  0.00    +0.000 A 
ATOM      9  N   UNL     1       4.658   4.126  17.879  0.00  0.00    +0.000 NA
ATOM     10  H   UNL     1       5.800   7.155  18.303  0.00  0.00    +0.000 HD
ENDROOT
BRANCH   7  11
ATOM     11  N   UNL     1       1.544   2.852  19.432  0.00  0.00    +0.000 N 
ATOM     12  O   UNL     1       1.449   2.616  20.645  0.00  0.00    +0.000 OA
ATOM     13  O   UNL     1       0.821   2.358  18.564  0.00  0.00    +0.000 OA
ENDBRANCH   7  11
BRANCH   2  14
ATOM     14  C   UNL     1       6.498   4.779  16.019  0.00  0.00    +0.000 C 
BRANCH  14  15
ATOM     15  C   UNL     1       5.803   5.017  14.686  0.00  0.00    +0.000 C 
BRANCH  15  16
ATOM     16  C   UNL     1       6.056   3.856  13.702  0.00  0.00    +0.000 C 
ATOM     17  C   UNL     1       4.902   3.495  12.761  0.00  0.00    +0.000 C 
ATOM     18  C   UNL     1       5.562   2.650  11.677  0.00  0.00    +0.000 C 
ATOM     19  C   UNL     1       6.998   3.160  11.576  0.00  0.00    +0.000 C 
ATOM     20  C   UNL     1       7.189   4.152  12.723  0.00  0.00    +0.000 C 
ENDBRANCH  15  16
ENDBRANCH  14  15
ENDBRANCH   2  14
TORSDOF 4
ENDMDL
MODEL 7
REMARK VINA RESULT:      -7.0      3.062      6.918
REMARK  Name = 
REMARK  4 active torsions:
REMARK  status: ('A' for Active; 'I' for Inactive)
REMARK    1  A    between atoms: C_2  and  C_3
REMARK    2  A    between atoms: C_3  and  C_4
REMARK    3  A    between atoms: C_4  and  C_5
REMARK    4  A    between atoms: C_14  and  N_15
REMARK                            x       y       z     vdW  Elec       q    Type
REMARK                         _______ _______ _______ _____ _____    ______ ____
ROOT
ATOM      1  O   UNL     1       3.094   1.198  18.753  0.00  0.00    +0.000 OA
ATOM      2  C   UNL     1       3.663   2.277  18.883  0.00  0.00    +0.000 C 
ATOM      3  N   UNL     1       4.405   2.788  17.836  0.00  0.00    +0.000 N 
ATOM      4  C   UNL     1       5.214   3.930  17.834  0.00  0.00    +0.000 A 
ATOM      5  C   UNL     1       5.643   4.460  16.623  0.00  0.00    +0.000 A 
ATOM      6  C   UNL     1       6.497   5.566  16.626  0.00  0.00    +0.000 A 
ATOM      7  C   UNL     1       6.876   6.126  17.848  0.00  0.00    +0.000 A 
ATOM      8  C   UNL     1       6.383   5.570  19.010  0.00  0.00    +0.000 A 
ATOM      9  N   UNL     1       5.576   4.486  19.008  0.00  0.00    +0.000 NA
ATOM     10  H   UNL     1       4.324   2.254  16.981  0.00  0.00    +0.000 HD
ENDROOT
BRANCH   7  11
ATOM     11  N   UNL     1       7.783   7.258  17.925  0.00  0.00    +0.000 N 
ATOM     12  O   UNL     1       8.548   7.310  18.898  0.00  0.00    +0.000 OA
ATOM     13  O   UNL     1       7.744   8.096  17.020  0.00  0.00    +0.000 OA
ENDBRANCH   7  11
BRANCH   2  14
ATOM     14  C   UNL     1       3.513   3.156  20.124  0.00  0.00    +0.000 C 
BRANCH  14  15
ATOM     15  C   UNL     1       2.266   4.025  20.212  0.00  0.00    +0.000 C 
BRANCH  15  16
ATOM     16  C   UNL     1       2.593   5.510  19.947  0.00  0.00    +0.000 C 
ATOM     17  C   UNL     1       2.377   6.010  18.514  0.00  0.00    +0.000 C 
ATOM     18  C   UNL     1       2.371   7.529  18.653  0.00  0.00    +0.000 C 
ATOM     19  C   UNL     1       1.829   7.811  20.053  0.00  0.00    +0.000 C 
ATOM     20  C   UNL     1       1.712   6.459  20.754  0.00  0.00    +0.000 C 
ENDBRANCH  15  16
ENDBRANCH  14  15
ENDBRANCH   2  14
TORSDOF 4
ENDMDL
MODEL 8
REMARK VINA RESULT:      -7.0      1.570      2.262
REMARK  Name = 
REMARK  4 active torsions:
REMARK  status: ('A' for Active; 'I' for Inactive)
REMARK    1  A    between atoms: C_2  and  C_3
REMARK    2  A    between atoms: C_3  and  C_4
REMARK    3  A    between atoms: C_4  and  C_5
REMARK    4  A    between atoms: C_14  and  N_15
REMARK                            x       y       z     vdW  Elec       q    Type
REMARK                         _______ _______ _______ _____ _____    ______ ____
ROOT
ATOM      1  O   UNL     1       7.534   6.791  16.666  0.00  0.00    +0.000 OA
ATOM      2  C   UNL     1       6.811   5.902  17.102  0.00  0.00    +0.000 C 
ATOM      3  N   UNL     1       5.765   6.224  17.945  0.00  0.00    +0.000 N 
ATOM      4  C   UNL     1       4.916   5.349  18.632  0.00  0.00    +0.000 A 
ATOM      5  C   UNL     1       3.740   5.837  19.191  0.00  0.00    +0.000 A 
ATOM      6  C   UNL     1       2.922   4.974  19.925  0.00  0.00    +0.000 A 
ATOM      7  C   UNL     1       3.295   3.634  20.054  0.00  0.00    +0.000 A 
ATOM      8  C   UNL     1       4.456   3.210  19.442  0.00  0.00    +0.000 A 
ATOM      9  N   UNL     1       5.260   4.050  18.753  0.00  0.00    +0.000 NA
ATOM     10  H   UNL     1       5.618   7.218  18.049  0.00  0.00    +0.000 HD
ENDROOT
BRANCH   7  11
ATOM     11  N   UNL     1       2.506   2.689  20.826  0.00  0.00    +0.000 N 
ATOM     12  O   UNL     1       1.528   2.175  20.266  0.00  0.00    +0.000 OA
ATOM     13  O   UNL     1       2.856   2.451  21.984  0.00  0.00    +0.000 OA
ENDBRANCH   7  11
BRANCH   2  14
ATOM     14  C   UNL     1       6.938   4.439  16.678  0.00  0.00    +0.000 C 
BRANCH  14  15
ATOM     15  C   UNL     1       5.926   3.920  15.665  0.00  0.00    +0.000 C 
BRANCH  15  16
ATOM     16  C   UNL     1       6.197   4.488  14.256  0.00  0.00    +0.000 C 
ATOM     17  C   UNL     1       7.633   4.942  13.967  0.00  0.00    +0.000 C 
ATOM     18  C   UNL     1       7.687   5.045  12.447  0.00  0.00    +0.000 C 
ATOM     19  C   UNL     1       6.693   4.006  11.929  0.00  0.00    +0.000 C 
ATOM     20  C   UNL     1       5.957   3.462  13.152  0.00  0.00    +0.000 C 
ENDBRANCH  15  16
ENDBRANCH  14  15
ENDBRANCH   2  14
TORSDOF 4
ENDMDL
MODEL 9
REMARK VINA RESULT:      -6.9      2.862      6.985
REMARK  Name = 
REMARK  4 active torsions:
REMARK  status: ('A' for Active; 'I' for Inactive)
REMARK    1  A    between atoms: C_2  and  C_3
REMARK    2  A    between atoms: C_3  and  C_4
REMARK    3  A    between atoms: C_4  and  C_5
REMARK    4  A    between atoms: C_14  and  N_15
REMARK                            x       y       z     vdW  Elec       q    Type
REMARK                         _______ _______ _______ _____ _____    ______ ____
ROOT
ATOM      1  O   UNL     1       1.563   2.043  19.821  0.00  0.00    +0.000 OA
ATOM      2  C   UNL     1       2.383   2.946  19.688  0.00  0.00    +0.000 C 
ATOM      3  N   UNL     1       3.126   3.029  18.527  0.00  0.00    +0.000 N 
ATOM      4  C   UNL     1       4.181   3.903  18.243  0.00  0.00    +0.000 A 
ATOM      5  C   UNL     1       4.610   4.051  16.929  0.00  0.00    +0.000 A 
ATOM      6  C   UNL     1       5.701   4.881  16.655  0.00  0.00    +0.000 A 
ATOM      7  C   UNL     1       6.314   5.562  17.709  0.00  0.00    +0.000 A 
ATOM      8  C   UNL     1       5.812   5.397  18.983  0.00  0.00    +0.000 A 
ATOM      9  N   UNL     1       4.773   4.576  19.251  0.00  0.00    +0.000 NA
ATOM     10  H   UNL     1       2.841   2.371  17.814  0.00  0.00    +0.000 HD
ENDROOT
BRANCH   7  11
ATOM     11  N   UNL     1       7.469   6.419  17.500  0.00  0.00    +0.000 N 
ATOM     12  O   UNL     1       8.093   6.787  18.505  0.00  0.00    +0.000 OA
ATOM     13  O   UNL     1       7.762   6.725  16.342  0.00  0.00    +0.000 OA
ENDBRANCH   7  11
BRANCH   2  14
ATOM     14  C   UNL     1       2.564   4.067  20.711  0.00  0.00    +0.000 C 
BRANCH  14  15
ATOM     15  C   UNL     1       1.551   5.203  20.681  0.00  0.00    +0.000 C 
BRANCH  15  16
ATOM     16  C   UNL     1       2.140   6.467  20.021  0.00  0.00    +0.000 C 
ATOM     17  C   UNL     1       2.048   6.546  18.494  0.00  0.00    +0.000 C 
ATOM     18  C   UNL     1       2.307   8.017  18.185  0.00  0.00    +0.000 C 
ATOM     19  C   UNL     1       1.792   8.788  19.400  0.00  0.00    +0.000 C 
ATOM     20  C   UNL     1       1.423   7.744  20.452  0.00  0.00    +0.000 C 
ENDBRANCH  15  16
ENDBRANCH  14  15
ENDBRANCH   2  14
TORSDOF 4
ENDMDL
