MODEL 1
REMARK VINA RESULT:      -9.5      0.000      0.000
REMARK  Name = 
REMARK  5 active torsions:
REMARK  status: ('A' for Active; 'I' for Inactive)
REMARK    1  A    between atoms: C_1  and  C_2
REMARK    2  A    between atoms: C_4  and  C_5
REMARK    3  A    between atoms: C_9  and  C_10
REMARK    4  A    between atoms: N_15  and  C_16
REMARK    5  A    between atoms: C_16  and  C_17
REMARK                            x       y       z     vdW  Elec       q    Type
REMARK                         _______ _______ _______ _____ _____    ______ ____
ROOT
ATOM      1  C   UNL     1       0.840   9.307  19.920  0.00  0.00    +0.000 A 
ATOM      2  C   UNL     1       1.060   9.670  18.595  0.00  0.00    +0.000 A 
ATOM      3  C   UNL     1       1.960   8.895  17.838  0.00  0.00    +0.000 A 
ATOM      4  N   UNL     1       2.586   7.769  18.346  0.00  0.00    +0.000 NA
ATOM      5  C   UNL     1       2.354   7.306  19.607  0.00  0.00    +0.000 A 
ATOM      6  N   UNL     1       2.913   6.028  20.152  0.00  0.00    +0.000 N 
ATOM      7  C   UNL     1       1.471   8.111  20.378  0.00  0.00    +0.000 A 
ATOM      8  H   UNL     1       2.710   5.968  21.191  0.00  0.00    +0.000 HD
ENDROOT
BRANCH   1  15
ATOM      9  C   UNL     1      -1.017  11.517  18.927  0.00  0.00    +0.000 C 
ATOM     10  C   UNL     1      -0.880  11.147  20.382  0.00  0.00    +0.000 A 
ATOM     11  C   UNL     1      -1.629  11.892  21.273  0.00  0.00    +0.000 A 
ATOM     12  C   UNL     1      -1.636  11.603  22.628  0.00  0.00    +0.000 A 
ATOM     13  C   UNL     1      -0.892  10.447  23.072  0.00  0.00    +0.000 A 
ATOM     14  C   UNL     1      -0.220   9.673  22.186  0.00  0.00    +0.000 A 
ATOM     15  C   UNL     1      -0.107  10.032  20.835  0.00  0.00    +0.000 A 
BRANCH  12  16
ATOM     16  C   UNL     1      -2.540  12.380  23.460  0.00  0.00    +0.000 C 
ATOM     17  N   UNL     1      -3.289  12.987  24.098  0.00  0.00    +0.000 NA
ENDBRANCH  12  16
ENDBRANCH   1  15
BRANCH   6  18
ATOM     18  C   UNL     1       3.983   5.021  19.563  0.00  0.00    +0.000 C 
BRANCH  18  19
ATOM     19  C   UNL     1       4.795   5.190  18.033  0.00  0.00    +0.000 A 
ATOM     20  N   UNL     1       5.518   6.288  18.237  0.00  0.00    +0.000 NA
ATOM     21  N   UNL     1       6.334   6.556  17.266  0.00  0.00    +0.000 N 
ATOM     22  C   UNL     1       6.278   5.687  16.298  0.00  0.00    +0.000 A 
ATOM     23  N   UNL     1       7.214   5.795  15.320  0.00  0.00    +0.000 NA
ATOM     24  C   UNL     1       7.310   5.060  14.223  0.00  0.00    +0.000 A 
ATOM     25  N   UNL     1       8.483   5.270  13.394  0.00  0.00    +0.000 N 
ATOM     26  C   UNL     1       6.250   4.179  14.008  0.00  0.00    +0.000 A 
ATOM     27  C   UNL     1       5.213   4.008  15.104  0.00  0.00    +0.000 A 
ATOM     28  C   UNL     1       5.243   4.787  16.480  0.00  0.00    +0.000 A 
ATOM     29  H   UNL     1       6.980   7.348  17.238  0.00  0.00    +0.000 HD
ATOM     30  H   UNL     1       9.231   5.897  13.754  0.00  0.00    +0.000 HD
ATOM     31  H   UNL     1       8.723   4.785  12.513  0.00  0.00    +0.000 HD
ENDBRANCH  18  19
ENDBRANCH   6  18
TORSDOF 4
ENDMDL
MODEL 2
REMARK VINA RESULT:      -9.5      1.448      2.144
REMARK  Name = 
REMARK  5 active torsions:
REMARK  status: ('A' for Active; 'I' for Inactive)
REMARK    1  A    between atoms: C_1  and  C_2
REMARK    2  A    between atoms: C_4  and  C_5
REMARK    3  A    between atoms: C_9  and  C_10
REMARK    4  A    between atoms: N_15  and  C_16
REMARK    5  A    between atoms: C_16  and  C_17
REMARK                            x       y       z     vdW  Elec       q    Type
REMARK                         _______ _______ _______ _____ _____    ______ ____
ROOT
ATOM      1  C   UNL     1       0.696   9.763  20.251  0.00  0.00    +0.000 A 
ATOM      2  C   UNL     1       1.149   9.975  18.951  0.00  0.00    +0.000 A 
ATOM      3  C   UNL     1       1.927   8.967  18.350  0.00  0.00    +0.000 A 
ATOM      4  N   UNL     1       2.210   7.767  18.981  0.00  0.00    +0.000 NA
ATOM      5  C   UNL     1       1.731   7.456  20.219  0.00  0.00    +0.000 A 
ATOM      6  N   UNL     1       1.910   6.126  20.882  0.00  0.00    +0.000 N 
ATOM      7  C   UNL     1       0.974   8.491  20.834  0.00  0.00    +0.000 A 
ATOM      8  H   UNL     1       1.578   6.185  21.887  0.00  0.00    +0.000 HD
ENDROOT
BRANCH   1  15
ATOM      9  C   UNL     1       0.133   9.480  23.238  0.00  0.00    +0.000 C 
ATOM     10  C   UNL     1      -0.515  10.531  22.373  0.00  0.00    +0.000 A 
ATOM     11  C   UNL     1      -1.421  11.364  23.002  0.00  0.00    +0.000 A 
ATOM     12  C   UNL     1      -2.030  12.408  22.326  0.00  0.00    +0.000 A 
ATOM     13  C   UNL     1      -1.630  12.648  20.958  0.00  0.00    +0.000 A 
ATOM     14  C   UNL     1      -0.686  11.876  20.368  0.00  0.00    +0.000 A 
ATOM     15  C   UNL     1      -0.158  10.744  21.004  0.00  0.00    +0.000 A 
BRANCH  12  16
ATOM     16  C   UNL     1      -2.884  13.286  23.108  0.00  0.00    +0.000 C 
ATOM     17  N   UNL     1      -3.548  13.969  23.763  0.00  0.00    +0.000 NA
ENDBRANCH  12  16
ENDBRANCH   1  15
BRANCH   6  18
ATOM     18  C   UNL     1       2.779   4.866  20.479  0.00  0.00    +0.000 C 
BRANCH  18  19
ATOM     19  C   UNL     1       3.785   4.742  19.065  0.00  0.00    +0.000 A 
ATOM     20  N   UNL     1       4.271   3.510  19.192  0.00  0.00    +0.000 NA
ATOM     21  N   UNL     1       4.962   3.120  18.168  0.00  0.00    +0.000 N 
ATOM     22  C   UNL     1       5.028   4.016  17.226  0.00  0.00    +0.000 A 
ATOM     23  N   UNL     1       5.588   3.632  16.049  0.00  0.00    +0.000 NA
ATOM     24  C   UNL     1       5.807   4.387  14.985  0.00  0.00    +0.000 A 
ATOM     25  N   UNL     1       6.290   3.716  13.792  0.00  0.00    +0.000 N 
ATOM     26  C   UNL     1       5.548   5.746  15.163  0.00  0.00    +0.000 A 
ATOM     27  C   UNL     1       4.883   6.198  16.451  0.00  0.00    +0.000 A 
ATOM     28  C   UNL     1       4.479   5.220  17.627  0.00  0.00    +0.000 A 
ATOM     29  H   UNL     1       5.407   2.205  18.068  0.00  0.00    +0.000 HD
ATOM     30  H   UNL     1       6.333   2.677  13.800  0.00  0.00    +0.000 HD
ATOM     31  H   UNL     1       6.506   4.144  12.876  0.00  0.00    +0.000 HD
ENDBRANCH  18  19
ENDBRANCH   6  18
TORSDOF 4
ENDMDL
MODEL 3
REMARK VINA RESULT:      -9.4      1.790      2.020
REMARK  Name = 
REMARK  5 active torsions:
REMARK  status: ('A' for Active; 'I' for Inactive)
REMARK    1  A    between atoms: C_1  and  C_2
REMARK    2  A    between atoms: C_4  and  C_5
REMARK    3  A    between atoms: C_9  and  C_10
REMARK    4  A    between atoms: N_15  and  C_16
REMARK    5  A    between atoms: C_16  and  C_17
REMARK                            x       y       z     vdW  Elec       q    Type
REMARK                         _______ _______ _______ _____ _____    ______ ____
ROOT
ATOM      1  C   UNL     1       0.939  10.038  20.106  0.00  0.00    +0.000 A 
ATOM      2  C   UNL     1       1.166  10.121  18.735  0.00  0.00    +0.000 A 
ATOM      3  C   UNL     1       1.768   9.020  18.097  0.00  0.00    +0.000 A 
ATOM      4  N   UNL     1       2.091   7.853  18.770  0.00  0.00    +0.000 NA
ATOM      5  C   UNL     1       1.821   7.669  20.093  0.00  0.00    +0.000 A 
ATOM      6  N   UNL     1       2.039   6.382  20.827  0.00  0.00    +0.000 N 
ATOM      7  C   UNL     1       1.244   8.796  20.740  0.00  0.00    +0.000 A 
ATOM      8  H   UNL     1       1.894   6.538  21.866  0.00  0.00    +0.000 HD
ENDROOT
BRANCH   1  15
ATOM      9  C   UNL     1       1.768  12.966  19.856  0.00  0.00    +0.000 C 
ATOM     10  C   UNL     1       0.770  12.476  20.873  0.00  0.00    +0.000 A 
ATOM     11  C   UNL     1       0.254  13.431  21.729  0.00  0.00    +0.000 A 
ATOM     12  C   UNL     1      -0.719  13.113  22.662  0.00  0.00    +0.000 A 
ATOM     13  C   UNL     1      -1.236  11.764  22.661  0.00  0.00    +0.000 A 
ATOM     14  C   UNL     1      -0.783  10.849  21.770  0.00  0.00    +0.000 A 
ATOM     15  C   UNL     1       0.288  11.129  20.909  0.00  0.00    +0.000 A 
BRANCH  12  16
ATOM     16  C   UNL     1      -1.267  14.212  23.438  0.00  0.00    +0.000 C 
ATOM     17  N   UNL     1      -1.708  15.062  24.086  0.00  0.00    +0.000 NA
ENDBRANCH  12  16
ENDBRANCH   1  15
BRANCH   6  18
ATOM     18  C   UNL     1       2.752   5.038  20.390  0.00  0.00    +0.000 C 
BRANCH  18  19
ATOM     19  C   UNL     1       3.773   4.843  18.994  0.00  0.00    +0.000 A 
ATOM     20  N   UNL     1       4.234   3.608  19.174  0.00  0.00    +0.000 NA
ATOM     21  N   UNL     1       4.930   3.167  18.175  0.00  0.00    +0.000 N 
ATOM     22  C   UNL     1       5.026   4.025  17.201  0.00  0.00    +0.000 A 
ATOM     23  N   UNL     1       5.593   3.587  16.047  0.00  0.00    +0.000 NA
ATOM     24  C   UNL     1       5.839   4.297  14.958  0.00  0.00    +0.000 A 
ATOM     25  N   UNL     1       6.325   3.574  13.798  0.00  0.00    +0.000 N 
ATOM     26  C   UNL     1       5.604   5.667  15.082  0.00  0.00    +0.000 A 
ATOM     27  C   UNL     1       4.931   6.178  16.343  0.00  0.00    +0.000 A 
ATOM     28  C   UNL     1       4.494   5.253  17.550  0.00  0.00    +0.000 A 
ATOM     29  H   UNL     1       5.360   2.241  18.116  0.00  0.00    +0.000 HD
ATOM     30  H   UNL     1       6.349   2.534  13.845  0.00  0.00    +0.000 HD
ATOM     31  H   UNL     1       6.561   3.963  12.869  0.00  0.00    +0.000 HD
ENDBRANCH  18  19
ENDBRANCH   6  18
TORSDOF 4
ENDMDL
MODEL 4
REMARK VINA RESULT:      -9.4      2.760      4.350
REMARK  Name = 
REMARK  5 active torsions:
REMARK  status: ('A' for Active; 'I' for Inactive)
REMARK    1  A    between atoms: C_1  and  C_2
REMARK    2  A    between atoms: C_4  and  C_5
REMARK    3  A    between atoms: C_9  and  C_10
REMARK    4  A    between atoms: N_15  and  C_16
REMARK    5  A    between atoms: C_16  and  C_17
REMARK                            x       y       z     vdW  Elec       q    Type
REMARK                         _______ _______ _______ _____ _____    ______ ____
ROOT
ATOM      1  C   UNL     1      -1.304  12.240  21.369  0.00  0.00    +0.000 A 
ATOM      2  C   UNL     1      -0.306  13.204  21.486  0.00  0.00    +0.000 A 
ATOM      3  C   UNL     1       0.901  12.994  20.791  0.00  0.00    +0.000 A 
ATOM      4  N   UNL     1       1.106  11.900  19.967  0.00  0.00    +0.000 NA
ATOM      5  C   UNL     1       0.145  10.961  19.739  0.00  0.00    +0.000 A 
ATOM      6  N   UNL     1       0.282   9.834  18.762  0.00  0.00    +0.000 N 
ATOM      7  C   UNL     1      -1.059  11.160  20.469  0.00  0.00    +0.000 A 
ATOM      8  H   UNL     1      -0.532   9.165  18.878  0.00  0.00    +0.000 HD
ENDROOT
BRANCH   1  15
ATOM      9  C   UNL     1      -3.876  12.735  19.800  0.00  0.00    +0.000 C 
ATOM     10  C   UNL     1      -3.822  12.702  21.306  0.00  0.00    +0.000 A 
ATOM     11  C   UNL     1      -5.014  12.942  21.963  0.00  0.00    +0.000 A 
ATOM     12  C   UNL     1      -5.103  12.873  23.344  0.00  0.00    +0.000 A 
ATOM     13  C   UNL     1      -3.924  12.467  24.074  0.00  0.00    +0.000 A 
ATOM     14  C   UNL     1      -2.777  12.159  23.421  0.00  0.00    +0.000 A 
ATOM     15  C   UNL     1      -2.645  12.347  22.038  0.00  0.00    +0.000 A 
BRANCH  12  16
ATOM     16  C   UNL     1      -6.425  13.037  23.925  0.00  0.00    +0.000 C 
ATOM     17  N   UNL     1      -7.461  13.190  24.415  0.00  0.00    +0.000 NA
ENDBRANCH  12  16
ENDBRANCH   1  15
BRANCH   6  18
ATOM     18  C   UNL     1       1.523   9.326  17.921  0.00  0.00    +0.000 C 
BRANCH  18  19
ATOM     19  C   UNL     1       2.501   7.938  18.300  0.00  0.00    +0.000 A 
ATOM     20  N   UNL     1       2.171   7.720  19.570  0.00  0.00    +0.000 NA
ATOM     21  N   UNL     1       2.678   6.631  20.055  0.00  0.00    +0.000 N 
ATOM     22  C   UNL     1       3.400   5.975  19.192  0.00  0.00    +0.000 A 
ATOM     23  N   UNL     1       3.831   4.741  19.561  0.00  0.00    +0.000 NA
ATOM     24  C   UNL     1       4.615   3.930  18.870  0.00  0.00    +0.000 A 
ATOM     25  N   UNL     1       4.824   2.600  19.412  0.00  0.00    +0.000 N 
ATOM     26  C   UNL     1       5.149   4.478  17.703  0.00  0.00    +0.000 A 
ATOM     27  C   UNL     1       4.652   5.837  17.245  0.00  0.00    +0.000 A 
ATOM     28  C   UNL     1       3.574   6.693  18.023  0.00  0.00    +0.000 A 
ATOM     29  H   UNL     1       2.534   6.283  21.006  0.00  0.00    +0.000 HD
ATOM     30  H   UNL     1       4.267   2.318  20.245  0.00  0.00    +0.000 HD
ATOM     31  H   UNL     1       5.395   1.839  19.006  0.00  0.00    +0.000 HD
ENDBRANCH  18  19
ENDBRANCH   6  18
TORSDOF 4
ENDMDL
MODEL 5
REMARK VINA RESULT:      -9.4      1.568      1.818
REMARK  Name = 
REMARK  5 active torsions:
REMARK  status: ('A' for Active; 'I' for Inactive)
REMARK    1  A    between atoms: C_1  and  C_2
REMARK    2  A    between atoms: C_4  and  C_5
REMARK    3  A    between atoms: C_9  and  C_10
REMARK    4  A    between atoms: N_15  and  C_16
REMARK    5  A    between atoms: C_16  and  C_17
REMARK                            x       y       z     vdW  Elec       q    Type
REMARK                         _______ _______ _______ _____ _____    ______ ____
ROOT
ATOM      1  C   UNL     1       0.635   9.895  19.925  0.00  0.00    +0.000 A 
ATOM      2  C   UNL     1       1.178  10.082  18.656  0.00  0.00    +0.000 A 
ATOM      3  C   UNL     1       2.032   9.084  18.149  0.00  0.00    +0.000 A 
ATOM      4  N   UNL     1       2.306   7.915  18.839  0.00  0.00    +0.000 NA
ATOM      5  C   UNL     1       1.745   7.626  20.047  0.00  0.00    +0.000 A 
ATOM      6  N   UNL     1       1.916   6.324  20.767  0.00  0.00    +0.000 N 
ATOM      7  C   UNL     1       0.910   8.652  20.570  0.00  0.00    +0.000 A 
ATOM      8  H   UNL     1       1.507   6.402  21.742  0.00  0.00    +0.000 HD
ENDROOT
BRANCH   1  15
ATOM      9  C   UNL     1      -1.839  10.980  18.503  0.00  0.00    +0.000 C 
ATOM     10  C   UNL     1      -1.389  11.462  19.858  0.00  0.00    +0.000 A 
ATOM     11  C   UNL     1      -2.149  12.465  20.431  0.00  0.00    +0.000 A 
ATOM     12  C   UNL     1      -1.872  12.943  21.701  0.00  0.00    +0.000 A 
ATOM     13  C   UNL     1      -0.807  12.306  22.442  0.00  0.00    +0.000 A 
ATOM     14  C   UNL     1      -0.113  11.273  21.907  0.00  0.00    +0.000 A 
ATOM     15  C   UNL     1      -0.305  10.868  20.578  0.00  0.00    +0.000 A 
BRANCH  12  16
ATOM     16  C   UNL     1      -2.797  13.921  22.249  0.00  0.00    +0.000 C 
ATOM     17  N   UNL     1      -3.549  14.670  22.706  0.00  0.00    +0.000 NA
ENDBRANCH  12  16
ENDBRANCH   1  15
BRANCH   6  18
ATOM     18  C   UNL     1       2.854   5.084  20.473  0.00  0.00    +0.000 C 
BRANCH  18  19
ATOM     19  C   UNL     1       3.852   4.883  19.061  0.00  0.00    +0.000 A 
ATOM     20  N   UNL     1       4.333   3.657  19.249  0.00  0.00    +0.000 NA
ATOM     21  N   UNL     1       5.017   3.212  18.243  0.00  0.00    +0.000 N 
ATOM     22  C   UNL     1       5.083   4.058  17.255  0.00  0.00    +0.000 A 
ATOM     23  N   UNL     1       5.635   3.612  16.097  0.00  0.00    +0.000 NA
ATOM     24  C   UNL     1       5.851   4.311  14.995  0.00  0.00    +0.000 A 
ATOM     25  N   UNL     1       6.325   3.578  13.835  0.00  0.00    +0.000 N 
ATOM     26  C   UNL     1       5.599   5.679  15.105  0.00  0.00    +0.000 A 
ATOM     27  C   UNL     1       4.943   6.198  16.371  0.00  0.00    +0.000 A 
ATOM     28  C   UNL     1       4.541   5.284  17.598  0.00  0.00    +0.000 A 
ATOM     29  H   UNL     1       5.458   2.291  18.188  0.00  0.00    +0.000 HD
ATOM     30  H   UNL     1       6.363   2.540  13.896  0.00  0.00    +0.000 HD
ATOM     31  H   UNL     1       6.538   3.957  12.897  0.00  0.00    +0.000 HD
ENDBRANCH  18  19
ENDBRANCH   6  18
TORSDOF 4
ENDMDL
MODEL 6
REMARK VINA RESULT:      -9.3      3.194     10.641
REMARK  Name = 
REMARK  5 active torsions:
REMARK  status: ('A' for Active; 'I' for Inactive)
REMARK    1  A    between atoms: C_1  and  C_2
REMARK    2  A    between atoms: C_4  and  C_5
REMARK    3  A    between atoms: C_9  and  C_10
REMARK    4  A    between atoms: N_15  and  C_16
REMARK    5  A    between atoms: C_16  and  C_17
REMARK                            x       y       z     vdW  Elec       q    Type
REMARK                         _______ _______ _______ _____ _____    ______ ____
ROOT
ATOM      1  C   UNL     1       2.509   7.539  18.894  0.00  0.00    +0.000 A 
ATOM      2  C   UNL     1       2.153   7.152  20.183  0.00  0.00    +0.000 A 
ATOM      3  C   UNL     1       1.387   8.047  20.954  0.00  0.00    +0.000 A 
ATOM      4  N   UNL     1       0.940   9.262  20.462  0.00  0.00    +0.000 NA
ATOM      5  C   UNL     1       1.178   9.670  19.183  0.00  0.00    +0.000 A 
ATOM      6  N   UNL     1       0.610  10.914  18.575  0.00  0.00    +0.000 N 
ATOM      7  C   UNL     1       1.980   8.777  18.420  0.00  0.00    +0.000 A 
ATOM      8  H   UNL     1       1.059  11.083  17.630  0.00  0.00    +0.000 HD
ENDROOT
BRANCH   1  15
ATOM      9  C   UNL     1       1.678   4.685  18.200  0.00  0.00    +0.000 C 
ATOM     10  C   UNL     1       2.973   5.301  17.739  0.00  0.00    +0.000 A 
ATOM     11  C   UNL     1       3.804   4.487  16.993  0.00  0.00    +0.000 A 
ATOM     12  C   UNL     1       4.991   4.962  16.459  0.00  0.00    +0.000 A 
ATOM     13  C   UNL     1       5.297   6.362  16.641  0.00  0.00    +0.000 A 
ATOM     14  C   UNL     1       4.444   7.176  17.308  0.00  0.00    +0.000 A 
ATOM     15  C   UNL     1       3.306   6.676  17.957  0.00  0.00    +0.000 A 
BRANCH  12  16
ATOM     16  C   UNL     1       5.735   4.053  15.603  0.00  0.00    +0.000 C 
ATOM     17  N   UNL     1       6.293   3.312  14.912  0.00  0.00    +0.000 NA
ENDBRANCH  12  16
ENDBRANCH   1  15
BRANCH   6  18
ATOM     18  C   UNL     1      -0.203  12.113  19.215  0.00  0.00    +0.000 C 
BRANCH  18  19
ATOM     19  C   UNL     1      -1.936  12.210  19.332  0.00  0.00    +0.000 A 
ATOM     20  N   UNL     1      -2.305  11.863  18.102  0.00  0.00    +0.000 NA
ATOM     21  N   UNL     1      -3.586  11.727  17.966  0.00  0.00    +0.000 N 
ATOM     22  C   UNL     1      -4.242  11.953  19.067  0.00  0.00    +0.000 A 
ATOM     23  N   UNL     1      -5.571  11.671  19.061  0.00  0.00    +0.000 NA
ATOM     24  C   UNL     1      -6.435  11.874  20.043  0.00  0.00    +0.000 A 
ATOM     25  N   UNL     1      -7.778  11.359  19.852  0.00  0.00    +0.000 N 
ATOM     26  C   UNL     1      -5.929  12.574  21.139  0.00  0.00    +0.000 A 
ATOM     27  C   UNL     1      -4.440  12.865  21.191  0.00  0.00    +0.000 A 
ATOM     28  C   UNL     1      -3.415  12.440  20.063  0.00  0.00    +0.000 A 
ATOM     29  H   UNL     1      -4.065  11.455  17.104  0.00  0.00    +0.000 HD
ATOM     30  H   UNL     1      -7.961  10.770  19.015  0.00  0.00    +0.000 HD
ATOM     31  H   UNL     1      -8.573  11.420  20.511  0.00  0.00    +0.000 HD
ENDBRANCH  18  19
ENDBRANCH   6  18
TORSDOF 4
ENDMDL
MODEL 7
REMARK VINA RESULT:      -9.3      1.741      2.109
REMARK  Name = 
REMARK  5 active torsions:
REMARK  status: ('A' for Active; 'I' for Inactive)
REMARK    1  A    between atoms: C_1  and  C_2
REMARK    2  A    between atoms: C_4  and  C_5
REMARK    3  A    between atoms: C_9  and  C_10
REMARK    4  A    between atoms: N_15  and  C_16
REMARK    5  A    between atoms: C_16  and  C_17
REMARK                            x       y       z     vdW  Elec       q    Type
REMARK                         _______ _______ _______ _____ _____    ______ ____
ROOT
ATOM      1  C   UNL     1       0.870   9.797  19.517  0.00  0.00    +0.000 A 
ATOM      2  C   UNL     1       1.446   9.850  18.251  0.00  0.00    +0.000 A 
ATOM      3  C   UNL     1       2.260   8.773  17.849  0.00  0.00    +0.000 A 
ATOM      4  N   UNL     1       2.463   7.655  18.642  0.00  0.00    +0.000 NA
ATOM      5  C   UNL     1       1.865   7.497  19.856  0.00  0.00    +0.000 A 
ATOM      6  N   UNL     1       1.958   6.254  20.687  0.00  0.00    +0.000 N 
ATOM      7  C   UNL     1       1.071   8.602  20.271  0.00  0.00    +0.000 A 
ATOM      8  H   UNL     1       1.535   6.434  21.642  0.00  0.00    +0.000 HD
ENDROOT
BRANCH   1  15
ATOM      9  C   UNL     1      -1.897  10.348  18.351  0.00  0.00    +0.000 C 
ATOM     10  C   UNL     1      -1.274  11.195  19.431  0.00  0.00    +0.000 A 
ATOM     11  C   UNL     1      -2.016  12.279  19.860  0.00  0.00    +0.000 A 
ATOM     12  C   UNL     1      -1.577  13.091  20.892  0.00  0.00    +0.000 A 
ATOM     13  C   UNL     1      -0.349  12.725  21.560  0.00  0.00    +0.000 A 
ATOM     14  C   UNL     1       0.339  11.619  21.187  0.00  0.00    +0.000 A 
ATOM     15  C   UNL     1      -0.034  10.865  20.065  0.00  0.00    +0.000 A 
BRANCH  12  16
ATOM     16  C   UNL     1      -2.484  14.137  21.336  0.00  0.00    +0.000 C 
ATOM     17  N   UNL     1      -3.200  14.987  21.654  0.00  0.00    +0.000 NA
ENDBRANCH  12  16
ENDBRANCH   1  15
BRANCH   6  18
ATOM     18  C   UNL     1       2.840   4.951  20.520  0.00  0.00    +0.000 C 
BRANCH  18  19
ATOM     19  C   UNL     1       3.825   4.566  19.137  0.00  0.00    +0.000 A 
ATOM     20  N   UNL     1       2.938   3.985  18.334  0.00  0.00    +0.000 NA
ATOM     21  N   UNL     1       3.405   3.720  17.155  0.00  0.00    +0.000 N 
ATOM     22  C   UNL     1       4.646   4.087  17.004  0.00  0.00    +0.000 A 
ATOM     23  N   UNL     1       5.164   4.002  15.751  0.00  0.00    +0.000 NA
ATOM     24  C   UNL     1       6.407   4.266  15.383  0.00  0.00    +0.000 A 
ATOM     25  N   UNL     1       6.690   4.238  13.959  0.00  0.00    +0.000 N 
ATOM     26  C   UNL     1       7.290   4.529  16.431  0.00  0.00    +0.000 A 
ATOM     27  C   UNL     1       6.731   4.672  17.835  0.00  0.00    +0.000 A 
ATOM     28  C   UNL     1       5.198   4.519  18.196  0.00  0.00    +0.000 A 
ATOM     29  H   UNL     1       2.879   3.286  16.393  0.00  0.00    +0.000 HD
ATOM     30  H   UNL     1       5.890   4.124  13.305  0.00  0.00    +0.000 HD
ATOM     31  H   UNL     1       7.595   4.425  13.496  0.00  0.00    +0.000 HD
ENDBRANCH  18  19
ENDBRANCH   6  18
TORSDOF 4
ENDMDL
MODEL 8
REMARK VINA RESULT:      -9.2      0.482      1.384
REMARK  Name = 
REMARK  5 active torsions:
REMARK  status: ('A' for Active; 'I' for Inactive)
REMARK    1  A    between atoms: C_1  and  C_2
REMARK    2  A    between atoms: C_4  and  C_5
REMARK    3  A    between atoms: C_9  and  C_10
REMARK    4  A    between atoms: N_15  and  C_16
REMARK    5  A    between atoms: C_16  and  C_17
REMARK                            x       y       z     vdW  Elec       q    Type
REMARK                         _______ _______ _______ _____ _____    ______ ____
ROOT
ATOM      1  C   UNL     1       0.725   9.724  19.942  0.00  0.00    +0.000 A 
ATOM      2  C   UNL     1       0.927  10.026  18.598  0.00  0.00    +0.000 A 
ATOM      3  C   UNL     1       1.755   9.171  17.846  0.00  0.00    +0.000 A 
ATOM      4  N   UNL     1       2.327   8.028  18.379  0.00  0.00    +0.000 NA
ATOM      5  C   UNL     1       2.106   7.624  19.662  0.00  0.00    +0.000 A 
ATOM      6  N   UNL     1       2.603   6.334  20.238  0.00  0.00    +0.000 N 
ATOM      7  C   UNL     1       1.296   8.509  20.426  0.00  0.00    +0.000 A 
ATOM      8  H   UNL     1       2.428   6.324  21.283  0.00  0.00    +0.000 HD
ENDROOT
BRANCH   1  15
ATOM      9  C   UNL     1       0.678   9.298  22.965  0.00  0.00    +0.000 C 
ATOM     10  C   UNL     1      -0.254  10.243  22.251  0.00  0.00    +0.000 A 
ATOM     11  C   UNL     1      -1.174  10.905  23.042  0.00  0.00    +0.000 A 
ATOM     12  C   UNL     1      -2.039  11.847  22.509  0.00  0.00    +0.000 A 
ATOM     13  C   UNL     1      -1.896  12.174  21.109  0.00  0.00    +0.000 A 
ATOM     14  C   UNL     1      -0.942  11.579  20.352  0.00  0.00    +0.000 A 
ATOM     15  C   UNL     1      -0.149  10.537  20.854  0.00  0.00    +0.000 A 
BRANCH  12  16
ATOM     16  C   UNL     1      -2.892  12.558  23.446  0.00  0.00    +0.000 C 
ATOM     17  N   UNL     1      -3.602  13.104  24.178  0.00  0.00    +0.000 NA
ENDBRANCH  12  16
ENDBRANCH   1  15
BRANCH   6  18
ATOM     18  C   UNL     1       3.592   5.244  19.658  0.00  0.00    +0.000 C 
BRANCH  18  19
ATOM     19  C   UNL     1       4.475   5.373  18.164  0.00  0.00    +0.000 A 
ATOM     20  N   UNL     1       5.191   6.474  18.373  0.00  0.00    +0.000 NA
ATOM     21  N   UNL     1       6.052   6.717  17.436  0.00  0.00    +0.000 N 
ATOM     22  C   UNL     1       6.038   5.824  16.488  0.00  0.00    +0.000 A 
ATOM     23  N   UNL     1       7.019   5.905  15.552  0.00  0.00    +0.000 NA
ATOM     24  C   UNL     1       7.164   5.144  14.480  0.00  0.00    +0.000 A 
ATOM     25  N   UNL     1       8.375   5.331  13.701  0.00  0.00    +0.000 N 
ATOM     26  C   UNL     1       6.112   4.260  14.237  0.00  0.00    +0.000 A 
ATOM     27  C   UNL     1       5.025   4.118  15.287  0.00  0.00    +0.000 A 
ATOM     28  C   UNL     1       4.994   4.931  16.643  0.00  0.00    +0.000 A 
ATOM     29  H   UNL     1       6.702   7.506  17.418  0.00  0.00    +0.000 HD
ATOM     30  H   UNL     1       9.107   5.965  14.080  0.00  0.00    +0.000 HD
ATOM     31  H   UNL     1       8.654   4.823  12.844  0.00  0.00    +0.000 HD
ENDBRANCH  18  19
ENDBRANCH   6  18
TORSDOF 4
ENDMDL
MODEL 9
REMARK VINA RESULT:      -9.2      1.323      1.684
REMARK  Name = 
REMARK  5 active torsions:
REMARK  status: ('A' for Active; 'I' for Inactive)
REMARK    1  A    between atoms: C_1  and  C_2
REMARK    2  A    between atoms: C_4  and  C_5
REMARK    3  A    between atoms: C_9  and  C_10
REMARK    4  A    between atoms: N_15  and  C_16
REMARK    5  A    between atoms: C_16  and  C_17
REMARK                            x       y       z     vdW  Elec       q    Type
REMARK                         _______ _______ _______ _____ _____    ______ ____
ROOT
ATOM      1  C   UNL     1       0.726   9.215  20.290  0.00  0.00    +0.000 A 
ATOM      2  C   UNL     1       1.261   9.480  19.032  0.00  0.00    +0.000 A 
ATOM      3  C   UNL     1       2.114   8.516  18.461  0.00  0.00    +0.000 A 
ATOM      4  N   UNL     1       2.394   7.308  19.078  0.00  0.00    +0.000 NA
ATOM      5  C   UNL     1       1.840   6.945  20.270  0.00  0.00    +0.000 A 
ATOM      6  N   UNL     1       2.018   5.603  20.909  0.00  0.00    +0.000 N 
ATOM      7  C   UNL     1       1.006   7.936  20.858  0.00  0.00    +0.000 A 
ATOM      8  H   UNL     1       1.615   5.621  21.889  0.00  0.00    +0.000 HD
ENDROOT
BRANCH   1  15
ATOM      9  C   UNL     1      -1.068  11.189  18.804  0.00  0.00    +0.000 C 
ATOM     10  C   UNL     1      -0.953  11.148  20.306  0.00  0.00    +0.000 A 
ATOM     11  C   UNL     1      -1.693  12.088  20.999  0.00  0.00    +0.000 A 
ATOM     12  C   UNL     1      -1.720  12.108  22.384  0.00  0.00    +0.000 A 
ATOM     13  C   UNL     1      -1.010  11.063  23.084  0.00  0.00    +0.000 A 
ATOM     14  C   UNL     1      -0.347  10.098  22.402  0.00  0.00    +0.000 A 
ATOM     15  C   UNL     1      -0.212  10.145  21.007  0.00  0.00    +0.000 A 
BRANCH  12  16
ATOM     16  C   UNL     1      -2.614  13.069  23.009  0.00  0.00    +0.000 C 
ATOM     17  N   UNL     1      -3.349  13.829  23.476  0.00  0.00    +0.000 NA
ENDBRANCH  12  16
ENDBRANCH   1  15
BRANCH   6  18
ATOM     18  C   UNL     1       2.957   4.385  20.534  0.00  0.00    +0.000 C 
BRANCH  18  19
ATOM     19  C   UNL     1       3.986   4.294  19.134  0.00  0.00    +0.000 A 
ATOM     20  N   UNL     1       3.124   3.909  18.197  0.00  0.00    +0.000 NA
ATOM     21  N   UNL     1       3.630   3.897  17.004  0.00  0.00    +0.000 N 
ATOM     22  C   UNL     1       4.876   4.273  16.975  0.00  0.00    +0.000 A 
ATOM     23  N   UNL     1       5.437   4.452  15.751  0.00  0.00    +0.000 NA
ATOM     24  C   UNL     1       6.693   4.775  15.488  0.00  0.00    +0.000 A 
ATOM     25  N   UNL     1       7.023   5.050  14.101  0.00  0.00    +0.000 N 
ATOM     26  C   UNL     1       7.541   4.797  16.596  0.00  0.00    +0.000 A 
ATOM     27  C   UNL     1       6.935   4.642  17.979  0.00  0.00    +0.000 A 
ATOM     28  C   UNL     1       5.391   4.433  18.249  0.00  0.00    +0.000 A 
ATOM     29  H   UNL     1       3.128   3.643  16.150  0.00  0.00    +0.000 HD
ATOM     30  H   UNL     1       6.245   5.088  13.412  0.00  0.00    +0.000 HD
ATOM     31  H   UNL     1       7.945   5.321  13.718  0.00  0.00    +0.000 HD
ENDBRANCH  18  19
ENDBRANCH   6  18
TORSDOF 4
ENDMDL
