MODEL 1
REMARK VINA RESULT:      -8.2      0.000      0.000
REMARK  Name = 
REMARK  6 active torsions:
REMARK  status: ('A' for Active; 'I' for Inactive)
REMARK    1  A    between atoms: O_1  and  C_2
REMARK    2  A    between atoms: C_3  and  O_4
REMARK    3  A    between atoms: C_7  and  N_8
REMARK    4  A    between atoms: C_10  and  C_11
REMARK    5  A    between atoms: C_11  and  C_12
REMARK    6  A    between atoms: C_26  and  O_27
REMARK                            x       y       z     vdW  Elec       q    Type
REMARK                         _______ _______ _______ _____ _____    ______ ____
ROOT
ATOM      1  N   UNL     1       2.496   6.439  19.092  0.00  0.00    +0.000 N 
ATOM      2  C   UNL     1       3.790   6.433  18.629  0.00  0.00    +0.000 A 
ATOM      3  C   UNL     1       4.380   5.221  18.958  0.00  0.00    +0.000 A 
ATOM      4  C   UNL     1       3.354   4.420  19.576  0.00  0.00    +0.000 A 
ATOM      5  C   UNL     1       3.267   3.121  20.147  0.00  0.00    +0.000 A 
ATOM      6 CL   UNL     1       4.653   2.117  20.176  0.00  0.00    +0.000 Cl
ATOM      7  C   UNL     1       2.085   2.632  20.703  0.00  0.00    +0.000 A 
ATOM      8  C   UNL     1       0.954   3.424  20.708  0.00  0.00    +0.000 A 
ATOM      9  C   UNL     1       0.984   4.715  20.172  0.00  0.00    +0.000 A 
ATOM     10  C   UNL     1       2.187   5.199  19.619  0.00  0.00    +0.000 A 
ENDROOT
BRANCH   1  15
ATOM     11  C   UNL     1       0.897   9.617  20.507  0.00  0.00    +0.000 C 
ATOM     12  C   UNL     1       1.001  10.431  19.211  0.00  0.00    +0.000 C 
ATOM     13  C   UNL     1       0.865   9.516  17.992  0.00  0.00    +0.000 C 
ATOM     14  O   UNL     1       1.818   8.452  18.028  0.00  0.00    +0.000 OA
ATOM     15  C   UNL     1       1.633   7.621  19.187  0.00  0.00    +0.000 C 
ATOM     16  C   UNL     1       1.856   8.415  20.494  0.00  0.00    +0.000 C 
BRANCH  11  17
ATOM     17  O   UNL     1       1.161  10.466  21.628  0.00  0.00    +0.000 OA
ATOM     18  H   UNL     1       1.164  11.385  21.297  0.00  0.00    +0.000 HD
ENDBRANCH  11  17
BRANCH  12  19
ATOM     19  O   UNL     1       0.004  11.457  19.219  0.00  0.00    +0.000 OA
ATOM     20  H   UNL     1       0.429  12.318  19.060  0.00  0.00    +0.000 HD
ENDBRANCH  12  19
BRANCH  16  21
ATOM     21  O   UNL     1       1.644   7.600  21.657  0.00  0.00    +0.000 OA
ATOM     22  H   UNL     1       2.101   6.751  21.550  0.00  0.00    +0.000 HD
ENDBRANCH  16  21
ENDBRANCH   1  15
BRANCH   3  23
ATOM     23  C   UNL     1       5.829   4.868  18.775  0.00  0.00    +0.000 C 
BRANCH  23  24
ATOM     24  C   UNL     1       6.081   4.614  17.306  0.00  0.00    +0.000 A 
ATOM     25  C   UNL     1       5.143   3.910  16.531  0.00  0.00    +0.000 A 
ATOM     26  C   UNL     1       5.324   3.771  15.155  0.00  0.00    +0.000 A 
ATOM     27  C   UNL     1       6.431   4.336  14.542  0.00  0.00    +0.000 A 
ATOM     28  F   UNL     1       6.582   4.229  13.214  0.00  0.00    +0.000 F 
ATOM     29  C   UNL     1       7.381   5.022  15.285  0.00  0.00    +0.000 A 
ATOM     30  C   UNL     1       7.204   5.167  16.664  0.00  0.00    +0.000 A 
ENDBRANCH  23  24
ENDBRANCH   3  23
TORSDOF 6
ENDMDL
MODEL 2
REMARK VINA RESULT:      -8.0      0.710      1.853
REMARK  Name = 
REMARK  6 active torsions:
REMARK  status: ('A' for Active; 'I' for Inactive)
REMARK    1  A    between atoms: O_1  and  C_2
REMARK    2  A    between atoms: C_3  and  O_4
REMARK    3  A    between atoms: C_7  and  N_8
REMARK    4  A    between atoms: C_10  and  C_11
REMARK    5  A    between atoms: C_11  and  C_12
REMARK    6  A    between atoms: C_26  and  O_27
REMARK                            x       y       z     vdW  Elec       q    Type
REMARK                         _______ _______ _______ _____ _____    ______ ____
ROOT
ATOM      1  N   UNL     1       2.918   6.562  19.397  0.00  0.00    +0.000 N 
ATOM      2  C   UNL     1       4.152   6.428  18.810  0.00  0.00    +0.000 A 
ATOM      3  C   UNL     1       4.575   5.113  18.947  0.00  0.00    +0.000 A 
ATOM      4  C   UNL     1       3.494   4.399  19.576  0.00  0.00    +0.000 A 
ATOM      5  C   UNL     1       3.256   3.066  20.011  0.00  0.00    +0.000 A 
ATOM      6 CL   UNL     1       4.470   1.878  19.795  0.00  0.00    +0.000 Cl
ATOM      7  C   UNL     1       2.064   2.688  20.627  0.00  0.00    +0.000 A 
ATOM      8  C   UNL     1       1.071   3.626  20.830  0.00  0.00    +0.000 A 
ATOM      9  C   UNL     1       1.255   4.954  20.434  0.00  0.00    +0.000 A 
ATOM     10  C   UNL     1       2.467   5.325  19.818  0.00  0.00    +0.000 A 
ENDROOT
BRANCH   1  15
ATOM     11  C   UNL     1       0.878   9.764  18.900  0.00  0.00    +0.000 C 
ATOM     12  C   UNL     1       0.035   9.607  20.172  0.00  0.00    +0.000 C 
ATOM     13  C   UNL     1       0.846   8.916  21.270  0.00  0.00    +0.000 C 
ATOM     14  O   UNL     1       1.369   7.664  20.823  0.00  0.00    +0.000 OA
ATOM     15  C   UNL     1       2.256   7.835  19.704  0.00  0.00    +0.000 C 
ATOM     16  C   UNL     1       1.518   8.430  18.483  0.00  0.00    +0.000 C 
BRANCH  11  17
ATOM     17  O   UNL     1       0.062  10.287  17.846  0.00  0.00    +0.000 OA
ATOM     18  H   UNL     1       0.050  11.258  17.949  0.00  0.00    +0.000 HD
ENDBRANCH  11  17
BRANCH  12  19
ATOM     19  O   UNL     1      -0.432  10.894  20.588  0.00  0.00    +0.000 OA
ATOM     20  H   UNL     1       0.157  11.581  20.230  0.00  0.00    +0.000 HD
ENDBRANCH  12  19
BRANCH  16  21
ATOM     21  O   UNL     1       2.403   8.632  17.370  0.00  0.00    +0.000 OA
ATOM     22  H   UNL     1       1.921   8.493  16.539  0.00  0.00    +0.000 HD
ENDBRANCH  16  21
ENDBRANCH   1  15
BRANCH   3  23
ATOM     23  C   UNL     1       5.933   4.582  18.583  0.00  0.00    +0.000 C 
BRANCH  23  24
ATOM     24  C   UNL     1       6.055   4.563  17.077  0.00  0.00    +0.000 A 
ATOM     25  C   UNL     1       7.193   5.092  16.445  0.00  0.00    +0.000 A 
ATOM     26  C   UNL     1       7.354   4.976  15.064  0.00  0.00    +0.000 A 
ATOM     27  C   UNL     1       6.391   4.327  14.307  0.00  0.00    +0.000 A 
ATOM     28  F   UNL     1       6.569   4.188  12.986  0.00  0.00    +0.000 F 
ATOM     29  C   UNL     1       5.250   3.809  14.903  0.00  0.00    +0.000 A 
ATOM     30  C   UNL     1       5.084   3.920  16.286  0.00  0.00    +0.000 A 
ENDBRANCH  23  24
ENDBRANCH   3  23
TORSDOF 6
ENDMDL
MODEL 3
REMARK VINA RESULT:      -7.7      2.126      2.603
REMARK  Name = 
REMARK  6 active torsions:
REMARK  status: ('A' for Active; 'I' for Inactive)
REMARK    1  A    between atoms: O_1  and  C_2
REMARK    2  A    between atoms: C_3  and  O_4
REMARK    3  A    between atoms: C_7  and  N_8
REMARK    4  A    between atoms: C_10  and  C_11
REMARK    5  A    between atoms: C_11  and  C_12
REMARK    6  A    between atoms: C_26  and  O_27
REMARK                            x       y       z     vdW  Elec       q    Type
REMARK                         _______ _______ _______ _____ _____    ______ ____
ROOT
ATOM      1  N   UNL     1       2.452   5.835  18.149  0.00  0.00    +0.000 N 
ATOM      2  C   UNL     1       3.682   5.875  17.538  0.00  0.00    +0.000 A 
ATOM      3  C   UNL     1       4.179   4.583  17.443  0.00  0.00    +0.000 A 
ATOM      4  C   UNL     1       3.150   3.710  17.946  0.00  0.00    +0.000 A 
ATOM      5  C   UNL     1       2.993   2.311  18.144  0.00  0.00    +0.000 A 
ATOM      6 CL   UNL     1       4.266   1.249  17.717  0.00  0.00    +0.000 Cl
ATOM      7  C   UNL     1       1.833   1.764  18.694  0.00  0.00    +0.000 A 
ATOM      8  C   UNL     1       0.794   2.595  19.063  0.00  0.00    +0.000 A 
ATOM      9  C   UNL     1       0.898   3.980  18.902  0.00  0.00    +0.000 A 
ATOM     10  C   UNL     1       2.078   4.520  18.351  0.00  0.00    +0.000 A 
ENDROOT
BRANCH   1  15
ATOM     11  C   UNL     1       1.300   8.545  20.596  0.00  0.00    +0.000 C 
ATOM     12  C   UNL     1       1.399   9.705  19.596  0.00  0.00    +0.000 C 
ATOM     13  C   UNL     1       1.082   9.221  18.180  0.00  0.00    +0.000 C 
ATOM     14  O   UNL     1       1.918   8.124  17.804  0.00  0.00    +0.000 OA
ATOM     15  C   UNL     1       1.727   6.996  18.676  0.00  0.00    +0.000 C 
ATOM     16  C   UNL     1       2.124   7.333  20.131  0.00  0.00    +0.000 C 
BRANCH  11  17
ATOM     17  O   UNL     1       1.731   8.988  21.887  0.00  0.00    +0.000 OA
ATOM     18  H   UNL     1       1.747   8.202  22.468  0.00  0.00    +0.000 HD
ENDBRANCH  11  17
BRANCH  12  19
ATOM     19  O   UNL     1       0.519  10.756  20.007  0.00  0.00    +0.000 OA
ATOM     20  H   UNL     1      -0.246  10.786  19.408  0.00  0.00    +0.000 HD
ENDBRANCH  12  19
BRANCH  16  21
ATOM     21  O   UNL     1       1.909   6.221  21.015  0.00  0.00    +0.000 OA
ATOM     22  H   UNL     1       1.004   5.887  20.905  0.00  0.00    +0.000 HD
ENDBRANCH  16  21
ENDBRANCH   1  15
BRANCH   3  23
ATOM     23  C   UNL     1       5.558   4.200  16.983  0.00  0.00    +0.000 C 
BRANCH  23  24
ATOM     24  C   UNL     1       6.534   5.249  17.464  0.00  0.00    +0.000 A 
ATOM     25  C   UNL     1       6.734   6.431  16.730  0.00  0.00    +0.000 A 
ATOM     26  C   UNL     1       7.551   7.445  17.230  0.00  0.00    +0.000 A 
ATOM     27  C   UNL     1       8.166   7.293  18.463  0.00  0.00    +0.000 A 
ATOM     28  F   UNL     1       8.922   8.285  18.954  0.00  0.00    +0.000 F 
ATOM     29  C   UNL     1       7.999   6.131  19.201  0.00  0.00    +0.000 A 
ATOM     30  C   UNL     1       7.180   5.111  18.707  0.00  0.00    +0.000 A 
ENDBRANCH  23  24
ENDBRANCH   3  23
TORSDOF 6
ENDMDL
MODEL 4
REMARK VINA RESULT:      -7.5      1.994      2.884
REMARK  Name = 
REMARK  6 active torsions:
REMARK  status: ('A' for Active; 'I' for Inactive)
REMARK    1  A    between atoms: O_1  and  C_2
REMARK    2  A    between atoms: C_3  and  O_4
REMARK    3  A    between atoms: C_7  and  N_8
REMARK    4  A    between atoms: C_10  and  C_11
REMARK    5  A    between atoms: C_11  and  C_12
REMARK    6  A    between atoms: C_26  and  O_27
REMARK                            x       y       z     vdW  Elec       q    Type
REMARK                         _______ _______ _______ _____ _____    ______ ____
ROOT
ATOM      1  N   UNL     1       2.335   6.707  19.257  0.00  0.00    +0.000 N 
ATOM      2  C   UNL     1       3.313   6.719  18.292  0.00  0.00    +0.000 A 
ATOM      3  C   UNL     1       3.706   5.414  18.035  0.00  0.00    +0.000 A 
ATOM      4  C   UNL     1       2.855   4.564  18.828  0.00  0.00    +0.000 A 
ATOM      5  C   UNL     1       2.717   3.168  19.053  0.00  0.00    +0.000 A 
ATOM      6 CL   UNL     1       3.753   2.074  18.240  0.00  0.00    +0.000 Cl
ATOM      7  C   UNL     1       1.769   2.648  19.934  0.00  0.00    +0.000 A 
ATOM      8  C   UNL     1       0.928   3.505  20.617  0.00  0.00    +0.000 A 
ATOM      9  C   UNL     1       1.027   4.888  20.444  0.00  0.00    +0.000 A 
ATOM     10  C   UNL     1       1.994   5.401  19.555  0.00  0.00    +0.000 A 
ENDROOT
BRANCH   1  15
ATOM     11  C   UNL     1       0.675  10.088  19.946  0.00  0.00    +0.000 C 
ATOM     12  C   UNL     1      -0.101   9.627  21.186  0.00  0.00    +0.000 C 
ATOM     13  C   UNL     1       0.686   8.554  21.942  0.00  0.00    +0.000 C 
ATOM     14  O   UNL     1       1.023   7.457  21.090  0.00  0.00    +0.000 OA
ATOM     15  C   UNL     1       1.854   7.880  19.995  0.00  0.00    +0.000 C 
ATOM     16  C   UNL     1       1.121   8.893  19.087  0.00  0.00    +0.000 C 
BRANCH  11  17
ATOM     17  O   UNL     1      -0.134  10.989  19.182  0.00  0.00    +0.000 OA
ATOM     18  H   UNL     1      -0.502  11.643  19.808  0.00  0.00    +0.000 HD
ENDBRANCH  11  17
BRANCH  12  19
ATOM     19  O   UNL     1      -0.381  10.761  22.014  0.00  0.00    +0.000 OA
ATOM     20  H   UNL     1      -0.820  10.463  22.829  0.00  0.00    +0.000 HD
ENDBRANCH  12  19
BRANCH  16  21
ATOM     21  O   UNL     1       1.954   9.343  18.007  0.00  0.00    +0.000 OA
ATOM     22  H   UNL     1       2.128  10.293  18.102  0.00  0.00    +0.000 HD
ENDBRANCH  16  21
ENDBRANCH   1  15
BRANCH   3  23
ATOM     23  C   UNL     1       4.857   4.996  17.163  0.00  0.00    +0.000 C 
BRANCH  23  24
ATOM     24  C   UNL     1       6.079   5.787  17.567  0.00  0.00    +0.000 A 
ATOM     25  C   UNL     1       6.396   6.996  16.922  0.00  0.00    +0.000 A 
ATOM     26  C   UNL     1       7.460   7.779  17.368  0.00  0.00    +0.000 A 
ATOM     27  C   UNL     1       8.209   7.371  18.461  0.00  0.00    +0.000 A 
ATOM     28  F   UNL     1       9.208   8.145  18.906  0.00  0.00    +0.000 F 
ATOM     29  C   UNL     1       7.930   6.176  19.107  0.00  0.00    +0.000 A 
ATOM     30  C   UNL     1       6.863   5.387  18.666  0.00  0.00    +0.000 A 
ENDBRANCH  23  24
ENDBRANCH   3  23
TORSDOF 6
ENDMDL
MODEL 5
REMARK VINA RESULT:      -7.5      1.356      1.725
REMARK  Name = 
REMARK  6 active torsions:
REMARK  status: ('A' for Active; 'I' for Inactive)
REMARK    1  A    between atoms: O_1  and  C_2
REMARK    2  A    between atoms: C_3  and  O_4
REMARK    3  A    between atoms: C_7  and  N_8
REMARK    4  A    between atoms: C_10  and  C_11
REMARK    5  A    between atoms: C_11  and  C_12
REMARK    6  A    between atoms: C_26  and  O_27
REMARK                            x       y       z     vdW  Elec       q    Type
REMARK                         _______ _______ _______ _____ _____    ______ ____
ROOT
ATOM      1  N   UNL     1       2.640   5.984  18.109  0.00  0.00    +0.000 N 
ATOM      2  C   UNL     1       3.947   6.023  17.690  0.00  0.00    +0.000 A 
ATOM      3  C   UNL     1       4.444   4.728  17.644  0.00  0.00    +0.000 A 
ATOM      4  C   UNL     1       3.345   3.855  17.971  0.00  0.00    +0.000 A 
ATOM      5  C   UNL     1       3.151   2.455  18.116  0.00  0.00    +0.000 A 
ATOM      6 CL   UNL     1       4.467   1.389  17.863  0.00  0.00    +0.000 Cl
ATOM      7  C   UNL     1       1.919   1.909  18.475  0.00  0.00    +0.000 A 
ATOM      8  C   UNL     1       0.842   2.743  18.701  0.00  0.00    +0.000 A 
ATOM      9  C   UNL     1       0.977   4.130  18.586  0.00  0.00    +0.000 A 
ATOM     10  C   UNL     1       2.230   4.669  18.228  0.00  0.00    +0.000 A 
ENDROOT
BRANCH   1  15
ATOM     11  C   UNL     1       1.223   8.714  20.389  0.00  0.00    +0.000 C 
ATOM     12  C   UNL     1       1.401   9.859  19.384  0.00  0.00    +0.000 C 
ATOM     13  C   UNL     1       1.227   9.348  17.953  0.00  0.00    +0.000 C 
ATOM     14  O   UNL     1       2.110   8.258  17.676  0.00  0.00    +0.000 OA
ATOM     15  C   UNL     1       1.852   7.141  18.545  0.00  0.00    +0.000 C 
ATOM     16  C   UNL     1       2.103   7.507  20.026  0.00  0.00    +0.000 C 
BRANCH  11  17
ATOM     17  O   UNL     1       1.522   9.183  21.707  0.00  0.00    +0.000 OA
ATOM     18  H   UNL     1       2.012  10.023  21.608  0.00  0.00    +0.000 HD
ENDBRANCH  11  17
BRANCH  12  19
ATOM     19  O   UNL     1       0.471  10.903  19.691  0.00  0.00    +0.000 OA
ATOM     20  H   UNL     1       0.933  11.759  19.674  0.00  0.00    +0.000 HD
ENDBRANCH  12  19
BRANCH  16  21
ATOM     21  O   UNL     1       1.820   6.406  20.903  0.00  0.00    +0.000 OA
ATOM     22  H   UNL     1       1.128   6.660  21.534  0.00  0.00    +0.000 HD
ENDBRANCH  16  21
ENDBRANCH   1  15
BRANCH   3  23
ATOM     23  C   UNL     1       5.873   4.341  17.388  0.00  0.00    +0.000 C 
BRANCH  23  24
ATOM     24  C   UNL     1       6.132   4.413  15.901  0.00  0.00    +0.000 A 
ATOM     25  C   UNL     1       7.268   5.076  15.403  0.00  0.00    +0.000 A 
ATOM     26  C   UNL     1       7.564   5.048  14.041  0.00  0.00    +0.000 A 
ATOM     27  C   UNL     1       6.739   4.357  13.167  0.00  0.00    +0.000 A 
ATOM     28  F   UNL     1       7.048   4.305  11.864  0.00  0.00    +0.000 F 
ATOM     29  C   UNL     1       5.603   3.707  13.628  0.00  0.00    +0.000 A 
ATOM     30  C   UNL     1       5.302   3.729  14.993  0.00  0.00    +0.000 A 
ENDBRANCH  23  24
ENDBRANCH   3  23
TORSDOF 6
ENDMDL
MODEL 6
REMARK VINA RESULT:      -7.0      1.910      2.430
REMARK  Name = 
REMARK  6 active torsions:
REMARK  status: ('A' for Active; 'I' for Inactive)
REMARK    1  A    between atoms: O_1  and  C_2
REMARK    2  A    between atoms: C_3  and  O_4
REMARK    3  A    between atoms: C_7  and  N_8
REMARK    4  A    between atoms: C_10  and  C_11
REMARK    5  A    between atoms: C_11  and  C_12
REMARK    6  A    between atoms: C_26  and  O_27
REMARK                            x       y       z     vdW  Elec       q    Type
REMARK                         _______ _______ _______ _____ _____    ______ ____
ROOT
ATOM      1  N   UNL     1       2.208   6.378  18.724  0.00  0.00    +0.000 N 
ATOM      2  C   UNL     1       3.345   6.337  17.954  0.00  0.00    +0.000 A 
ATOM      3  C   UNL     1       3.977   5.118  18.149  0.00  0.00    +0.000 A 
ATOM      4  C   UNL     1       3.125   4.349  19.021  0.00  0.00    +0.000 A 
ATOM      5  C   UNL     1       3.161   3.061  19.622  0.00  0.00    +0.000 A 
ATOM      6 CL   UNL     1       4.493   2.028  19.325  0.00  0.00    +0.000 Cl
ATOM      7  C   UNL     1       2.147   2.608  20.466  0.00  0.00    +0.000 A 
ATOM      8  C   UNL     1       1.067   3.424  20.737  0.00  0.00    +0.000 A 
ATOM      9  C   UNL     1       0.985   4.705  20.184  0.00  0.00    +0.000 A 
ATOM     10  C   UNL     1       2.020   5.154  19.337  0.00  0.00    +0.000 A 
ENDROOT
BRANCH   1  15
ATOM     11  C   UNL     1       0.933   9.495  20.546  0.00  0.00    +0.000 C 
ATOM     12  C   UNL     1       0.921  10.401  19.309  0.00  0.00    +0.000 C 
ATOM     13  C   UNL     1       0.601   9.588  18.053  0.00  0.00    +0.000 C 
ATOM     14  O   UNL     1       1.502   8.491  17.897  0.00  0.00    +0.000 OA
ATOM     15  C   UNL     1       1.417   7.580  19.008  0.00  0.00    +0.000 C 
ATOM     16  C   UNL     1       1.828   8.263  20.332  0.00  0.00    +0.000 C 
BRANCH  11  17
ATOM     17  O   UNL     1       1.366  10.245  21.685  0.00  0.00    +0.000 OA
ATOM     18  H   UNL     1       2.306  10.469  21.540  0.00  0.00    +0.000 HD
ENDBRANCH  11  17
BRANCH  12  19
ATOM     19  O   UNL     1      -0.020  11.460  19.510  0.00  0.00    +0.000 OA
ATOM     20  H   UNL     1      -0.687  11.435  18.802  0.00  0.00    +0.000 HD
ENDBRANCH  12  19
BRANCH  16  21
ATOM     21  O   UNL     1       1.718   7.370  21.451  0.00  0.00    +0.000 OA
ATOM     22  H   UNL     1       1.058   7.709  22.076  0.00  0.00    +0.000 HD
ENDBRANCH  16  21
ENDBRANCH   1  15
BRANCH   3  23
ATOM     23  C   UNL     1       5.328   4.730  17.617  0.00  0.00    +0.000 C 
BRANCH  23  24
ATOM     24  C   UNL     1       6.317   5.815  17.977  0.00  0.00    +0.000 A 
ATOM     25  C   UNL     1       7.226   5.634  19.034  0.00  0.00    +0.000 A 
ATOM     26  C   UNL     1       8.208   6.589  19.294  0.00  0.00    +0.000 A 
ATOM     27  C   UNL     1       8.298   7.723  18.501  0.00  0.00    +0.000 A 
ATOM     28  F   UNL     1       9.267   8.620  18.734  0.00  0.00    +0.000 F 
ATOM     29  C   UNL     1       7.405   7.935  17.462  0.00  0.00    +0.000 A 
ATOM     30  C   UNL     1       6.419   6.981  17.194  0.00  0.00    +0.000 A 
ENDBRANCH  23  24
ENDBRANCH   3  23
TORSDOF 6
ENDMDL
MODEL 7
REMARK VINA RESULT:      -6.7      2.677      3.241
REMARK  Name = 
REMARK  6 active torsions:
REMARK  status: ('A' for Active; 'I' for Inactive)
REMARK    1  A    between atoms: O_1  and  C_2
REMARK    2  A    between atoms: C_3  and  O_4
REMARK    3  A    between atoms: C_7  and  N_8
REMARK    4  A    between atoms: C_10  and  C_11
REMARK    5  A    between atoms: C_11  and  C_12
REMARK    6  A    between atoms: C_26  and  O_27
REMARK                            x       y       z     vdW  Elec       q    Type
REMARK                         _______ _______ _______ _____ _____    ______ ____
ROOT
ATOM      1  N   UNL     1       2.678   6.726  17.958  0.00  0.00    +0.000 N 
ATOM      2  C   UNL     1       3.851   7.125  17.365  0.00  0.00    +0.000 A 
ATOM      3  C   UNL     1       4.571   6.000  16.990  0.00  0.00    +0.000 A 
ATOM      4  C   UNL     1       3.743   4.862  17.297  0.00  0.00    +0.000 A 
ATOM      5  C   UNL     1       3.855   3.448  17.189  0.00  0.00    +0.000 A 
ATOM      6 CL   UNL     1       5.280   2.761  16.537  0.00  0.00    +0.000 Cl
ATOM      7  C   UNL     1       2.841   2.589  17.613  0.00  0.00    +0.000 A 
ATOM      8  C   UNL     1       1.685   3.112  18.158  0.00  0.00    +0.000 A 
ATOM      9  C   UNL     1       1.526   4.494  18.300  0.00  0.00    +0.000 A 
ATOM     10  C   UNL     1       2.561   5.351  17.873  0.00  0.00    +0.000 A 
ENDROOT
BRANCH   1  15
ATOM     11  C   UNL     1       1.183   8.620  20.930  0.00  0.00    +0.000 C 
ATOM     12  C   UNL     1       0.989   9.946  20.184  0.00  0.00    +0.000 C 
ATOM     13  C   UNL     1       0.681   9.690  18.708  0.00  0.00    +0.000 C 
ATOM     14  O   UNL     1       1.688   8.881  18.097  0.00  0.00    +0.000 OA
ATOM     15  C   UNL     1       1.777   7.590  18.727  0.00  0.00    +0.000 C 
ATOM     16  C   UNL     1       2.194   7.713  20.210  0.00  0.00    +0.000 C 
BRANCH  11  17
ATOM     17  O   UNL     1       1.602   8.883  22.273  0.00  0.00    +0.000 OA
ATOM     18  H   UNL     1       1.249   8.162  22.830  0.00  0.00    +0.000 HD
ENDBRANCH  11  17
BRANCH  12  19
ATOM     19  O   UNL     1      -0.050  10.697  20.821  0.00  0.00    +0.000 OA
ATOM     20  H   UNL     1       0.347  11.417  21.341  0.00  0.00    +0.000 HD
ENDBRANCH  12  19
BRANCH  16  21
ATOM     21  O   UNL     1       2.257   6.432  20.855  0.00  0.00    +0.000 OA
ATOM     22  H   UNL     1       2.660   5.783  20.256  0.00  0.00    +0.000 HD
ENDBRANCH  16  21
ENDBRANCH   1  15
BRANCH   3  23
ATOM     23  C   UNL     1       5.975   5.990  16.452  0.00  0.00    +0.000 C 
BRANCH  23  24
ATOM     24  C   UNL     1       6.827   6.890  17.316  0.00  0.00    +0.000 A 
ATOM     25  C   UNL     1       7.589   6.357  18.371  0.00  0.00    +0.000 A 
ATOM     26  C   UNL     1       8.459   7.170  19.097  0.00  0.00    +0.000 A 
ATOM     27  C   UNL     1       8.583   8.512  18.775  0.00  0.00    +0.000 A 
ATOM     28  F   UNL     1       9.447   9.280  19.454  0.00  0.00    +0.000 F 
ATOM     29  C   UNL     1       7.832   9.069  17.750  0.00  0.00    +0.000 A 
ATOM     30  C   UNL     1       6.960   8.259  17.016  0.00  0.00    +0.000 A 
ENDBRANCH  23  24
ENDBRANCH   3  23
TORSDOF 6
ENDMDL
MODEL 8
REMARK VINA RESULT:      -6.7      6.115      9.178
REMARK  Name = 
REMARK  6 active torsions:
REMARK  status: ('A' for Active; 'I' for Inactive)
REMARK    1  A    between atoms: O_1  and  C_2
REMARK    2  A    between atoms: C_3  and  O_4
REMARK    3  A    between atoms: C_7  and  N_8
REMARK    4  A    between atoms: C_10  and  C_11
REMARK    5  A    between atoms: C_11  and  C_12
REMARK    6  A    between atoms: C_26  and  O_27
REMARK                            x       y       z     vdW  Elec       q    Type
REMARK                         _______ _______ _______ _____ _____    ______ ____
ROOT
ATOM      1  N   UNL     1      -3.199  13.335  20.495  0.00  0.00    +0.000 N 
ATOM      2  C   UNL     1      -1.839  13.396  20.303  0.00  0.00    +0.000 A 
ATOM      3  C   UNL     1      -1.479  12.465  19.339  0.00  0.00    +0.000 A 
ATOM      4  C   UNL     1      -2.703  11.873  18.863  0.00  0.00    +0.000 A 
ATOM      5  C   UNL     1      -3.063  10.875  17.917  0.00  0.00    +0.000 A 
ATOM      6 CL   UNL     1      -1.841  10.079  17.021  0.00  0.00    +0.000 Cl
ATOM      7  C   UNL     1      -4.390  10.504  17.698  0.00  0.00    +0.000 A 
ATOM      8  C   UNL     1      -5.398  11.116  18.416  0.00  0.00    +0.000 A 
ATOM      9  C   UNL     1      -5.102  12.096  19.368  0.00  0.00    +0.000 A 
ATOM     10  C   UNL     1      -3.756  12.457  19.584  0.00  0.00    +0.000 A 
ENDROOT
BRANCH   1  15
ATOM     11  C   UNL     1      -4.265  14.159  24.079  0.00  0.00    +0.000 C 
ATOM     12  C   UNL     1      -4.300  15.680  23.881  0.00  0.00    +0.000 C 
ATOM     13  C   UNL     1      -4.710  16.025  22.448  0.00  0.00    +0.000 C 
ATOM     14  O   UNL     1      -3.861  15.386  21.494  0.00  0.00    +0.000 OA
ATOM     15  C   UNL     1      -3.929  13.954  21.606  0.00  0.00    +0.000 C 
ATOM     16  C   UNL     1      -3.429  13.471  22.987  0.00  0.00    +0.000 C 
BRANCH  11  17
ATOM     17  O   UNL     1      -3.749  13.857  25.379  0.00  0.00    +0.000 OA
ATOM     18  H   UNL     1      -4.464  14.039  26.020  0.00  0.00    +0.000 HD
ENDBRANCH  11  17
BRANCH  12  19
ATOM     19  O   UNL     1      -5.189  16.258  24.842  0.00  0.00    +0.000 OA
ATOM     20  H   UNL     1      -4.711  16.401  25.677  0.00  0.00    +0.000 HD
ENDBRANCH  12  19
BRANCH  16  21
ATOM     21  O   UNL     1      -3.521  12.044  23.119  0.00  0.00    +0.000 OA
ATOM     22  H   UNL     1      -2.705  11.698  23.514  0.00  0.00    +0.000 HD
ENDBRANCH  16  21
ENDBRANCH   1  15
BRANCH   3  23
ATOM     23  C   UNL     1      -0.074  12.100  18.948  0.00  0.00    +0.000 C 
BRANCH  23  24
ATOM     24  C   UNL     1       0.263  10.760  19.558  0.00  0.00    +0.000 A 
ATOM     25  C   UNL     1       1.131   9.871  18.900  0.00  0.00    +0.000 A 
ATOM     26  C   UNL     1       1.527   8.684  19.513  0.00  0.00    +0.000 A 
ATOM     27  C   UNL     1       1.071   8.376  20.786  0.00  0.00    +0.000 A 
ATOM     28  F   UNL     1       1.483   7.250  21.384  0.00  0.00    +0.000 F 
ATOM     29  C   UNL     1       0.200   9.226  21.452  0.00  0.00    +0.000 A 
ATOM     30  C   UNL     1      -0.199  10.420  20.844  0.00  0.00    +0.000 A 
ENDBRANCH  23  24
ENDBRANCH   3  23
TORSDOF 6
ENDMDL
MODEL 9
REMARK VINA RESULT:      -6.6      1.876      2.848
REMARK  Name = 
REMARK  6 active torsions:
REMARK  status: ('A' for Active; 'I' for Inactive)
REMARK    1  A    between atoms: O_1  and  C_2
REMARK    2  A    between atoms: C_3  and  O_4
REMARK    3  A    between atoms: C_7  and  N_8
REMARK    4  A    between atoms: C_10  and  C_11
REMARK    5  A    between atoms: C_11  and  C_12
REMARK    6  A    between atoms: C_26  and  O_27
REMARK                            x       y       z     vdW  Elec       q    Type
REMARK                         _______ _______ _______ _____ _____    ______ ____
ROOT
ATOM      1  N   UNL     1       2.103   7.799  19.141  0.00  0.00    +0.000 N 
ATOM      2  C   UNL     1       2.811   8.060  17.992  0.00  0.00    +0.000 A 
ATOM      3  C   UNL     1       3.280   6.863  17.471  0.00  0.00    +0.000 A 
ATOM      4  C   UNL     1       2.750   5.816  18.306  0.00  0.00    +0.000 A 
ATOM      5  C   UNL     1       2.835   4.398  18.356  0.00  0.00    +0.000 A 
ATOM      6 CL   UNL     1       3.763   3.565  17.184  0.00  0.00    +0.000 Cl
ATOM      7  C   UNL     1       2.193   3.651  19.345  0.00  0.00    +0.000 A 
ATOM      8  C   UNL     1       1.449   4.294  20.313  0.00  0.00    +0.000 A 
ATOM      9  C   UNL     1       1.342   5.688  20.320  0.00  0.00    +0.000 A 
ATOM     10  C   UNL     1       1.999   6.432  19.319  0.00  0.00    +0.000 A 
ENDROOT
BRANCH   1  15
ATOM     11  C   UNL     1       0.148  10.688  20.718  0.00  0.00    +0.000 C 
ATOM     12  C   UNL     1      -0.054  10.010  22.080  0.00  0.00    +0.000 C 
ATOM     13  C   UNL     1       1.136   9.107  22.410  0.00  0.00    +0.000 C 
ATOM     14  O   UNL     1       1.372   8.153  21.373  0.00  0.00    +0.000 OA
ATOM     15  C   UNL     1       1.682   8.800  20.126  0.00  0.00    +0.000 C 
ATOM     16  C   UNL     1       0.500   9.663  19.628  0.00  0.00    +0.000 C 
BRANCH  11  17
ATOM     17  O   UNL     1      -1.032  11.418  20.367  0.00  0.00    +0.000 OA
ATOM     18  H   UNL     1      -1.514  11.599  21.198  0.00  0.00    +0.000 HD
ENDBRANCH  11  17
BRANCH  12  19
ATOM     19  O   UNL     1      -0.253  11.013  23.080  0.00  0.00    +0.000 OA
ATOM     20  H   UNL     1      -0.750  10.631  23.824  0.00  0.00    +0.000 HD
ENDBRANCH  12  19
BRANCH  16  21
ATOM     21  O   UNL     1       0.812  10.336  18.398  0.00  0.00    +0.000 OA
ATOM     22  H   UNL     1       0.427  11.227  18.406  0.00  0.00    +0.000 HD
ENDBRANCH  16  21
ENDBRANCH   1  15
BRANCH   3  23
ATOM     23  C   UNL     1       4.227   6.718  16.312  0.00  0.00    +0.000 C 
BRANCH  23  24
ATOM     24  C   UNL     1       5.507   6.089  16.813  0.00  0.00    +0.000 A 
ATOM     25  C   UNL     1       5.950   6.317  18.127  0.00  0.00    +0.000 A 
ATOM     26  C   UNL     1       7.071   5.649  18.621  0.00  0.00    +0.000 A 
ATOM     27  C   UNL     1       7.751   4.747  17.817  0.00  0.00    +0.000 A 
ATOM     28  F   UNL     1       8.806   4.084  18.310  0.00  0.00    +0.000 F 
ATOM     29  C   UNL     1       7.345   4.515  16.511  0.00  0.00    +0.000 A 
ATOM     30  C   UNL     1       6.221   5.179  16.010  0.00  0.00    +0.000 A 
ENDBRANCH  23  24
ENDBRANCH   3  23
TORSDOF 6
ENDMDL
