MODEL 1
REMARK VINA RESULT:      -7.0      0.000      0.000
REMARK  Name = 
REMARK  9 active torsions:
REMARK  status: ('A' for Active; 'I' for Inactive)
REMARK    1  A    between atoms: C_1  and  O_2
REMARK    2  A    between atoms: O_2  and  C_3
REMARK    3  A    between atoms: C_5  and  C_6
REMARK    4  A    between atoms: N_11  and  C_12
REMARK    5  A    between atoms: C_15  and  C_16
REMARK    6  A    between atoms: C_20  and  O_21
REMARK    7  A    between atoms: O_21  and  C_22
REMARK    8  A    between atoms: C_23  and  O_24
REMARK    9  A    between atoms: O_24  and  C_25
REMARK                            x       y       z     vdW  Elec       q    Type
REMARK                         _______ _______ _______ _____ _____    ______ ____
ROOT
ATOM      1  C   UNL     1       2.326   4.028  19.702  0.00  0.00    +0.000 C 
ATOM      2  S   UNL     1       1.597   3.410  21.246  0.00  0.00    +0.000 S 
ATOM      3  C   UNL     1       2.887   2.188  21.493  0.00  0.00    +0.000 C 
ATOM      4  C   UNL     1       4.004   2.495  20.525  0.00  0.00    +0.000 C 
ATOM      5  O   UNL     1       5.029   1.818  20.518  0.00  0.00    +0.000 OA
ATOM      6  N   UNL     1       3.700   3.552  19.659  0.00  0.00    +0.000 N 
ENDROOT
BRANCH   6   7
ATOM      7  C   UNL     1       4.592   3.895  18.598  0.00  0.00    +0.000 A 
ATOM      8  C   UNL     1       5.749   4.649  18.817  0.00  0.00    +0.000 A 
ATOM      9  C   UNL     1       6.585   5.001  17.748  0.00  0.00    +0.000 A 
ATOM     10  C   UNL     1       6.294   4.581  16.447  0.00  0.00    +0.000 A 
ATOM     11  C   UNL     1       7.184   4.941  15.294  0.00  0.00    +0.000 C 
ATOM     12  C   UNL     1       5.152   3.809  16.227  0.00  0.00    +0.000 A 
ATOM     13  C   UNL     1       4.306   3.480  17.291  0.00  0.00    +0.000 A 
ENDBRANCH   6   7
BRANCH   1  16
ATOM     14  C   UNL     1       1.562   7.718  20.539  0.00  0.00    +0.000 A 
ATOM     15  C   UNL     1       1.621   6.314  20.625  0.00  0.00    +0.000 A 
ATOM     16  C   UNL     1       2.163   5.537  19.591  0.00  0.00    +0.000 A 
ATOM     17  C   UNL     1       2.570   6.201  18.436  0.00  0.00    +0.000 A 
ATOM     18  C   UNL     1       2.448   7.595  18.291  0.00  0.00    +0.000 A 
ATOM     19  C   UNL     1       1.937   8.376  19.346  0.00  0.00    +0.000 A 
BRANCH  14  21
ATOM     20  C   UNL     1      -0.310   8.574  21.707  0.00  0.00    +0.000 C 
ATOM     21  O   UNL     1       1.110   8.452  21.608  0.00  0.00    +0.000 OA
ENDBRANCH  14  21
BRANCH  18  22
ATOM     22  O   UNL     1       2.911   7.998  17.061  0.00  0.00    +0.000 OA
ATOM     23  C   UNL     1       4.105   7.435  16.540  0.00  0.00    +0.000 C 
ENDBRANCH  18  22
BRANCH  19  24
ATOM     24  O   UNL     1       1.871   9.723  19.107  0.00  0.00    +0.000 OA
ATOM     25  C   UNL     1       0.708  10.339  18.581  0.00  0.00    +0.000 C 
ENDBRANCH  19  24
ENDBRANCH   1  16
TORSDOF 5
ENDMDL
MODEL 2
REMARK VINA RESULT:      -6.4      0.411      2.555
REMARK  Name = 
REMARK  9 active torsions:
REMARK  status: ('A' for Active; 'I' for Inactive)
REMARK    1  A    between atoms: C_1  and  O_2
REMARK    2  A    between atoms: O_2  and  C_3
REMARK    3  A    between atoms: C_5  and  C_6
REMARK    4  A    between atoms: N_11  and  C_12
REMARK    5  A    between atoms: C_15  and  C_16
REMARK    6  A    between atoms: C_20  and  O_21
REMARK    7  A    between atoms: O_21  and  C_22
REMARK    8  A    between atoms: C_23  and  O_24
REMARK    9  A    between atoms: O_24  and  C_25
REMARK                            x       y       z     vdW  Elec       q    Type
REMARK                         _______ _______ _______ _____ _____    ______ ____
ROOT
ATOM      1  C   UNL     1       2.373   4.027  19.713  0.00  0.00    +0.000 C 
ATOM      2  S   UNL     1       1.678   3.464  21.294  0.00  0.00    +0.000 S 
ATOM      3  C   UNL     1       2.956   2.229  21.539  0.00  0.00    +0.000 C 
ATOM      4  C   UNL     1       4.050   2.490  20.532  0.00  0.00    +0.000 C 
ATOM      5  O   UNL     1       5.063   1.797  20.515  0.00  0.00    +0.000 OA
ATOM      6  N   UNL     1       3.737   3.527  19.646  0.00  0.00    +0.000 N 
ENDROOT
BRANCH   6   7
ATOM      7  C   UNL     1       4.604   3.826  18.551  0.00  0.00    +0.000 A 
ATOM      8  C   UNL     1       5.803   4.525  18.723  0.00  0.00    +0.000 A 
ATOM      9  C   UNL     1       6.614   4.835  17.623  0.00  0.00    +0.000 A 
ATOM     10  C   UNL     1       6.255   4.428  16.335  0.00  0.00    +0.000 A 
ATOM     11  C   UNL     1       7.117   4.743  15.149  0.00  0.00    +0.000 C 
ATOM     12  C   UNL     1       5.070   3.710  16.161  0.00  0.00    +0.000 A 
ATOM     13  C   UNL     1       4.250   3.424  17.256  0.00  0.00    +0.000 A 
ENDBRANCH   6   7
BRANCH   1  16
ATOM     14  C   UNL     1       2.530   7.617  18.303  0.00  0.00    +0.000 A 
ATOM     15  C   UNL     1       2.752   6.236  18.468  0.00  0.00    +0.000 A 
ATOM     16  C   UNL     1       2.230   5.536  19.564  0.00  0.00    +0.000 A 
ATOM     17  C   UNL     1       1.549   6.271  20.531  0.00  0.00    +0.000 A 
ATOM     18  C   UNL     1       1.382   7.665  20.432  0.00  0.00    +0.000 A 
ATOM     19  C   UNL     1       1.876   8.361  19.311  0.00  0.00    +0.000 A 
BRANCH  14  21
ATOM     20  C   UNL     1       4.133   7.673  16.562  0.00  0.00    +0.000 C 
ATOM     21  O   UNL     1       2.977   8.252  17.171  0.00  0.00    +0.000 OA
ENDBRANCH  14  21
BRANCH  18  22
ATOM     22  O   UNL     1       0.687   8.149  21.514  0.00  0.00    +0.000 OA
ATOM     23  C   UNL     1       1.300   9.092  22.379  0.00  0.00    +0.000 C 
ENDBRANCH  18  22
BRANCH  19  24
ATOM     24  O   UNL     1       1.651   9.712  19.307  0.00  0.00    +0.000 OA
ATOM     25  C   UNL     1       0.503  10.282  18.705  0.00  0.00    +0.000 C 
ENDBRANCH  19  24
ENDBRANCH   1  16
TORSDOF 5
ENDMDL
MODEL 3
REMARK VINA RESULT:      -6.4      2.907      4.365
REMARK  Name = 
REMARK  9 active torsions:
REMARK  status: ('A' for Active; 'I' for Inactive)
REMARK    1  A    between atoms: C_1  and  O_2
REMARK    2  A    between atoms: O_2  and  C_3
REMARK    3  A    between atoms: C_5  and  C_6
REMARK    4  A    between atoms: N_11  and  C_12
REMARK    5  A    between atoms: C_15  and  C_16
REMARK    6  A    between atoms: C_20  and  O_21
REMARK    7  A    between atoms: O_21  and  C_22
REMARK    8  A    between atoms: C_23  and  O_24
REMARK    9  A    between atoms: O_24  and  C_25
REMARK                            x       y       z     vdW  Elec       q    Type
REMARK                         _______ _______ _______ _____ _____    ______ ____
ROOT
ATOM      1  C   UNL     1       4.810   5.674  16.678  0.00  0.00    +0.000 C 
ATOM      2  S   UNL     1       4.228   4.054  16.100  0.00  0.00    +0.000 S 
ATOM      3  C   UNL     1       5.891   3.421  15.865  0.00  0.00    +0.000 C 
ATOM      4  C   UNL     1       6.848   4.384  16.522  0.00  0.00    +0.000 C 
ATOM      5  O   UNL     1       8.055   4.158  16.531  0.00  0.00    +0.000 OA
ATOM      6  N   UNL     1       6.212   5.522  17.033  0.00  0.00    +0.000 N 
ENDROOT
BRANCH   6   7
ATOM      7  C   UNL     1       6.981   6.595  17.577  0.00  0.00    +0.000 A 
ATOM      8  C   UNL     1       7.806   6.425  18.693  0.00  0.00    +0.000 A 
ATOM      9  C   UNL     1       8.520   7.507  19.226  0.00  0.00    +0.000 A 
ATOM     10  C   UNL     1       8.443   8.772  18.636  0.00  0.00    +0.000 A 
ATOM     11  C   UNL     1       9.208   9.938  19.188  0.00  0.00    +0.000 C 
ATOM     12  C   UNL     1       7.638   8.942  17.507  0.00  0.00    +0.000 A 
ATOM     13  C   UNL     1       6.908   7.867  16.993  0.00  0.00    +0.000 A 
ENDBRANCH   6   7
BRANCH   1  16
ATOM     14  C   UNL     1       2.486   7.944  18.763  0.00  0.00    +0.000 A 
ATOM     15  C   UNL     1       3.383   7.503  17.771  0.00  0.00    +0.000 A 
ATOM     16  C   UNL     1       3.917   6.206  17.790  0.00  0.00    +0.000 A 
ATOM     17  C   UNL     1       3.590   5.393  18.873  0.00  0.00    +0.000 A 
ATOM     18  C   UNL     1       2.761   5.837  19.919  0.00  0.00    +0.000 A 
ATOM     19  C   UNL     1       2.197   7.127  19.879  0.00  0.00    +0.000 A 
BRANCH  14  21
ATOM     20  C   UNL     1       0.815   9.280  17.750  0.00  0.00    +0.000 C 
ATOM     21  O   UNL     1       1.911   9.187  18.662  0.00  0.00    +0.000 OA
ENDBRANCH  14  21
BRANCH  18  22
ATOM     22  O   UNL     1       2.603   4.852  20.865  0.00  0.00    +0.000 OA
ATOM     23  C   UNL     1       1.557   3.903  20.724  0.00  0.00    +0.000 C 
ENDBRANCH  18  22
BRANCH  19  24
ATOM     24  O   UNL     1       1.395   7.456  20.940  0.00  0.00    +0.000 OA
ATOM     25  C   UNL     1       1.409   8.747  21.522  0.00  0.00    +0.000 C 
ENDBRANCH  19  24
ENDBRANCH   1  16
TORSDOF 5
ENDMDL
MODEL 4
REMARK VINA RESULT:      -6.4      2.725      5.807
REMARK  Name = 
REMARK  9 active torsions:
REMARK  status: ('A' for Active; 'I' for Inactive)
REMARK    1  A    between atoms: C_1  and  O_2
REMARK    2  A    between atoms: O_2  and  C_3
REMARK    3  A    between atoms: C_5  and  C_6
REMARK    4  A    between atoms: N_11  and  C_12
REMARK    5  A    between atoms: C_15  and  C_16
REMARK    6  A    between atoms: C_20  and  O_21
REMARK    7  A    between atoms: O_21  and  C_22
REMARK    8  A    between atoms: C_23  and  O_24
REMARK    9  A    between atoms: O_24  and  C_25
REMARK                            x       y       z     vdW  Elec       q    Type
REMARK                         _______ _______ _______ _____ _____    ______ ____
ROOT
ATOM      1  C   UNL     1       3.849   3.437  18.953  0.00  0.00    +0.000 C 
ATOM      2  S   UNL     1       3.801   1.812  18.141  0.00  0.00    +0.000 S 
ATOM      3  C   UNL     1       2.015   1.686  18.258  0.00  0.00    +0.000 C 
ATOM      4  C   UNL     1       1.482   3.041  18.658  0.00  0.00    +0.000 C 
ATOM      5  O   UNL     1       0.274   3.228  18.773  0.00  0.00    +0.000 OA
ATOM      6  N   UNL     1       2.496   3.970  18.918  0.00  0.00    +0.000 N 
ENDROOT
BRANCH   6   7
ATOM      7  C   UNL     1       2.175   5.264  19.428  0.00  0.00    +0.000 A 
ATOM      8  C   UNL     1       1.667   5.447  20.719  0.00  0.00    +0.000 A 
ATOM      9  C   UNL     1       1.327   6.727  21.178  0.00  0.00    +0.000 A 
ATOM     10  C   UNL     1       1.515   7.850  20.367  0.00  0.00    +0.000 A 
ATOM     11  C   UNL     1       1.165   9.227  20.847  0.00  0.00    +0.000 C 
ATOM     12  C   UNL     1       2.043   7.674  19.086  0.00  0.00    +0.000 A 
ATOM     13  C   UNL     1       2.358   6.394  18.621  0.00  0.00    +0.000 A 
ENDBRANCH   6   7
BRANCH   1  16
ATOM     14  C   UNL     1       5.888   5.487  16.396  0.00  0.00    +0.000 A 
ATOM     15  C   UNL     1       4.954   4.588  16.946  0.00  0.00    +0.000 A 
ATOM     16  C   UNL     1       4.911   4.327  18.323  0.00  0.00    +0.000 A 
ATOM     17  C   UNL     1       5.880   4.930  19.122  0.00  0.00    +0.000 A 
ATOM     18  C   UNL     1       6.875   5.768  18.587  0.00  0.00    +0.000 A 
ATOM     19  C   UNL     1       6.894   6.057  17.208  0.00  0.00    +0.000 A 
BRANCH  14  21
ATOM     20  C   UNL     1       6.506   4.859  14.200  0.00  0.00    +0.000 C 
ATOM     21  O   UNL     1       5.842   5.789  15.058  0.00  0.00    +0.000 OA
ENDBRANCH  14  21
BRANCH  18  22
ATOM     22  O   UNL     1       7.710   6.225  19.579  0.00  0.00    +0.000 OA
ATOM     23  C   UNL     1       8.456   5.298  20.352  0.00  0.00    +0.000 C 
ENDBRANCH  18  22
BRANCH  19  24
ATOM     24  O   UNL     1       7.896   6.893  16.793  0.00  0.00    +0.000 OA
ATOM     25  C   UNL     1       8.014   8.222  17.268  0.00  0.00    +0.000 C 
ENDBRANCH  19  24
ENDBRANCH   1  16
TORSDOF 5
ENDMDL
MODEL 5
REMARK VINA RESULT:      -6.2      2.936      4.466
REMARK  Name = 
REMARK  9 active torsions:
REMARK  status: ('A' for Active; 'I' for Inactive)
REMARK    1  A    between atoms: C_1  and  O_2
REMARK    2  A    between atoms: O_2  and  C_3
REMARK    3  A    between atoms: C_5  and  C_6
REMARK    4  A    between atoms: N_11  and  C_12
REMARK    5  A    between atoms: C_15  and  C_16
REMARK    6  A    between atoms: C_20  and  O_21
REMARK    7  A    between atoms: O_21  and  C_22
REMARK    8  A    between atoms: C_23  and  O_24
REMARK    9  A    between atoms: O_24  and  C_25
REMARK                            x       y       z     vdW  Elec       q    Type
REMARK                         _______ _______ _______ _____ _____    ______ ____
ROOT
ATOM      1  C   UNL     1       4.756   5.754  16.589  0.00  0.00    +0.000 C 
ATOM      2  S   UNL     1       4.211   4.133  15.975  0.00  0.00    +0.000 S 
ATOM      3  C   UNL     1       5.886   3.549  15.711  0.00  0.00    +0.000 C 
ATOM      4  C   UNL     1       6.825   4.521  16.384  0.00  0.00    +0.000 C 
ATOM      5  O   UNL     1       8.037   4.325  16.377  0.00  0.00    +0.000 OA
ATOM      6  N   UNL     1       6.165   5.628  16.928  0.00  0.00    +0.000 N 
ENDROOT
BRANCH   6   7
ATOM      7  C   UNL     1       6.911   6.708  17.492  0.00  0.00    +0.000 A 
ATOM      8  C   UNL     1       6.850   8.004  16.970  0.00  0.00    +0.000 A 
ATOM      9  C   UNL     1       7.622   9.034  17.523  0.00  0.00    +0.000 A 
ATOM     10  C   UNL     1       8.448   8.794  18.625  0.00  0.00    +0.000 A 
ATOM     11  C   UNL     1       9.273   9.888  19.235  0.00  0.00    +0.000 C 
ATOM     12  C   UNL     1       8.494   7.507  19.164  0.00  0.00    +0.000 A 
ATOM     13  C   UNL     1       7.743   6.475  18.594  0.00  0.00    +0.000 A 
ENDBRANCH   6   7
BRANCH   1  16
ATOM     14  C   UNL     1       2.358   7.892  18.728  0.00  0.00    +0.000 A 
ATOM     15  C   UNL     1       3.256   7.501  17.716  0.00  0.00    +0.000 A 
ATOM     16  C   UNL     1       3.860   6.235  17.721  0.00  0.00    +0.000 A 
ATOM     17  C   UNL     1       3.601   5.405  18.809  0.00  0.00    +0.000 A 
ATOM     18  C   UNL     1       2.772   5.801  19.874  0.00  0.00    +0.000 A 
ATOM     19  C   UNL     1       2.138   7.059  19.848  0.00  0.00    +0.000 A 
BRANCH  14  21
ATOM     20  C   UNL     1       2.365  10.082  17.832  0.00  0.00    +0.000 C 
ATOM     21  O   UNL     1       1.714   9.101  18.643  0.00  0.00    +0.000 OA
ENDBRANCH  14  21
BRANCH  18  22
ATOM     22  O   UNL     1       2.688   4.809  20.820  0.00  0.00    +0.000 OA
ATOM     23  C   UNL     1       2.897   3.457  20.442  0.00  0.00    +0.000 C 
ENDBRANCH  18  22
BRANCH  19  24
ATOM     24  O   UNL     1       1.343   7.343  20.927  0.00  0.00    +0.000 OA
ATOM     25  C   UNL     1       1.417   8.581  21.612  0.00  0.00    +0.000 C 
ENDBRANCH  19  24
ENDBRANCH   1  16
TORSDOF 5
ENDMDL
MODEL 6
REMARK VINA RESULT:      -6.2      2.471      5.787
REMARK  Name = 
REMARK  9 active torsions:
REMARK  status: ('A' for Active; 'I' for Inactive)
REMARK    1  A    between atoms: C_1  and  O_2
REMARK    2  A    between atoms: O_2  and  C_3
REMARK    3  A    between atoms: C_5  and  C_6
REMARK    4  A    between atoms: N_11  and  C_12
REMARK    5  A    between atoms: C_15  and  C_16
REMARK    6  A    between atoms: C_20  and  O_21
REMARK    7  A    between atoms: O_21  and  C_22
REMARK    8  A    between atoms: C_23  and  O_24
REMARK    9  A    between atoms: O_24  and  C_25
REMARK                            x       y       z     vdW  Elec       q    Type
REMARK                         _______ _______ _______ _____ _____    ______ ____
ROOT
ATOM      1  C   UNL     1       4.217   4.201  19.684  0.00  0.00    +0.000 C 
ATOM      2  S   UNL     1       4.176   2.411  19.988  0.00  0.00    +0.000 S 
ATOM      3  C   UNL     1       2.424   2.407  20.371  0.00  0.00    +0.000 C 
ATOM      4  C   UNL     1       1.860   3.747  19.965  0.00  0.00    +0.000 C 
ATOM      5  O   UNL     1       0.662   3.987  20.094  0.00  0.00    +0.000 OA
ATOM      6  N   UNL     1       2.840   4.635  19.507  0.00  0.00    +0.000 N 
ENDROOT
BRANCH   6   7
ATOM      7  C   UNL     1       2.502   5.987  19.199  0.00  0.00    +0.000 A 
ATOM      8  C   UNL     1       2.536   6.481  17.891  0.00  0.00    +0.000 A 
ATOM      9  C   UNL     1       2.234   7.824  17.626  0.00  0.00    +0.000 A 
ATOM     10  C   UNL     1       1.865   8.690  18.659  0.00  0.00    +0.000 A 
ATOM     11  C   UNL     1       1.530  10.127  18.391  0.00  0.00    +0.000 C 
ATOM     12  C   UNL     1       1.808   8.196  19.964  0.00  0.00    +0.000 A 
ATOM     13  C   UNL     1       2.134   6.862  20.230  0.00  0.00    +0.000 A 
ENDBRANCH   6   7
BRANCH   1  16
ATOM     14  C   UNL     1       5.911   4.246  16.215  0.00  0.00    +0.000 A 
ATOM     15  C   UNL     1       5.100   3.861  17.300  0.00  0.00    +0.000 A 
ATOM     16  C   UNL     1       5.152   4.534  18.529  0.00  0.00    +0.000 A 
ATOM     17  C   UNL     1       6.096   5.549  18.665  0.00  0.00    +0.000 A 
ATOM     18  C   UNL     1       6.974   5.900  17.624  0.00  0.00    +0.000 A 
ATOM     19  C   UNL     1       6.895   5.247  16.378  0.00  0.00    +0.000 A 
BRANCH  14  21
ATOM     20  C   UNL     1       4.824   4.230  14.112  0.00  0.00    +0.000 C 
ATOM     21  O   UNL     1       5.767   3.625  14.999  0.00  0.00    +0.000 OA
ENDBRANCH  14  21
BRANCH  18  22
ATOM     22  O   UNL     1       7.808   6.920  18.014  0.00  0.00    +0.000 OA
ATOM     23  C   UNL     1       7.557   8.244  17.569  0.00  0.00    +0.000 C 
ENDBRANCH  18  22
BRANCH  19  24
ATOM     24  O   UNL     1       7.786   5.671  15.429  0.00  0.00    +0.000 OA
ATOM     25  C   UNL     1       7.694   5.266  14.075  0.00  0.00    +0.000 C 
ENDBRANCH  19  24
ENDBRANCH   1  16
TORSDOF 5
ENDMDL
MODEL 7
REMARK VINA RESULT:      -6.2      2.509      5.630
REMARK  Name = 
REMARK  9 active torsions:
REMARK  status: ('A' for Active; 'I' for Inactive)
REMARK    1  A    between atoms: C_1  and  O_2
REMARK    2  A    between atoms: O_2  and  C_3
REMARK    3  A    between atoms: C_5  and  C_6
REMARK    4  A    between atoms: N_11  and  C_12
REMARK    5  A    between atoms: C_15  and  C_16
REMARK    6  A    between atoms: C_20  and  O_21
REMARK    7  A    between atoms: O_21  and  C_22
REMARK    8  A    between atoms: C_23  and  O_24
REMARK    9  A    between atoms: O_24  and  C_25
REMARK                            x       y       z     vdW  Elec       q    Type
REMARK                         _______ _______ _______ _____ _____    ______ ____
ROOT
ATOM      1  C   UNL     1       4.130   4.172  19.634  0.00  0.00    +0.000 C 
ATOM      2  S   UNL     1       4.074   2.368  19.842  0.00  0.00    +0.000 S 
ATOM      3  C   UNL     1       2.304   2.348  20.134  0.00  0.00    +0.000 C 
ATOM      4  C   UNL     1       1.761   3.708  19.769  0.00  0.00    +0.000 C 
ATOM      5  O   UNL     1       0.558   3.943  19.848  0.00  0.00    +0.000 OA
ATOM      6  N   UNL     1       2.763   4.616  19.410  0.00  0.00    +0.000 N 
ENDROOT
BRANCH   6   7
ATOM      7  C   UNL     1       2.440   5.984  19.156  0.00  0.00    +0.000 A 
ATOM      8  C   UNL     1       2.474   6.527  17.868  0.00  0.00    +0.000 A 
ATOM      9  C   UNL     1       2.188   7.883  17.655  0.00  0.00    +0.000 A 
ATOM     10  C   UNL     1       1.835   8.713  18.723  0.00  0.00    +0.000 A 
ATOM     11  C   UNL     1       1.515  10.163  18.512  0.00  0.00    +0.000 C 
ATOM     12  C   UNL     1       1.777   8.169  20.008  0.00  0.00    +0.000 A 
ATOM     13  C   UNL     1       2.088   6.823  20.221  0.00  0.00    +0.000 A 
ENDBRANCH   6   7
BRANCH   1  16
ATOM     14  C   UNL     1       7.026   5.881  17.739  0.00  0.00    +0.000 A 
ATOM     15  C   UNL     1       6.056   5.596  18.719  0.00  0.00    +0.000 A 
ATOM     16  C   UNL     1       5.123   4.563  18.549  0.00  0.00    +0.000 A 
ATOM     17  C   UNL     1       5.138   3.878  17.336  0.00  0.00    +0.000 A 
ATOM     18  C   UNL     1       6.044   4.196  16.308  0.00  0.00    +0.000 A 
ATOM     19  C   UNL     1       7.003   5.210  16.496  0.00  0.00    +0.000 A 
BRANCH  14  21
ATOM     20  C   UNL     1       7.628   8.165  17.581  0.00  0.00    +0.000 C 
ATOM     21  O   UNL     1       7.980   6.838  17.979  0.00  0.00    +0.000 OA
ENDBRANCH  14  21
BRANCH  18  22
ATOM     22  O   UNL     1       5.846   3.383  15.218  0.00  0.00    +0.000 OA
ATOM     23  C   UNL     1       5.055   3.841  14.133  0.00  0.00    +0.000 C 
ENDBRANCH  18  22
BRANCH  19  24
ATOM     24  O   UNL     1       7.844   5.433  15.438  0.00  0.00    +0.000 OA
ATOM     25  C   UNL     1       7.359   5.704  14.134  0.00  0.00    +0.000 C 
ENDBRANCH  19  24
ENDBRANCH   1  16
TORSDOF 5
ENDMDL
MODEL 8
REMARK VINA RESULT:      -6.1      2.637      5.957
REMARK  Name = 
REMARK  9 active torsions:
REMARK  status: ('A' for Active; 'I' for Inactive)
REMARK    1  A    between atoms: C_1  and  O_2
REMARK    2  A    between atoms: O_2  and  C_3
REMARK    3  A    between atoms: C_5  and  C_6
REMARK    4  A    between atoms: N_11  and  C_12
REMARK    5  A    between atoms: C_15  and  C_16
REMARK    6  A    between atoms: C_20  and  O_21
REMARK    7  A    between atoms: O_21  and  C_22
REMARK    8  A    between atoms: C_23  and  O_24
REMARK    9  A    between atoms: O_24  and  C_25
REMARK                            x       y       z     vdW  Elec       q    Type
REMARK                         _______ _______ _______ _____ _____    ______ ____
ROOT
ATOM      1  C   UNL     1       3.923   3.496  18.816  0.00  0.00    +0.000 C 
ATOM      2  S   UNL     1       3.719   1.704  18.599  0.00  0.00    +0.000 S 
ATOM      3  C   UNL     1       1.991   1.734  19.080  0.00  0.00    +0.000 C 
ATOM      4  C   UNL     1       1.545   3.176  19.111  0.00  0.00    +0.000 C 
ATOM      5  O   UNL     1       0.382   3.465  19.381  0.00  0.00    +0.000 OA
ATOM      6  N   UNL     1       2.589   4.074  18.862  0.00  0.00    +0.000 N 
ENDROOT
BRANCH   6   7
ATOM      7  C   UNL     1       2.372   5.481  18.976  0.00  0.00    +0.000 A 
ATOM      8  C   UNL     1       2.127   6.096  20.207  0.00  0.00    +0.000 A 
ATOM      9  C   UNL     1       1.882   7.475  20.282  0.00  0.00    +0.000 A 
ATOM     10  C   UNL     1       1.906   8.266  19.130  0.00  0.00    +0.000 A 
ATOM     11  C   UNL     1       1.655   9.744  19.194  0.00  0.00    +0.000 C 
ATOM     12  C   UNL     1       2.173   7.660  17.901  0.00  0.00    +0.000 A 
ATOM     13  C   UNL     1       2.392   6.281  17.826  0.00  0.00    +0.000 A 
ENDBRANCH   6   7
BRANCH   1  16
ATOM     14  C   UNL     1       5.382   4.561  15.404  0.00  0.00    +0.000 A 
ATOM     15  C   UNL     1       4.571   3.943  16.376  0.00  0.00    +0.000 A 
ATOM     16  C   UNL     1       4.839   4.072  17.746  0.00  0.00    +0.000 A 
ATOM     17  C   UNL     1       5.988   4.770  18.112  0.00  0.00    +0.000 A 
ATOM     18  C   UNL     1       6.860   5.329  17.159  0.00  0.00    +0.000 A 
ATOM     19  C   UNL     1       6.568   5.228  15.785  0.00  0.00    +0.000 A 
BRANCH  14  21
ATOM     20  C   UNL     1       5.516   3.336  13.384  0.00  0.00    +0.000 C 
ATOM     21  O   UNL     1       5.037   4.490  14.078  0.00  0.00    +0.000 OA
ENDBRANCH  14  21
BRANCH  18  22
ATOM     22  O   UNL     1       7.917   5.953  17.776  0.00  0.00    +0.000 OA
ATOM     23  C   UNL     1       8.035   5.905  19.189  0.00  0.00    +0.000 C 
ENDBRANCH  18  22
BRANCH  19  24
ATOM     24  O   UNL     1       7.474   5.816  14.943  0.00  0.00    +0.000 OA
ATOM     25  C   UNL     1       7.976   5.153  13.796  0.00  0.00    +0.000 C 
ENDBRANCH  19  24
ENDBRANCH   1  16
TORSDOF 5
ENDMDL
MODEL 9
REMARK VINA RESULT:      -6.0      2.500      6.142
REMARK  Name = 
REMARK  9 active torsions:
REMARK  status: ('A' for Active; 'I' for Inactive)
REMARK    1  A    between atoms: C_1  and  O_2
REMARK    2  A    between atoms: O_2  and  C_3
REMARK    3  A    between atoms: C_5  and  C_6
REMARK    4  A    between atoms: N_11  and  C_12
REMARK    5  A    between atoms: C_15  and  C_16
REMARK    6  A    between atoms: C_20  and  O_21
REMARK    7  A    between atoms: O_21  and  C_22
REMARK    8  A    between atoms: C_23  and  O_24
REMARK    9  A    between atoms: O_24  and  C_25
REMARK                            x       y       z     vdW  Elec       q    Type
REMARK                         _______ _______ _______ _____ _____    ______ ____
ROOT
ATOM      1  C   UNL     1       2.139   7.262  18.204  0.00  0.00    +0.000 C 
ATOM      2  S   UNL     1       2.208   9.062  17.970  0.00  0.00    +0.000 S 
ATOM      3  C   UNL     1       1.418   9.405  19.544  0.00  0.00    +0.000 C 
ATOM      4  C   UNL     1       1.391   8.120  20.336  0.00  0.00    +0.000 C 
ATOM      5  O   UNL     1       0.927   8.096  21.473  0.00  0.00    +0.000 OA
ATOM      6  N   UNL     1       1.881   7.025  19.615  0.00  0.00    +0.000 N 
ENDROOT
BRANCH   6   7
ATOM      7  C   UNL     1       1.813   5.710  20.166  0.00  0.00    +0.000 A 
ATOM      8  C   UNL     1       0.835   4.790  19.773  0.00  0.00    +0.000 A 
ATOM      9  C   UNL     1       0.772   3.519  20.359  0.00  0.00    +0.000 A 
ATOM     10  C   UNL     1       1.702   3.133  21.329  0.00  0.00    +0.000 A 
ATOM     11  C   UNL     1       1.654   1.773  21.958  0.00  0.00    +0.000 C 
ATOM     12  C   UNL     1       2.694   4.040  21.708  0.00  0.00    +0.000 A 
ATOM     13  C   UNL     1       2.740   5.316  21.141  0.00  0.00    +0.000 A 
ENDBRANCH   6   7
BRANCH   1  16
ATOM     14  C   UNL     1       5.721   6.677  16.889  0.00  0.00    +0.000 A 
ATOM     15  C   UNL     1       4.541   7.321  17.307  0.00  0.00    +0.000 A 
ATOM     16  C   UNL     1       3.393   6.595  17.656  0.00  0.00    +0.000 A 
ATOM     17  C   UNL     1       3.436   5.212  17.496  0.00  0.00    +0.000 A 
ATOM     18  C   UNL     1       4.575   4.550  17.003  0.00  0.00    +0.000 A 
ATOM     19  C   UNL     1       5.739   5.278  16.688  0.00  0.00    +0.000 A 
BRANCH  14  21
ATOM     20  C   UNL     1       7.716   7.599  17.769  0.00  0.00    +0.000 C 
ATOM     21  O   UNL     1       6.854   7.414  16.645  0.00  0.00    +0.000 OA
ENDBRANCH  14  21
BRANCH  18  22
ATOM     22  O   UNL     1       4.357   3.195  16.933  0.00  0.00    +0.000 OA
ATOM     23  C   UNL     1       3.682   2.535  17.993  0.00  0.00    +0.000 C 
ENDBRANCH  18  22
BRANCH  19  24
ATOM     24  O   UNL     1       6.794   4.538  16.228  0.00  0.00    +0.000 OA
ATOM     25  C   UNL     1       7.065   4.391  14.845  0.00  0.00    +0.000 C 
ENDBRANCH  19  24
ENDBRANCH   1  16
TORSDOF 5
ENDMDL
