MODEL 1
REMARK VINA RESULT:      -7.5      0.000      0.000
REMARK  Name = 
REMARK  12 active torsions:
REMARK  status: ('A' for Active; 'I' for Inactive)
REMARK    1  A    between atoms: C_1  and  O_2
REMARK    2  A    between atoms: O_2  and  C_3
REMARK    3  A    between atoms: C_6  and  C_7
REMARK    4  A    between atoms: C_10  and  O_11
REMARK    5  A    between atoms: O_11  and  C_12
REMARK    6  A    between atoms: C_12  and  C_13
REMARK    7  A    between atoms: C_15  and  C_16
REMARK    8  A    between atoms: N_18  and  S_19
REMARK    9  A    between atoms: S_19  and  N_22
REMARK   10  A    between atoms: N_22  and  C_23
REMARK   11  A    between atoms: N_22  and  C_24
REMARK   12  A    between atoms: C_26  and  C_27
REMARK                            x       y       z     vdW  Elec       q    Type
REMARK                         _______ _______ _______ _____ _____    ______ ____
ROOT
ATOM      1  C   UNL     1       4.768   4.146  19.041  0.00  0.00    +0.000 C 
ENDROOT
BRANCH   1   2
ATOM      2  C   UNL     1       5.703   4.444  17.920  0.00  0.00    +0.000 A 
ATOM      3  C   UNL     1       5.520   4.152  16.542  0.00  0.00    +0.000 A 
ATOM      4  C   UNL     1       6.614   4.663  15.870  0.00  0.00    +0.000 A 
ATOM      5  O   UNL     1       7.460   5.267  16.764  0.00  0.00    +0.000 OA
ATOM      6  C   UNL     1       6.906   5.120  18.000  0.00  0.00    +0.000 A 
ATOM      7  C   UNL     1       7.647   5.693  19.146  0.00  0.00    +0.000 C 
BRANCH   4   8
ATOM      8  C   UNL     1       6.938   4.625  14.461  0.00  0.00    +0.000 C 
ATOM      9  O   UNL     1       7.806   5.326  13.961  0.00  0.00    +0.000 OA
ATOM     10  N   UNL     1       6.154   3.714  13.727  0.00  0.00    +0.000 N 
ATOM     11  H   UNL     1       5.886   2.874  14.237  0.00  0.00    +0.000 HD
BRANCH  10  12
ATOM     12  S   UNL     1       6.508   3.457  12.139  0.00  0.00    +0.000 S 
ATOM     13  O   UNL     1       6.267   4.665  11.385  0.00  0.00    +0.000 OA
ATOM     14  O   UNL     1       7.754   2.734  12.071  0.00  0.00    +0.000 OA
BRANCH  12  15
ATOM     15  N   UNL     1       5.275   2.366  11.700  0.00  0.00    +0.000 NA
ATOM     16  C   UNL     1       4.124   2.951  10.975  0.00  0.00    +0.000 C 
ATOM     17  C   UNL     1       5.835   1.216  10.936  0.00  0.00    +0.000 C 
ENDBRANCH  12  15
ENDBRANCH  10  12
ENDBRANCH   4   8
ENDBRANCH   1   2
BRANCH   1  18
ATOM     18  O   UNL     1       3.405   4.391  18.677  0.00  0.00    +0.000 OA
BRANCH  18  22
ATOM     19  C   UNL     1       1.510   7.664  20.503  0.00  0.00    +0.000 A 
ATOM     20  C   UNL     1       1.450   6.390  21.095  0.00  0.00    +0.000 A 
ATOM     21  C   UNL     1       2.110   5.293  20.543  0.00  0.00    +0.000 A 
ATOM     22  C   UNL     1       2.813   5.427  19.350  0.00  0.00    +0.000 A 
ATOM     23  C   UNL     1       2.933   6.683  18.766  0.00  0.00    +0.000 A 
ATOM     24  C   UNL     1       2.290   7.790  19.337  0.00  0.00    +0.000 A 
BRANCH  19  28
ATOM     25  C   UNL     1      -0.623  11.008  22.216  0.00  0.00    +0.000 A 
ATOM     26  C   UNL     1      -0.079  11.100  20.939  0.00  0.00    +0.000 A 
ATOM     27  C   UNL     1       0.588  10.008  20.374  0.00  0.00    +0.000 A 
ATOM     28  C   UNL     1       0.763   8.805  21.082  0.00  0.00    +0.000 A 
ATOM     29  C   UNL     1       0.233   8.749  22.382  0.00  0.00    +0.000 A 
ATOM     30  C   UNL     1      -0.457   9.832  22.943  0.00  0.00    +0.000 A 
BRANCH  25  32
ATOM     31  C   UNL     1      -0.641  13.362  22.298  0.00  0.00    +0.000 C 
ATOM     32  O   UNL     1      -1.255  12.132  22.669  0.00  0.00    +0.000 OA
ENDBRANCH  25  32
ENDBRANCH  19  28
ENDBRANCH  18  22
ENDBRANCH   1  18
TORSDOF 8
ENDMDL
MODEL 2
REMARK VINA RESULT:      -7.5      6.019     11.648
REMARK  Name = 
REMARK  12 active torsions:
REMARK  status: ('A' for Active; 'I' for Inactive)
REMARK    1  A    between atoms: C_1  and  O_2
REMARK    2  A    between atoms: O_2  and  C_3
REMARK    3  A    between atoms: C_6  and  C_7
REMARK    4  A    between atoms: C_10  and  O_11
REMARK    5  A    between atoms: O_11  and  C_12
REMARK    6  A    between atoms: C_12  and  C_13
REMARK    7  A    between atoms: C_15  and  C_16
REMARK    8  A    between atoms: N_18  and  S_19
REMARK    9  A    between atoms: S_19  and  N_22
REMARK   10  A    between atoms: N_22  and  C_23
REMARK   11  A    between atoms: N_22  and  C_24
REMARK   12  A    between atoms: C_26  and  C_27
REMARK                            x       y       z     vdW  Elec       q    Type
REMARK                         _______ _______ _______ _____ _____    ______ ____
ROOT
ATOM      1  C   UNL     1       0.779  10.466  20.694  0.00  0.00    +0.000 C 
ENDROOT
BRANCH   1   2
ATOM      2  C   UNL     1      -0.521  11.114  20.366  0.00  0.00    +0.000 A 
ATOM      3  C   UNL     1      -1.339  10.883  19.228  0.00  0.00    +0.000 A 
ATOM      4  C   UNL     1      -2.471  11.661  19.377  0.00  0.00    +0.000 A 
ATOM      5  O   UNL     1      -2.399  12.354  20.558  0.00  0.00    +0.000 OA
ATOM      6  C   UNL     1      -1.213  12.025  21.143  0.00  0.00    +0.000 A 
ATOM      7  C   UNL     1      -0.902  12.659  22.443  0.00  0.00    +0.000 C 
BRANCH   4   8
ATOM      8  C   UNL     1      -3.611  11.816  18.501  0.00  0.00    +0.000 C 
ATOM      9  O   UNL     1      -3.566  11.572  17.304  0.00  0.00    +0.000 OA
ATOM     10  N   UNL     1      -4.768  12.280  19.159  0.00  0.00    +0.000 N 
ATOM     11  H   UNL     1      -4.871  11.958  20.119  0.00  0.00    +0.000 HD
BRANCH  10  12
ATOM     12  S   UNL     1      -6.182  12.365  18.318  0.00  0.00    +0.000 S 
ATOM     13  O   UNL     1      -6.138  13.483  17.404  0.00  0.00    +0.000 OA
ATOM     14  O   UNL     1      -6.533  11.030  17.898  0.00  0.00    +0.000 OA
BRANCH  12  15
ATOM     15  N   UNL     1      -7.271  12.801  19.553  0.00  0.00    +0.000 NA
ATOM     16  C   UNL     1      -6.720  12.807  20.927  0.00  0.00    +0.000 C 
ATOM     17  C   UNL     1      -7.916  14.110  19.251  0.00  0.00    +0.000 C 
ENDBRANCH  12  15
ENDBRANCH  10  12
ENDBRANCH   4   8
ENDBRANCH   1   2
BRANCH   1  18
ATOM     18  O   UNL     1       0.623   9.071  20.977  0.00  0.00    +0.000 OA
BRANCH  18  22
ATOM     19  C   UNL     1       2.984   6.735  18.406  0.00  0.00    +0.000 A 
ATOM     20  C   UNL     1       2.559   6.219  19.643  0.00  0.00    +0.000 A 
ATOM     21  C   UNL     1       1.732   6.947  20.498  0.00  0.00    +0.000 A 
ATOM     22  C   UNL     1       1.344   8.240  20.161  0.00  0.00    +0.000 A 
ATOM     23  C   UNL     1       1.706   8.761  18.924  0.00  0.00    +0.000 A 
ATOM     24  C   UNL     1       2.516   8.016  18.056  0.00  0.00    +0.000 A 
BRANCH  19  28
ATOM     25  C   UNL     1       5.612   4.468  15.834  0.00  0.00    +0.000 A 
ATOM     26  C   UNL     1       5.492   5.844  15.679  0.00  0.00    +0.000 A 
ATOM     27  C   UNL     1       4.662   6.582  16.529  0.00  0.00    +0.000 A 
ATOM     28  C   UNL     1       3.899   5.961  17.536  0.00  0.00    +0.000 A 
ATOM     29  C   UNL     1       4.014   4.565  17.651  0.00  0.00    +0.000 A 
ATOM     30  C   UNL     1       4.863   3.826  16.817  0.00  0.00    +0.000 A 
BRANCH  25  32
ATOM     31  C   UNL     1       6.957   4.677  13.912  0.00  0.00    +0.000 C 
ATOM     32  O   UNL     1       6.452   3.847  14.952  0.00  0.00    +0.000 OA
ENDBRANCH  25  32
ENDBRANCH  19  28
ENDBRANCH  18  22
ENDBRANCH   1  18
TORSDOF 8
ENDMDL
MODEL 3
REMARK VINA RESULT:      -7.4      6.728     12.430
REMARK  Name = 
REMARK  12 active torsions:
REMARK  status: ('A' for Active; 'I' for Inactive)
REMARK    1  A    between atoms: C_1  and  O_2
REMARK    2  A    between atoms: O_2  and  C_3
REMARK    3  A    between atoms: C_6  and  C_7
REMARK    4  A    between atoms: C_10  and  O_11
REMARK    5  A    between atoms: O_11  and  C_12
REMARK    6  A    between atoms: C_12  and  C_13
REMARK    7  A    between atoms: C_15  and  C_16
REMARK    8  A    between atoms: N_18  and  S_19
REMARK    9  A    between atoms: S_19  and  N_22
REMARK   10  A    between atoms: N_22  and  C_23
REMARK   11  A    between atoms: N_22  and  C_24
REMARK   12  A    between atoms: C_26  and  C_27
REMARK                            x       y       z     vdW  Elec       q    Type
REMARK                         _______ _______ _______ _____ _____    ______ ____
ROOT
ATOM      1  C   UNL     1      -0.334  12.075  18.864  0.00  0.00    +0.000 C 
ENDROOT
BRANCH   1   2
ATOM      2  C   UNL     1      -1.799  11.806  18.854  0.00  0.00    +0.000 A 
ATOM      3  C   UNL     1      -2.793  12.403  19.674  0.00  0.00    +0.000 A 
ATOM      4  C   UNL     1      -4.012  11.892  19.272  0.00  0.00    +0.000 A 
ATOM      5  O   UNL     1      -3.822  11.016  18.234  0.00  0.00    +0.000 OA
ATOM      6  C   UNL     1      -2.481  10.963  17.996  0.00  0.00    +0.000 A 
ATOM      7  C   UNL     1      -2.022  10.069  16.910  0.00  0.00    +0.000 C 
BRANCH   4   8
ATOM      8  C   UNL     1      -5.340  12.149  19.784  0.00  0.00    +0.000 C 
ATOM      9  O   UNL     1      -6.346  12.060  19.094  0.00  0.00    +0.000 OA
ATOM     10  N   UNL     1      -5.358  12.516  21.144  0.00  0.00    +0.000 N 
ATOM     11  H   UNL     1      -4.641  12.073  21.715  0.00  0.00    +0.000 HD
BRANCH  10  12
ATOM     12  S   UNL     1      -6.810  12.698  21.900  0.00  0.00    +0.000 S 
ATOM     13  O   UNL     1      -7.511  13.833  21.344  0.00  0.00    +0.000 OA
ATOM     14  O   UNL     1      -7.416  11.395  22.023  0.00  0.00    +0.000 OA
BRANCH  12  15
ATOM     15  N   UNL     1      -6.311  13.163  23.461  0.00  0.00    +0.000 NA
ATOM     16  C   UNL     1      -4.923  13.670  23.570  0.00  0.00    +0.000 C 
ATOM     17  C   UNL     1      -7.265  14.145  24.050  0.00  0.00    +0.000 C 
ENDBRANCH  12  15
ENDBRANCH  10  12
ENDBRANCH   4   8
ENDBRANCH   1   2
BRANCH   1  18
ATOM     18  O   UNL     1       0.296  11.548  20.038  0.00  0.00    +0.000 OA
BRANCH  18  22
ATOM     19  C   UNL     1       1.913   7.692  19.640  0.00  0.00    +0.000 A 
ATOM     20  C   UNL     1       1.980   8.602  18.571  0.00  0.00    +0.000 A 
ATOM     21  C   UNL     1       1.500   9.906  18.685  0.00  0.00    +0.000 A 
ATOM     22  C   UNL     1       0.890  10.326  19.864  0.00  0.00    +0.000 A 
ATOM     23  C   UNL     1       0.853   9.466  20.956  0.00  0.00    +0.000 A 
ATOM     24  C   UNL     1       1.360   8.164  20.845  0.00  0.00    +0.000 A 
BRANCH  19  28
ATOM     25  C   UNL     1       3.250   3.611  19.161  0.00  0.00    +0.000 A 
ATOM     26  C   UNL     1       3.291   4.496  18.089  0.00  0.00    +0.000 A 
ATOM     27  C   UNL     1       2.883   5.824  18.251  0.00  0.00    +0.000 A 
ATOM     28  C   UNL     1       2.388   6.298  19.480  0.00  0.00    +0.000 A 
ATOM     29  C   UNL     1       2.327   5.376  20.539  0.00  0.00    +0.000 A 
ATOM     30  C   UNL     1       2.757   4.052  20.387  0.00  0.00    +0.000 A 
BRANCH  25  32
ATOM     31  C   UNL     1       4.420   1.719  19.933  0.00  0.00    +0.000 C 
ATOM     32  O   UNL     1       3.673   2.340  18.892  0.00  0.00    +0.000 OA
ENDBRANCH  25  32
ENDBRANCH  19  28
ENDBRANCH  18  22
ENDBRANCH   1  18
TORSDOF 8
ENDMDL
MODEL 4
REMARK VINA RESULT:      -7.4      2.512      4.891
REMARK  Name = 
REMARK  12 active torsions:
REMARK  status: ('A' for Active; 'I' for Inactive)
REMARK    1  A    between atoms: C_1  and  O_2
REMARK    2  A    between atoms: O_2  and  C_3
REMARK    3  A    between atoms: C_6  and  C_7
REMARK    4  A    between atoms: C_10  and  O_11
REMARK    5  A    between atoms: O_11  and  C_12
REMARK    6  A    between atoms: C_12  and  C_13
REMARK    7  A    between atoms: C_15  and  C_16
REMARK    8  A    between atoms: N_18  and  S_19
REMARK    9  A    between atoms: S_19  and  N_22
REMARK   10  A    between atoms: N_22  and  C_23
REMARK   11  A    between atoms: N_22  and  C_24
REMARK   12  A    between atoms: C_26  and  C_27
REMARK                            x       y       z     vdW  Elec       q    Type
REMARK                         _______ _______ _______ _____ _____    ______ ____
ROOT
ATOM      1  C   UNL     1       1.215   6.911  20.656  0.00  0.00    +0.000 C 
ENDROOT
BRANCH   1   2
ATOM      2  C   UNL     1       2.188   5.904  20.152  0.00  0.00    +0.000 A 
ATOM      3  C   UNL     1       3.429   6.149  19.504  0.00  0.00    +0.000 A 
ATOM      4  C   UNL     1       4.015   4.920  19.270  0.00  0.00    +0.000 A 
ATOM      5  O   UNL     1       3.203   3.926  19.752  0.00  0.00    +0.000 OA
ATOM      6  C   UNL     1       2.098   4.529  20.273  0.00  0.00    +0.000 A 
ATOM      7  C   UNL     1       1.059   3.651  20.856  0.00  0.00    +0.000 C 
BRANCH   4   8
ATOM      8  C   UNL     1       5.269   4.598  18.625  0.00  0.00    +0.000 C 
ATOM      9  O   UNL     1       6.231   4.148  19.232  0.00  0.00    +0.000 OA
ATOM     10  N   UNL     1       5.274   4.860  17.241  0.00  0.00    +0.000 N 
ATOM     11  H   UNL     1       4.381   4.714  16.776  0.00  0.00    +0.000 HD
BRANCH  10  12
ATOM     12  S   UNL     1       6.584   4.407  16.351  0.00  0.00    +0.000 S 
ATOM     13  O   UNL     1       7.788   4.584  17.129  0.00  0.00    +0.000 OA
ATOM     14  O   UNL     1       6.264   3.169  15.684  0.00  0.00    +0.000 OA
BRANCH  12  15
ATOM     15  N   UNL     1       6.605   5.624  15.158  0.00  0.00    +0.000 NA
ATOM     16  C   UNL     1       7.003   5.188  13.799  0.00  0.00    +0.000 C 
ATOM     17  C   UNL     1       5.298   6.336  15.107  0.00  0.00    +0.000 C 
ENDBRANCH  12  15
ENDBRANCH  10  12
ENDBRANCH   4   8
ENDBRANCH   1   2
BRANCH   1  18
ATOM     18  O   UNL     1       1.697   8.249  20.485  0.00  0.00    +0.000 OA
BRANCH  18  22
ATOM     19  C   UNL     1      -0.587  11.226  22.374  0.00  0.00    +0.000 A 
ATOM     20  C   UNL     1      -0.326  10.010  23.030  0.00  0.00    +0.000 A 
ATOM     21  C   UNL     1       0.471   9.021  22.453  0.00  0.00    +0.000 A 
ATOM     22  C   UNL     1       0.993   9.200  21.176  0.00  0.00    +0.000 A 
ATOM     23  C   UNL     1       0.795  10.411  20.522  0.00  0.00    +0.000 A 
ATOM     24  C   UNL     1       0.015  11.413  21.115  0.00  0.00    +0.000 A 
BRANCH  19  28
ATOM     25  C   UNL     1      -3.186  14.207  24.112  0.00  0.00    +0.000 A 
ATOM     26  C   UNL     1      -3.650  12.916  23.883  0.00  0.00    +0.000 A 
ATOM     27  C   UNL     1      -2.801  11.944  23.345  0.00  0.00    +0.000 A 
ATOM     28  C   UNL     1      -1.473  12.242  22.987  0.00  0.00    +0.000 A 
ATOM     29  C   UNL     1      -1.038  13.562  23.198  0.00  0.00    +0.000 A 
ATOM     30  C   UNL     1      -1.879  14.532  23.759  0.00  0.00    +0.000 A 
BRANCH  25  32
ATOM     31  C   UNL     1      -4.293  16.275  23.901  0.00  0.00    +0.000 C 
ATOM     32  O   UNL     1      -4.099  15.075  24.642  0.00  0.00    +0.000 OA
ENDBRANCH  25  32
ENDBRANCH  19  28
ENDBRANCH  18  22
ENDBRANCH   1  18
TORSDOF 8
ENDMDL
MODEL 5
REMARK VINA RESULT:      -7.4      6.050     11.510
REMARK  Name = 
REMARK  12 active torsions:
REMARK  status: ('A' for Active; 'I' for Inactive)
REMARK    1  A    between atoms: C_1  and  O_2
REMARK    2  A    between atoms: O_2  and  C_3
REMARK    3  A    between atoms: C_6  and  C_7
REMARK    4  A    between atoms: C_10  and  O_11
REMARK    5  A    between atoms: O_11  and  C_12
REMARK    6  A    between atoms: C_12  and  C_13
REMARK    7  A    between atoms: C_15  and  C_16
REMARK    8  A    between atoms: N_18  and  S_19
REMARK    9  A    between atoms: S_19  and  N_22
REMARK   10  A    between atoms: N_22  and  C_23
REMARK   11  A    between atoms: N_22  and  C_24
REMARK   12  A    between atoms: C_26  and  C_27
REMARK                            x       y       z     vdW  Elec       q    Type
REMARK                         _______ _______ _______ _____ _____    ______ ____
ROOT
ATOM      1  C   UNL     1       0.612  10.562  20.653  0.00  0.00    +0.000 C 
ENDROOT
BRANCH   1   2
ATOM      2  C   UNL     1      -0.334  11.181  19.684  0.00  0.00    +0.000 A 
ATOM      3  C   UNL     1      -1.658  10.763  19.381  0.00  0.00    +0.000 A 
ATOM      4  C   UNL     1      -2.172  11.668  18.472  0.00  0.00    +0.000 A 
ATOM      5  O   UNL     1      -1.234  12.632  18.206  0.00  0.00    +0.000 OA
ATOM      6  C   UNL     1      -0.125  12.324  18.934  0.00  0.00    +0.000 A 
ATOM      7  C   UNL     1       1.040  13.228  18.808  0.00  0.00    +0.000 C 
BRANCH   4   8
ATOM      8  C   UNL     1      -3.465  11.700  17.825  0.00  0.00    +0.000 C 
ATOM      9  O   UNL     1      -3.668  11.210  16.724  0.00  0.00    +0.000 OA
ATOM     10  N   UNL     1      -4.457  12.355  18.582  0.00  0.00    +0.000 N 
ATOM     11  H   UNL     1      -4.366  12.246  19.590  0.00  0.00    +0.000 HD
BRANCH  10  12
ATOM     12  S   UNL     1      -6.012  12.341  18.037  0.00  0.00    +0.000 S 
ATOM     13  O   UNL     1      -6.133  13.207  16.887  0.00  0.00    +0.000 OA
ATOM     14  O   UNL     1      -6.472  10.974  18.033  0.00  0.00    +0.000 OA
BRANCH  12  15
ATOM     15  N   UNL     1      -6.813  13.132  19.316  0.00  0.00    +0.000 NA
ATOM     16  C   UNL     1      -6.063  13.223  20.589  0.00  0.00    +0.000 C 
ATOM     17  C   UNL     1      -7.277  14.484  18.893  0.00  0.00    +0.000 C 
ENDBRANCH  12  15
ENDBRANCH  10  12
ENDBRANCH   4   8
ENDBRANCH   1   2
BRANCH   1  18
ATOM     18  O   UNL     1       0.524   9.132  20.643  0.00  0.00    +0.000 OA
BRANCH  18  22
ATOM     19  C   UNL     1       3.162   6.999  18.166  0.00  0.00    +0.000 A 
ATOM     20  C   UNL     1       2.581   8.199  17.717  0.00  0.00    +0.000 A 
ATOM     21  C   UNL     1       1.742   8.958  18.532  0.00  0.00    +0.000 A 
ATOM     22  C   UNL     1       1.418   8.513  19.810  0.00  0.00    +0.000 A 
ATOM     23  C   UNL     1       2.015   7.358  20.301  0.00  0.00    +0.000 A 
ATOM     24  C   UNL     1       2.878   6.610  19.489  0.00  0.00    +0.000 A 
BRANCH  19  28
ATOM     25  C   UNL     1       5.683   4.626  15.583  0.00  0.00    +0.000 A 
ATOM     26  C   UNL     1       4.731   4.015  16.391  0.00  0.00    +0.000 A 
ATOM     27  C   UNL     1       3.897   4.785  17.207  0.00  0.00    +0.000 A 
ATOM     28  C   UNL     1       4.013   6.187  17.267  0.00  0.00    +0.000 A 
ATOM     29  C   UNL     1       5.004   6.777  16.464  0.00  0.00    +0.000 A 
ATOM     30  C   UNL     1       5.826   6.011  15.627  0.00  0.00    +0.000 A 
BRANCH  25  32
ATOM     31  C   UNL     1       6.003   3.615  13.479  0.00  0.00    +0.000 C 
ATOM     32  O   UNL     1       6.442   3.779  14.824  0.00  0.00    +0.000 OA
ENDBRANCH  25  32
ENDBRANCH  19  28
ENDBRANCH  18  22
ENDBRANCH   1  18
TORSDOF 8
ENDMDL
MODEL 6
REMARK VINA RESULT:      -7.4      5.197      8.928
REMARK  Name = 
REMARK  12 active torsions:
REMARK  status: ('A' for Active; 'I' for Inactive)
REMARK    1  A    between atoms: C_1  and  O_2
REMARK    2  A    between atoms: O_2  and  C_3
REMARK    3  A    between atoms: C_6  and  C_7
REMARK    4  A    between atoms: C_10  and  O_11
REMARK    5  A    between atoms: O_11  and  C_12
REMARK    6  A    between atoms: C_12  and  C_13
REMARK    7  A    between atoms: C_15  and  C_16
REMARK    8  A    between atoms: N_18  and  S_19
REMARK    9  A    between atoms: S_19  and  N_22
REMARK   10  A    between atoms: N_22  and  C_23
REMARK   11  A    between atoms: N_22  and  C_24
REMARK   12  A    between atoms: C_26  and  C_27
REMARK                            x       y       z     vdW  Elec       q    Type
REMARK                         _______ _______ _______ _____ _____    ______ ____
ROOT
ATOM      1  C   UNL     1       5.231   4.487  18.819  0.00  0.00    +0.000 C 
ENDROOT
BRANCH   1   2
ATOM      2  C   UNL     1       4.029   5.322  18.547  0.00  0.00    +0.000 A 
ATOM      3  C   UNL     1       3.845   6.697  18.853  0.00  0.00    +0.000 A 
ATOM      4  C   UNL     1       2.604   7.059  18.365  0.00  0.00    +0.000 A 
ATOM      5  O   UNL     1       2.015   5.978  17.763  0.00  0.00    +0.000 OA
ATOM      6  C   UNL     1       2.878   4.931  17.887  0.00  0.00    +0.000 A 
ATOM      7  C   UNL     1       2.456   3.635  17.312  0.00  0.00    +0.000 C 
BRANCH   4   8
ATOM      8  C   UNL     1       1.920   8.332  18.424  0.00  0.00    +0.000 C 
ATOM      9  O   UNL     1       1.614   8.968  17.425  0.00  0.00    +0.000 OA
ATOM     10  N   UNL     1       1.649   8.767  19.736  0.00  0.00    +0.000 N 
ATOM     11  H   UNL     1       1.449   8.021  20.400  0.00  0.00    +0.000 HD
BRANCH  10  12
ATOM     12  S   UNL     1       0.747  10.128  19.955  0.00  0.00    +0.000 S 
ATOM     13  O   UNL     1       1.436  11.265  19.391  0.00  0.00    +0.000 OA
ATOM     14  O   UNL     1      -0.623   9.811  19.632  0.00  0.00    +0.000 OA
BRANCH  12  15
ATOM     15  N   UNL     1       0.831  10.308  21.646  0.00  0.00    +0.000 NA
ATOM     16  C   UNL     1      -0.420  10.738  22.313  0.00  0.00    +0.000 C 
ATOM     17  C   UNL     1       1.354   9.068  22.285  0.00  0.00    +0.000 C 
ENDBRANCH  12  15
ENDBRANCH  10  12
ENDBRANCH   4   8
ENDBRANCH   1   2
BRANCH   1  18
ATOM     18  O   UNL     1       6.261   4.704  17.847  0.00  0.00    +0.000 OA
BRANCH  18  22
ATOM     19  C   UNL     1       8.139   8.437  18.267  0.00  0.00    +0.000 A 
ATOM     20  C   UNL     1       8.479   7.372  19.120  0.00  0.00    +0.000 A 
ATOM     21  C   UNL     1       7.914   6.106  18.976  0.00  0.00    +0.000 A 
ATOM     22  C   UNL     1       6.948   5.879  18.000  0.00  0.00    +0.000 A 
ATOM     23  C   UNL     1       6.626   6.896  17.109  0.00  0.00    +0.000 A 
ATOM     24  C   UNL     1       7.216   8.161  17.241  0.00  0.00    +0.000 A 
BRANCH  19  28
ATOM     25  C   UNL     1       9.875  12.353  18.827  0.00  0.00    +0.000 A 
ATOM     26  C   UNL     1       9.029  12.106  17.752  0.00  0.00    +0.000 A 
ATOM     27  C   UNL     1       8.445  10.846  17.586  0.00  0.00    +0.000 A 
ATOM     28  C   UNL     1       8.719   9.784  18.469  0.00  0.00    +0.000 A 
ATOM     29  C   UNL     1       9.603  10.051  19.529  0.00  0.00    +0.000 A 
ATOM     30  C   UNL     1      10.171  11.319  19.712  0.00  0.00    +0.000 A 
BRANCH  25  32
ATOM     31  C   UNL     1      10.407  14.330  17.661  0.00  0.00    +0.000 C 
ATOM     32  O   UNL     1      10.387  13.619  18.895  0.00  0.00    +0.000 OA
ENDBRANCH  25  32
ENDBRANCH  19  28
ENDBRANCH  18  22
ENDBRANCH   1  18
TORSDOF 8
ENDMDL
MODEL 7
REMARK VINA RESULT:      -7.4      2.818      5.109
REMARK  Name = 
REMARK  12 active torsions:
REMARK  status: ('A' for Active; 'I' for Inactive)
REMARK    1  A    between atoms: C_1  and  O_2
REMARK    2  A    between atoms: O_2  and  C_3
REMARK    3  A    between atoms: C_6  and  C_7
REMARK    4  A    between atoms: C_10  and  O_11
REMARK    5  A    between atoms: O_11  and  C_12
REMARK    6  A    between atoms: C_12  and  C_13
REMARK    7  A    between atoms: C_15  and  C_16
REMARK    8  A    between atoms: N_18  and  S_19
REMARK    9  A    between atoms: S_19  and  N_22
REMARK   10  A    between atoms: N_22  and  C_23
REMARK   11  A    between atoms: N_22  and  C_24
REMARK   12  A    between atoms: C_26  and  C_27
REMARK                            x       y       z     vdW  Elec       q    Type
REMARK                         _______ _______ _______ _____ _____    ______ ____
ROOT
ATOM      1  C   UNL     1       1.143   6.896  20.741  0.00  0.00    +0.000 C 
ENDROOT
BRANCH   1   2
ATOM      2  C   UNL     1       2.175   5.967  20.204  0.00  0.00    +0.000 A 
ATOM      3  C   UNL     1       3.410   6.308  19.591  0.00  0.00    +0.000 A 
ATOM      4  C   UNL     1       4.063   5.125  19.306  0.00  0.00    +0.000 A 
ATOM      5  O   UNL     1       3.297   4.067  19.723  0.00  0.00    +0.000 OA
ATOM      6  C   UNL     1       2.155   4.585  20.254  0.00  0.00    +0.000 A 
ATOM      7  C   UNL     1       1.155   3.626  20.773  0.00  0.00    +0.000 C 
BRANCH   4   8
ATOM      8  C   UNL     1       5.342   4.901  18.668  0.00  0.00    +0.000 C 
ATOM      9  O   UNL     1       5.973   3.861  18.792  0.00  0.00    +0.000 OA
ATOM     10  N   UNL     1       5.788   5.996  17.902  0.00  0.00    +0.000 N 
ATOM     11  H   UNL     1       5.049   6.528  17.446  0.00  0.00    +0.000 HD
BRANCH  10  12
ATOM     12  S   UNL     1       7.158   5.831  17.001  0.00  0.00    +0.000 S 
ATOM     13  O   UNL     1       7.814   7.112  16.873  0.00  0.00    +0.000 OA
ATOM     14  O   UNL     1       7.847   4.646  17.448  0.00  0.00    +0.000 OA
BRANCH  12  15
ATOM     15  N   UNL     1       6.501   5.477  15.469  0.00  0.00    +0.000 NA
ATOM     16  C   UNL     1       6.357   4.039  15.146  0.00  0.00    +0.000 C 
ATOM     17  C   UNL     1       5.202   6.180  15.275  0.00  0.00    +0.000 C 
ENDBRANCH  12  15
ENDBRANCH  10  12
ENDBRANCH   4   8
ENDBRANCH   1   2
BRANCH   1  18
ATOM     18  O   UNL     1       1.673   8.207  20.969  0.00  0.00    +0.000 OA
BRANCH  18  22
ATOM     19  C   UNL     1      -1.076  11.198  22.036  0.00  0.00    +0.000 A 
ATOM     20  C   UNL     1      -0.718  11.012  20.689  0.00  0.00    +0.000 A 
ATOM     21  C   UNL     1       0.152   9.996  20.294  0.00  0.00    +0.000 A 
ATOM     22  C   UNL     1       0.731   9.162  21.245  0.00  0.00    +0.000 A 
ATOM     23  C   UNL     1       0.360   9.288  22.579  0.00  0.00    +0.000 A 
ATOM     24  C   UNL     1      -0.535  10.294  22.970  0.00  0.00    +0.000 A 
BRANCH  19  28
ATOM     25  C   UNL     1      -3.640  14.482  23.177  0.00  0.00    +0.000 A 
ATOM     26  C   UNL     1      -3.936  13.715  22.056  0.00  0.00    +0.000 A 
ATOM     27  C   UNL     1      -3.121  12.635  21.702  0.00  0.00    +0.000 A 
ATOM     28  C   UNL     1      -1.965  12.312  22.437  0.00  0.00    +0.000 A 
ATOM     29  C   UNL     1      -1.670  13.122  23.547  0.00  0.00    +0.000 A 
ATOM     30  C   UNL     1      -2.498  14.190  23.918  0.00  0.00    +0.000 A 
BRANCH  25  32
ATOM     31  C   UNL     1      -3.964  16.575  24.208  0.00  0.00    +0.000 C 
ATOM     32  O   UNL     1      -4.504  15.510  23.432  0.00  0.00    +0.000 OA
ENDBRANCH  25  32
ENDBRANCH  19  28
ENDBRANCH  18  22
ENDBRANCH   1  18
TORSDOF 8
ENDMDL
MODEL 8
REMARK VINA RESULT:      -7.3      2.560      4.824
REMARK  Name = 
REMARK  12 active torsions:
REMARK  status: ('A' for Active; 'I' for Inactive)
REMARK    1  A    between atoms: C_1  and  O_2
REMARK    2  A    between atoms: O_2  and  C_3
REMARK    3  A    between atoms: C_6  and  C_7
REMARK    4  A    between atoms: C_10  and  O_11
REMARK    5  A    between atoms: O_11  and  C_12
REMARK    6  A    between atoms: C_12  and  C_13
REMARK    7  A    between atoms: C_15  and  C_16
REMARK    8  A    between atoms: N_18  and  S_19
REMARK    9  A    between atoms: S_19  and  N_22
REMARK   10  A    between atoms: N_22  and  C_23
REMARK   11  A    between atoms: N_22  and  C_24
REMARK   12  A    between atoms: C_26  and  C_27
REMARK                            x       y       z     vdW  Elec       q    Type
REMARK                         _______ _______ _______ _____ _____    ______ ____
ROOT
ATOM      1  C   UNL     1       1.310   7.397  20.528  0.00  0.00    +0.000 C 
ENDROOT
BRANCH   1   2
ATOM      2  C   UNL     1       2.370   7.080  19.532  0.00  0.00    +0.000 A 
ATOM      3  C   UNL     1       3.263   5.975  19.542  0.00  0.00    +0.000 A 
ATOM      4  C   UNL     1       4.026   6.059  18.393  0.00  0.00    +0.000 A 
ATOM      5  O   UNL     1       3.642   7.157  17.667  0.00  0.00    +0.000 OA
ATOM      6  C   UNL     1       2.649   7.772  18.368  0.00  0.00    +0.000 A 
ATOM      7  C   UNL     1       2.069   9.000  17.781  0.00  0.00    +0.000 C 
BRANCH   4   8
ATOM      8  C   UNL     1       5.092   5.202  17.923  0.00  0.00    +0.000 C 
ATOM      9  O   UNL     1       5.685   4.420  18.653  0.00  0.00    +0.000 OA
ATOM     10  N   UNL     1       5.381   5.361  16.554  0.00  0.00    +0.000 N 
ATOM     11  H   UNL     1       4.576   5.582  15.971  0.00  0.00    +0.000 HD
BRANCH  10  12
ATOM     12  S   UNL     1       6.471   4.348  15.847  0.00  0.00    +0.000 S 
ATOM     13  O   UNL     1       7.802   4.664  16.310  0.00  0.00    +0.000 OA
ATOM     14  O   UNL     1       5.930   3.011  15.888  0.00  0.00    +0.000 OA
BRANCH  12  15
ATOM     15  N   UNL     1       6.394   4.865  14.225  0.00  0.00    +0.000 NA
ATOM     16  C   UNL     1       7.687   5.235  13.604  0.00  0.00    +0.000 C 
ATOM     17  C   UNL     1       5.688   3.859  13.383  0.00  0.00    +0.000 C 
ENDBRANCH  12  15
ENDBRANCH  10  12
ENDBRANCH   4   8
ENDBRANCH   1   2
BRANCH   1  18
ATOM     18  O   UNL     1       1.759   8.350  21.499  0.00  0.00    +0.000 OA
BRANCH  18  22
ATOM     19  C   UNL     1      -1.152  11.297  22.193  0.00  0.00    +0.000 A 
ATOM     20  C   UNL     1      -0.752  10.437  23.231  0.00  0.00    +0.000 A 
ATOM     21  C   UNL     1       0.248   9.483  23.050  0.00  0.00    +0.000 A 
ATOM     22  C   UNL     1       0.847   9.325  21.804  0.00  0.00    +0.000 A 
ATOM     23  C   UNL     1       0.509  10.192  20.770  0.00  0.00    +0.000 A 
ATOM     24  C   UNL     1      -0.478  11.168  20.964  0.00  0.00    +0.000 A 
BRANCH  19  28
ATOM     25  C   UNL     1      -4.380  14.112  22.758  0.00  0.00    +0.000 A 
ATOM     26  C   UNL     1      -4.155  13.104  23.688  0.00  0.00    +0.000 A 
ATOM     27  C   UNL     1      -3.093  12.209  23.519  0.00  0.00    +0.000 A 
ATOM     28  C   UNL     1      -2.247  12.273  22.397  0.00  0.00    +0.000 A 
ATOM     29  C   UNL     1      -2.516  13.281  21.455  0.00  0.00    +0.000 A 
ATOM     30  C   UNL     1      -3.563  14.194  21.633  0.00  0.00    +0.000 A 
BRANCH  25  32
ATOM     31  C   UNL     1      -5.230  15.879  24.062  0.00  0.00    +0.000 C 
ATOM     32  O   UNL     1      -5.442  14.931  23.022  0.00  0.00    +0.000 OA
ENDBRANCH  25  32
ENDBRANCH  19  28
ENDBRANCH  18  22
ENDBRANCH   1  18
TORSDOF 8
ENDMDL
MODEL 9
REMARK VINA RESULT:      -7.3      5.960     11.485
REMARK  Name = 
REMARK  12 active torsions:
REMARK  status: ('A' for Active; 'I' for Inactive)
REMARK    1  A    between atoms: C_1  and  O_2
REMARK    2  A    between atoms: O_2  and  C_3
REMARK    3  A    between atoms: C_6  and  C_7
REMARK    4  A    between atoms: C_10  and  O_11
REMARK    5  A    between atoms: O_11  and  C_12
REMARK    6  A    between atoms: C_12  and  C_13
REMARK    7  A    between atoms: C_15  and  C_16
REMARK    8  A    between atoms: N_18  and  S_19
REMARK    9  A    between atoms: S_19  and  N_22
REMARK   10  A    between atoms: N_22  and  C_23
REMARK   11  A    between atoms: N_22  and  C_24
REMARK   12  A    between atoms: C_26  and  C_27
REMARK                            x       y       z     vdW  Elec       q    Type
REMARK                         _______ _______ _______ _____ _____    ______ ____
ROOT
ATOM      1  C   UNL     1       0.822  10.091  20.966  0.00  0.00    +0.000 C 
ENDROOT
BRANCH   1   2
ATOM      2  C   UNL     1      -0.366  10.830  20.456  0.00  0.00    +0.000 A 
ATOM      3  C   UNL     1      -1.193  10.482  19.354  0.00  0.00    +0.000 A 
ATOM      4  C   UNL     1      -2.203  11.423  19.291  0.00  0.00    +0.000 A 
ATOM      5  O   UNL     1      -2.048  12.330  20.306  0.00  0.00    +0.000 OA
ATOM      6  C   UNL     1      -0.931  11.970  20.998  0.00  0.00    +0.000 A 
ATOM      7  C   UNL     1      -0.549  12.812  22.153  0.00  0.00    +0.000 C 
BRANCH   4   8
ATOM      8  C   UNL     1      -3.296  11.548  18.352  0.00  0.00    +0.000 C 
ATOM      9  O   UNL     1      -3.191  11.260  17.168  0.00  0.00    +0.000 OA
ATOM     10  N   UNL     1      -4.483  12.036  18.932  0.00  0.00    +0.000 N 
ATOM     11  H   UNL     1      -4.637  11.749  19.897  0.00  0.00    +0.000 HD
BRANCH  10  12
ATOM     12  S   UNL     1      -5.852  12.093  18.017  0.00  0.00    +0.000 S 
ATOM     13  O   UNL     1      -5.557  12.690  16.735  0.00  0.00    +0.000 OA
ATOM     14  O   UNL     1      -6.529  10.826  18.147  0.00  0.00    +0.000 OA
BRANCH  12  15
ATOM     15  N   UNL     1      -6.773  13.240  18.877  0.00  0.00    +0.000 NA
ATOM     16  C   UNL     1      -7.599  14.152  18.053  0.00  0.00    +0.000 C 
ATOM     17  C   UNL     1      -7.616  12.574  19.909  0.00  0.00    +0.000 C 
ENDBRANCH  12  15
ENDBRANCH  10  12
ENDBRANCH   4   8
ENDBRANCH   1   2
BRANCH   1  18
ATOM     18  O   UNL     1       0.657   8.673  20.849  0.00  0.00    +0.000 OA
BRANCH  18  22
ATOM     19  C   UNL     1       3.240   6.580  18.282  0.00  0.00    +0.000 A 
ATOM     20  C   UNL     1       2.788   7.867  17.938  0.00  0.00    +0.000 A 
ATOM     21  C   UNL     1       1.972   8.610  18.790  0.00  0.00    +0.000 A 
ATOM     22  C   UNL     1       1.541   8.066  19.996  0.00  0.00    +0.000 A 
ATOM     23  C   UNL     1       2.009   6.817  20.388  0.00  0.00    +0.000 A 
ATOM     24  C   UNL     1       2.851   6.083  19.540  0.00  0.00    +0.000 A 
BRANCH  19  28
ATOM     25  C   UNL     1       5.614   4.275  15.505  0.00  0.00    +0.000 A 
ATOM     26  C   UNL     1       5.578   5.662  15.416  0.00  0.00    +0.000 A 
ATOM     27  C   UNL     1       4.830   6.410  16.332  0.00  0.00    +0.000 A 
ATOM     28  C   UNL     1       4.068   5.792  17.341  0.00  0.00    +0.000 A 
ATOM     29  C   UNL     1       4.097   4.388  17.389  0.00  0.00    +0.000 A 
ATOM     30  C   UNL     1       4.864   3.636  16.488  0.00  0.00    +0.000 A 
BRANCH  25  32
ATOM     31  C   UNL     1       6.922   4.495  13.558  0.00  0.00    +0.000 C 
ATOM     32  O   UNL     1       6.377   3.645  14.562  0.00  0.00    +0.000 OA
ENDBRANCH  25  32
ENDBRANCH  19  28
ENDBRANCH  18  22
ENDBRANCH   1  18
TORSDOF 8
ENDMDL
