MODEL 1
REMARK VINA RESULT:      -7.5      0.000      0.000
REMARK  Name = 
REMARK  5 active torsions:
REMARK  status: ('A' for Active; 'I' for Inactive)
REMARK    1  A    between atoms: C_1  and  C_2
REMARK    2  A    between atoms: C_2  and  O_3
REMARK    3  A    between atoms: C_2  and  C_4
REMARK    4  A    between atoms: C_2  and  C_14
REMARK    5  A    between atoms: N_6  and  C_7
REMARK                            x       y       z     vdW  Elec       q    Type
REMARK                         _______ _______ _______ _____ _____    ______ ____
ROOT
ATOM      1  C   UNL     1       5.920   4.336  18.104  0.00  0.00    +0.000 C 
ATOM      2  O   UNL     1       5.944   4.160  19.322  0.00  0.00    +0.000 OA
ATOM      3  N   UNL     1       4.831   4.043  17.302  0.00  0.00    +0.000 N 
ATOM      4  H   UNL     1       4.989   3.835  16.318  0.00  0.00    +0.000 HD
ENDROOT
BRANCH   3   5
ATOM      5  C   UNL     1       3.582   3.587  17.796  0.00  0.00    +0.000 A 
ATOM      6  C   UNL     1       3.301   2.224  17.951  0.00  0.00    +0.000 A 
ATOM      7  C   UNL     1       2.060   1.807  18.444  0.00  0.00    +0.000 A 
ATOM      8  C   UNL     1       1.086   2.748  18.776  0.00  0.00    +0.000 A 
ATOM      9  C   UNL     1       1.358   4.112  18.632  0.00  0.00    +0.000 A 
ATOM     10  C   UNL     1       2.605   4.524  18.166  0.00  0.00    +0.000 A 
ATOM     11 CL   UNL     1       2.896   6.223  17.985  0.00  0.00    +0.000 Cl
ENDBRANCH   3   5
BRANCH   1  13
ATOM     12  C   UNL     1       6.956   4.712  15.846  0.00  0.00    +0.000 C 
ATOM     13  C   UNL     1       7.158   4.877  17.355  0.00  0.00    +0.000 C 
BRANCH  13  14
ATOM     14  C   UNL     1       7.346   6.358  17.724  0.00  0.00    +0.000 C 
ATOM     15  F   UNL     1       8.043   6.542  18.866  0.00  0.00    +0.000 F 
ATOM     16  F   UNL     1       7.948   7.083  16.757  0.00  0.00    +0.000 F 
ATOM     17  F   UNL     1       6.121   6.925  17.910  0.00  0.00    +0.000 F 
ENDBRANCH  13  14
BRANCH  13  18
ATOM     18  O   UNL     1       8.306   4.068  17.701  0.00  0.00    +0.000 OA
ATOM     19  H   UNL     1       9.111   4.555  17.446  0.00  0.00    +0.000 HD
ENDBRANCH  13  18
ENDBRANCH   1  13
TORSDOF 4
ENDMDL
MODEL 2
REMARK VINA RESULT:      -7.3      1.598      2.180
REMARK  Name = 
REMARK  5 active torsions:
REMARK  status: ('A' for Active; 'I' for Inactive)
REMARK    1  A    between atoms: C_1  and  C_2
REMARK    2  A    between atoms: C_2  and  O_3
REMARK    3  A    between atoms: C_2  and  C_4
REMARK    4  A    between atoms: C_2  and  C_14
REMARK    5  A    between atoms: N_6  and  C_7
REMARK                            x       y       z     vdW  Elec       q    Type
REMARK                         _______ _______ _______ _____ _____    ______ ____
ROOT
ATOM      1  C   UNL     1       5.771   4.571  18.659  0.00  0.00    +0.000 C 
ATOM      2  O   UNL     1       6.085   4.530  19.848  0.00  0.00    +0.000 OA
ATOM      3  N   UNL     1       4.489   4.344  18.190  0.00  0.00    +0.000 N 
ATOM      4  H   UNL     1       4.368   4.008  17.237  0.00  0.00    +0.000 HD
ENDROOT
BRANCH   3   5
ATOM      5  C   UNL     1       3.366   4.123  19.027  0.00  0.00    +0.000 A 
ATOM      6  C   UNL     1       2.745   5.168  19.723  0.00  0.00    +0.000 A 
ATOM      7  C   UNL     1       1.635   4.916  20.538  0.00  0.00    +0.000 A 
ATOM      8  C   UNL     1       1.145   3.618  20.674  0.00  0.00    +0.000 A 
ATOM      9  C   UNL     1       1.753   2.569  19.978  0.00  0.00    +0.000 A 
ATOM     10  C   UNL     1       2.841   2.827  19.147  0.00  0.00    +0.000 A 
ATOM     11 CL   UNL     1       3.577   1.495  18.316  0.00  0.00    +0.000 Cl
ENDBRANCH   3   5
BRANCH   1  13
ATOM     12  C   UNL     1       6.293   4.386  16.208  0.00  0.00    +0.000 C 
ATOM     13  C   UNL     1       6.827   4.849  17.567  0.00  0.00    +0.000 C 
BRANCH  13  14
ATOM     14  C   UNL     1       7.132   6.356  17.552  0.00  0.00    +0.000 C 
ATOM     15  F   UNL     1       6.027   7.128  17.634  0.00  0.00    +0.000 F 
ATOM     16  F   UNL     1       7.976   6.746  18.531  0.00  0.00    +0.000 F 
ATOM     17  F   UNL     1       7.750   6.669  16.378  0.00  0.00    +0.000 F 
ENDBRANCH  13  14
BRANCH  13  18
ATOM     18  O   UNL     1       8.001   4.048  17.835  0.00  0.00    +0.000 OA
ATOM     19  H   UNL     1       8.414   4.376  18.656  0.00  0.00    +0.000 HD
ENDBRANCH  13  18
ENDBRANCH   1  13
TORSDOF 4
ENDMDL
MODEL 3
REMARK VINA RESULT:      -7.3      3.285      5.548
REMARK  Name = 
REMARK  5 active torsions:
REMARK  status: ('A' for Active; 'I' for Inactive)
REMARK    1  A    between atoms: C_1  and  C_2
REMARK    2  A    between atoms: C_2  and  O_3
REMARK    3  A    between atoms: C_2  and  C_4
REMARK    4  A    between atoms: C_2  and  C_14
REMARK    5  A    between atoms: N_6  and  C_7
REMARK                            x       y       z     vdW  Elec       q    Type
REMARK                         _______ _______ _______ _____ _____    ______ ____
ROOT
ATOM      1  C   UNL     1       4.482   3.904  19.490  0.00  0.00    +0.000 C 
ATOM      2  O   UNL     1       3.825   4.922  19.706  0.00  0.00    +0.000 OA
ATOM      3  N   UNL     1       5.704   3.896  18.840  0.00  0.00    +0.000 N 
ATOM      4  H   UNL     1       5.995   3.049  18.355  0.00  0.00    +0.000 HD
ENDROOT
BRANCH   3   5
ATOM      5  C   UNL     1       6.387   5.066  18.420  0.00  0.00    +0.000 A 
ATOM      6  C   UNL     1       7.384   5.661  19.203  0.00  0.00    +0.000 A 
ATOM      7  C   UNL     1       8.042   6.813  18.758  0.00  0.00    +0.000 A 
ATOM      8  C   UNL     1       7.701   7.386  17.533  0.00  0.00    +0.000 A 
ATOM      9  C   UNL     1       6.712   6.797  16.740  0.00  0.00    +0.000 A 
ATOM     10  C   UNL     1       6.077   5.635  17.174  0.00  0.00    +0.000 A 
ATOM     11 CL   UNL     1       4.844   4.945  16.170  0.00  0.00    +0.000 Cl
ENDBRANCH   3   5
BRANCH   1  13
ATOM     12  C   UNL     1       3.067   2.656  21.148  0.00  0.00    +0.000 C 
ATOM     13  C   UNL     1       3.955   2.514  19.908  0.00  0.00    +0.000 C 
BRANCH  13  14
ATOM     14  C   UNL     1       3.164   1.915  18.733  0.00  0.00    +0.000 C 
ATOM     15  F   UNL     1       1.931   1.488  19.078  0.00  0.00    +0.000 F 
ATOM     16  F   UNL     1       3.025   2.761  17.690  0.00  0.00    +0.000 F 
ATOM     17  F   UNL     1       3.840   0.834  18.252  0.00  0.00    +0.000 F 
ENDBRANCH  13  14
BRANCH  13  18
ATOM     18  O   UNL     1       5.074   1.687  20.303  0.00  0.00    +0.000 OA
ATOM     19  H   UNL     1       4.755   0.771  20.407  0.00  0.00    +0.000 HD
ENDBRANCH  13  18
ENDBRANCH   1  13
TORSDOF 4
ENDMDL
MODEL 4
REMARK VINA RESULT:      -7.2      1.469      1.711
REMARK  Name = 
REMARK  5 active torsions:
REMARK  status: ('A' for Active; 'I' for Inactive)
REMARK    1  A    between atoms: C_1  and  C_2
REMARK    2  A    between atoms: C_2  and  O_3
REMARK    3  A    between atoms: C_2  and  C_4
REMARK    4  A    between atoms: C_2  and  C_14
REMARK    5  A    between atoms: N_6  and  C_7
REMARK                            x       y       z     vdW  Elec       q    Type
REMARK                         _______ _______ _______ _____ _____    ______ ____
ROOT
ATOM      1  C   UNL     1       6.045   4.703  18.739  0.00  0.00    +0.000 C 
ATOM      2  O   UNL     1       6.440   4.937  19.881  0.00  0.00    +0.000 OA
ATOM      3  N   UNL     1       4.783   4.218  18.442  0.00  0.00    +0.000 N 
ATOM      4  H   UNL     1       4.652   3.691  17.582  0.00  0.00    +0.000 HD
ENDROOT
BRANCH   3   5
ATOM      5  C   UNL     1       3.765   4.013  19.408  0.00  0.00    +0.000 A 
ATOM      6  C   UNL     1       3.644   2.808  20.110  0.00  0.00    +0.000 A 
ATOM      7  C   UNL     1       2.630   2.639  21.060  0.00  0.00    +0.000 A 
ATOM      8  C   UNL     1       1.721   3.668  21.306  0.00  0.00    +0.000 A 
ATOM      9  C   UNL     1       1.837   4.878  20.615  0.00  0.00    +0.000 A 
ATOM     10  C   UNL     1       2.864   5.052  19.690  0.00  0.00    +0.000 A 
ATOM     11 CL   UNL     1       2.961   6.561  18.841  0.00  0.00    +0.000 Cl
ENDBRANCH   3   5
BRANCH   1  13
ATOM     12  C   UNL     1       6.291   4.359  16.262  0.00  0.00    +0.000 C 
ATOM     13  C   UNL     1       6.972   4.905  17.520  0.00  0.00    +0.000 C 
BRANCH  13  14
ATOM     14  C   UNL     1       7.270   6.407  17.374  0.00  0.00    +0.000 C 
ATOM     15  F   UNL     1       6.175   7.187  17.506  0.00  0.00    +0.000 F 
ATOM     16  F   UNL     1       8.199   6.860  18.242  0.00  0.00    +0.000 F 
ATOM     17  F   UNL     1       7.776   6.637  16.130  0.00  0.00    +0.000 F 
ENDBRANCH  13  14
BRANCH  13  18
ATOM     18  O   UNL     1       8.171   4.117  17.708  0.00  0.00    +0.000 OA
ATOM     19  H   UNL     1       7.959   3.187  17.505  0.00  0.00    +0.000 HD
ENDBRANCH  13  18
ENDBRANCH   1  13
TORSDOF 4
ENDMDL
MODEL 5
REMARK VINA RESULT:      -7.2      0.486      1.060
REMARK  Name = 
REMARK  5 active torsions:
REMARK  status: ('A' for Active; 'I' for Inactive)
REMARK    1  A    between atoms: C_1  and  C_2
REMARK    2  A    between atoms: C_2  and  O_3
REMARK    3  A    between atoms: C_2  and  C_4
REMARK    4  A    between atoms: C_2  and  C_14
REMARK    5  A    between atoms: N_6  and  C_7
REMARK                            x       y       z     vdW  Elec       q    Type
REMARK                         _______ _______ _______ _____ _____    ______ ____
ROOT
ATOM      1  C   UNL     1       5.752   4.382  18.062  0.00  0.00    +0.000 C 
ATOM      2  O   UNL     1       5.965   4.020  19.219  0.00  0.00    +0.000 OA
ATOM      3  N   UNL     1       4.527   4.264  17.429  0.00  0.00    +0.000 N 
ATOM      4  H   UNL     1       4.505   4.204  16.413  0.00  0.00    +0.000 HD
ENDROOT
BRANCH   3   5
ATOM      5  C   UNL     1       3.349   3.793  18.062  0.00  0.00    +0.000 A 
ATOM      6  C   UNL     1       2.949   2.454  17.977  0.00  0.00    +0.000 A 
ATOM      7  C   UNL     1       1.782   2.020  18.617  0.00  0.00    +0.000 A 
ATOM      8  C   UNL     1       1.000   2.923  19.337  0.00  0.00    +0.000 A 
ATOM      9  C   UNL     1       1.394   4.260  19.435  0.00  0.00    +0.000 A 
ATOM     10  C   UNL     1       2.570   4.683  18.818  0.00  0.00    +0.000 A 
ATOM     11 CL   UNL     1       3.014   6.354  18.948  0.00  0.00    +0.000 Cl
ENDBRANCH   3   5
BRANCH   1  13
ATOM     12  C   UNL     1       6.490   4.898  15.717  0.00  0.00    +0.000 C 
ATOM     13  C   UNL     1       6.883   4.977  17.195  0.00  0.00    +0.000 C 
BRANCH  13  14
ATOM     14  C   UNL     1       7.115   6.435  17.624  0.00  0.00    +0.000 C 
ATOM     15  F   UNL     1       5.979   7.164  17.685  0.00  0.00    +0.000 F 
ATOM     16  F   UNL     1       7.740   6.555  18.815  0.00  0.00    +0.000 F 
ATOM     17  F   UNL     1       7.927   7.039  16.712  0.00  0.00    +0.000 F 
ENDBRANCH  13  14
BRANCH  13  18
ATOM     18  O   UNL     1       8.067   4.160  17.343  0.00  0.00    +0.000 OA
ATOM     19  H   UNL     1       7.996   3.404  16.731  0.00  0.00    +0.000 HD
ENDBRANCH  13  18
ENDBRANCH   1  13
TORSDOF 4
ENDMDL
MODEL 6
REMARK VINA RESULT:      -7.0      1.143      1.321
REMARK  Name = 
REMARK  5 active torsions:
REMARK  status: ('A' for Active; 'I' for Inactive)
REMARK    1  A    between atoms: C_1  and  C_2
REMARK    2  A    between atoms: C_2  and  O_3
REMARK    3  A    between atoms: C_2  and  C_4
REMARK    4  A    between atoms: C_2  and  C_14
REMARK    5  A    between atoms: N_6  and  C_7
REMARK                            x       y       z     vdW  Elec       q    Type
REMARK                         _______ _______ _______ _____ _____    ______ ____
ROOT
ATOM      1  C   UNL     1       5.571   4.249  18.128  0.00  0.00    +0.000 C 
ATOM      2  O   UNL     1       5.995   4.011  19.259  0.00  0.00    +0.000 OA
ATOM      3  N   UNL     1       4.240   4.150  17.765  0.00  0.00    +0.000 N 
ATOM      4  H   UNL     1       4.010   3.971  16.789  0.00  0.00    +0.000 HD
ENDROOT
BRANCH   3   5
ATOM      5  C   UNL     1       3.191   3.846  18.670  0.00  0.00    +0.000 A 
ATOM      6  C   UNL     1       2.800   2.527  18.933  0.00  0.00    +0.000 A 
ATOM      7  C   UNL     1       1.764   2.261  19.835  0.00  0.00    +0.000 A 
ATOM      8  C   UNL     1       1.102   3.310  20.472  0.00  0.00    +0.000 A 
ATOM      9  C   UNL     1       1.489   4.630  20.222  0.00  0.00    +0.000 A 
ATOM     10  C   UNL     1       2.539   4.890  19.344  0.00  0.00    +0.000 A 
ATOM     11 CL   UNL     1       2.975   6.542  19.048  0.00  0.00    +0.000 Cl
ENDBRANCH   3   5
BRANCH   1  13
ATOM     12  C   UNL     1       6.106   3.958  15.690  0.00  0.00    +0.000 C 
ATOM     13  C   UNL     1       6.532   4.651  16.988  0.00  0.00    +0.000 C 
BRANCH  13  14
ATOM     14  C   UNL     1       6.493   6.181  16.830  0.00  0.00    +0.000 C 
ATOM     15  F   UNL     1       7.701   6.724  16.570  0.00  0.00    +0.000 F 
ATOM     16  F   UNL     1       5.641   6.603  15.872  0.00  0.00    +0.000 F 
ATOM     17  F   UNL     1       6.051   6.732  17.995  0.00  0.00    +0.000 F 
ENDBRANCH  13  14
BRANCH  13  18
ATOM     18  O   UNL     1       7.857   4.158  17.295  0.00  0.00    +0.000 OA
ATOM     19  H   UNL     1       8.219   4.693  18.026  0.00  0.00    +0.000 HD
ENDBRANCH  13  18
ENDBRANCH   1  13
TORSDOF 4
ENDMDL
MODEL 7
REMARK VINA RESULT:      -7.0      2.252      2.796
REMARK  Name = 
REMARK  5 active torsions:
REMARK  status: ('A' for Active; 'I' for Inactive)
REMARK    1  A    between atoms: C_1  and  C_2
REMARK    2  A    between atoms: C_2  and  O_3
REMARK    3  A    between atoms: C_2  and  C_4
REMARK    4  A    between atoms: C_2  and  C_14
REMARK    5  A    between atoms: N_6  and  C_7
REMARK                            x       y       z     vdW  Elec       q    Type
REMARK                         _______ _______ _______ _____ _____    ______ ____
ROOT
ATOM      1  C   UNL     1       5.337   5.029  18.241  0.00  0.00    +0.000 C 
ATOM      2  O   UNL     1       5.872   4.642  19.279  0.00  0.00    +0.000 OA
ATOM      3  N   UNL     1       3.985   4.899  17.974  0.00  0.00    +0.000 N 
ATOM      4  H   UNL     1       3.679   4.864  17.003  0.00  0.00    +0.000 HD
ENDROOT
BRANCH   3   5
ATOM      5  C   UNL     1       3.040   4.384  18.897  0.00  0.00    +0.000 A 
ATOM      6  C   UNL     1       2.357   5.212  19.796  0.00  0.00    +0.000 A 
ATOM      7  C   UNL     1       1.427   4.673  20.692  0.00  0.00    +0.000 A 
ATOM      8  C   UNL     1       1.181   3.300  20.705  0.00  0.00    +0.000 A 
ATOM      9  C   UNL     1       1.852   2.465  19.807  0.00  0.00    +0.000 A 
ATOM     10  C   UNL     1       2.758   3.009  18.898  0.00  0.00    +0.000 A 
ATOM     11 CL   UNL     1       3.582   1.936  17.814  0.00  0.00    +0.000 Cl
ENDBRANCH   3   5
BRANCH   1  13
ATOM     12  C   UNL     1       7.153   6.681  17.708  0.00  0.00    +0.000 C 
ATOM     13  C   UNL     1       6.168   5.672  17.109  0.00  0.00    +0.000 C 
BRANCH  13  14
ATOM     14  C   UNL     1       6.915   4.559  16.355  0.00  0.00    +0.000 C 
ATOM     15  F   UNL     1       6.149   3.476  16.102  0.00  0.00    +0.000 F 
ATOM     16  F   UNL     1       7.447   4.965  15.183  0.00  0.00    +0.000 F 
ATOM     17  F   UNL     1       7.963   4.137  17.117  0.00  0.00    +0.000 F 
ENDBRANCH  13  14
BRANCH  13  18
ATOM     18  O   UNL     1       5.285   6.429  16.250  0.00  0.00    +0.000 OA
ATOM     19  H   UNL     1       4.545   5.850  15.986  0.00  0.00    +0.000 HD
ENDBRANCH  13  18
ENDBRANCH   1  13
TORSDOF 4
ENDMDL
MODEL 8
REMARK VINA RESULT:      -7.0      2.007      2.107
REMARK  Name = 
REMARK  5 active torsions:
REMARK  status: ('A' for Active; 'I' for Inactive)
REMARK    1  A    between atoms: C_1  and  C_2
REMARK    2  A    between atoms: C_2  and  O_3
REMARK    3  A    between atoms: C_2  and  C_4
REMARK    4  A    between atoms: C_2  and  C_14
REMARK    5  A    between atoms: N_6  and  C_7
REMARK                            x       y       z     vdW  Elec       q    Type
REMARK                         _______ _______ _______ _____ _____    ______ ____
ROOT
ATOM      1  C   UNL     1       4.790   4.786  18.142  0.00  0.00    +0.000 C 
ATOM      2  O   UNL     1       4.482   5.823  18.729  0.00  0.00    +0.000 OA
ATOM      3  N   UNL     1       4.260   3.543  18.439  0.00  0.00    +0.000 N 
ATOM      4  H   UNL     1       4.807   2.712  18.220  0.00  0.00    +0.000 HD
ENDROOT
BRANCH   3   5
ATOM      5  C   UNL     1       3.237   3.325  19.397  0.00  0.00    +0.000 A 
ATOM      6  C   UNL     1       3.510   2.790  20.662  0.00  0.00    +0.000 A 
ATOM      7  C   UNL     1       2.478   2.591  21.586  0.00  0.00    +0.000 A 
ATOM      8  C   UNL     1       1.164   2.913  21.249  0.00  0.00    +0.000 A 
ATOM      9  C   UNL     1       0.881   3.455  19.991  0.00  0.00    +0.000 A 
ATOM     10  C   UNL     1       1.915   3.676  19.083  0.00  0.00    +0.000 A 
ATOM     11 CL   UNL     1       1.520   4.332  17.528  0.00  0.00    +0.000 Cl
ENDBRANCH   3   5
BRANCH   1  13
ATOM     12  C   UNL     1       5.479   5.842  15.969  0.00  0.00    +0.000 C 
ATOM     13  C   UNL     1       5.852   4.793  17.020  0.00  0.00    +0.000 C 
BRANCH  13  14
ATOM     14  C   UNL     1       7.223   5.106  17.645  0.00  0.00    +0.000 C 
ATOM     15  F   UNL     1       8.170   4.192  17.346  0.00  0.00    +0.000 F 
ATOM     16  F   UNL     1       7.705   6.320  17.306  0.00  0.00    +0.000 F 
ATOM     17  F   UNL     1       7.096   5.119  19.002  0.00  0.00    +0.000 F 
ENDBRANCH  13  14
BRANCH  13  18
ATOM     18  O   UNL     1       5.829   3.515  16.344  0.00  0.00    +0.000 OA
ATOM     19  H   UNL     1       5.368   2.874  16.917  0.00  0.00    +0.000 HD
ENDBRANCH  13  18
ENDBRANCH   1  13
TORSDOF 4
ENDMDL
MODEL 9
REMARK VINA RESULT:      -6.9      1.801      2.337
REMARK  Name = 
REMARK  5 active torsions:
REMARK  status: ('A' for Active; 'I' for Inactive)
REMARK    1  A    between atoms: C_1  and  C_2
REMARK    2  A    between atoms: C_2  and  O_3
REMARK    3  A    between atoms: C_2  and  C_4
REMARK    4  A    between atoms: C_2  and  C_14
REMARK    5  A    between atoms: N_6  and  C_7
REMARK                            x       y       z     vdW  Elec       q    Type
REMARK                         _______ _______ _______ _____ _____    ______ ____
ROOT
ATOM      1  C   UNL     1       5.067   4.807  17.690  0.00  0.00    +0.000 C 
ATOM      2  O   UNL     1       4.209   5.119  16.864  0.00  0.00    +0.000 OA
ATOM      3  N   UNL     1       4.781   4.330  18.957  0.00  0.00    +0.000 N 
ATOM      4  H   UNL     1       5.468   4.463  19.697  0.00  0.00    +0.000 HD
ENDROOT
BRANCH   3   5
ATOM      5  C   UNL     1       3.471   4.062  19.428  0.00  0.00    +0.000 A 
ATOM      6  C   UNL     1       2.738   5.009  20.154  0.00  0.00    +0.000 A 
ATOM      7  C   UNL     1       1.445   4.715  20.601  0.00  0.00    +0.000 A 
ATOM      8  C   UNL     1       0.878   3.468  20.336  0.00  0.00    +0.000 A 
ATOM      9  C   UNL     1       1.598   2.518  19.606  0.00  0.00    +0.000 A 
ATOM     10  C   UNL     1       2.875   2.824  19.139  0.00  0.00    +0.000 A 
ATOM     11 CL   UNL     1       3.741   1.612  18.254  0.00  0.00    +0.000 Cl
ENDBRANCH   3   5
BRANCH   1  13
ATOM     12  C   UNL     1       6.830   4.580  15.915  0.00  0.00    +0.000 C 
ATOM     13  C   UNL     1       6.570   4.967  17.374  0.00  0.00    +0.000 C 
BRANCH  13  14
ATOM     14  C   UNL     1       6.973   6.428  17.634  0.00  0.00    +0.000 C 
ATOM     15  F   UNL     1       5.925   7.278  17.658  0.00  0.00    +0.000 F 
ATOM     16  F   UNL     1       7.664   6.600  18.781  0.00  0.00    +0.000 F 
ATOM     17  F   UNL     1       7.800   6.842  16.633  0.00  0.00    +0.000 F 
ENDBRANCH  13  14
BRANCH  13  18
ATOM     18  O   UNL     1       7.321   4.031  18.181  0.00  0.00    +0.000 OA
ATOM     19  H   UNL     1       7.877   3.492  17.588  0.00  0.00    +0.000 HD
ENDBRANCH  13  18
ENDBRANCH   1  13
TORSDOF 4
ENDMDL
