MODEL 1
REMARK VINA RESULT:      -8.0      0.000      0.000
REMARK  Name = 
REMARK  5 active torsions:
REMARK  status: ('A' for Active; 'I' for Inactive)
REMARK    1  A    between atoms: N_1  and  C_2
REMARK    2  A    between atoms: C_2  and  C_3
REMARK    3  A    between atoms: C_2  and  C_10
REMARK    4  A    between atoms: C_3  and  C_4
REMARK    5  A    between atoms: C_15  and  C_16
REMARK                            x       y       z     vdW  Elec       q    Type
REMARK                         _______ _______ _______ _____ _____    ______ ____
ROOT
ATOM      1  C   UNL     1       5.723   4.784  18.295  0.00  0.00    +0.000 C 
ATOM      2  O   UNL     1       6.013   3.992  19.199  0.00  0.00    +0.000 OA
ATOM      3  N   UNL     1       4.641   5.662  18.426  0.00  0.00    +0.000 N 
ATOM      4  C   UNL     1       4.034   5.858  19.744  0.00  0.00    +0.000 C 
ATOM      5  C   UNL     1       2.505   5.804  19.679  0.00  0.00    +0.000 C 
ATOM      6  C   UNL     1       1.878   6.734  18.616  0.00  0.00    +0.000 C 
ATOM      7  C   UNL     1       2.651   6.584  17.284  0.00  0.00    +0.000 C 
ATOM      8  C   UNL     1       4.184   6.616  17.419  0.00  0.00    +0.000 C 
ENDROOT
BRANCH   6   9
ATOM      9  C   UNL     1       1.725   8.186  19.028  0.00  0.00    +0.000 A 
ATOM     10  N   UNL     1       2.062   9.139  18.145  0.00  0.00    +0.000 NA
ATOM     11  O   UNL     1       1.683  10.342  18.687  0.00  0.00    +0.000 OA
ATOM     12  C   UNL     1       1.130  10.140  19.909  0.00  0.00    +0.000 A 
ATOM     13  C   UNL     1       0.590  11.134  20.723  0.00  0.00    +0.000 A 
ATOM     14  C   UNL     1       0.081  10.718  21.943  0.00  0.00    +0.000 A 
ATOM     15  F   UNL     1      -0.464  11.625  22.764  0.00  0.00    +0.000 F 
ATOM     16  C   UNL     1       0.125   9.380  22.336  0.00  0.00    +0.000 A 
ATOM     17  C   UNL     1       0.663   8.393  21.480  0.00  0.00    +0.000 A 
ATOM     18  C   UNL     1       1.170   8.781  20.212  0.00  0.00    +0.000 A 
ENDBRANCH   6   9
BRANCH   1  19
ATOM     19  C   UNL     1       6.604   4.825  16.991  0.00  0.00    +0.000 C 
BRANCH  19  20
ATOM     20  N   UNL     1       7.924   4.220  17.304  0.00  0.00    +0.000 NA
ATOM     21  H   UNL     1       7.900   3.863  18.261  0.00  0.00    +0.000 HD
ATOM     22  H   UNL     1       8.615   4.974  17.329  0.00  0.00    +0.000 HD
ENDBRANCH  19  20
BRANCH  19  23
ATOM     23  C   UNL     1       5.910   4.066  15.817  0.00  0.00    +0.000 C 
BRANCH  23  24
ATOM     24  C   UNL     1       6.467   4.226  14.404  0.00  0.00    +0.000 A 
ATOM     25  C   UNL     1       5.960   3.410  13.376  0.00  0.00    +0.000 A 
ATOM     26  C   UNL     1       6.407   3.542  12.056  0.00  0.00    +0.000 A 
ATOM     27  C   UNL     1       7.364   4.500  11.740  0.00  0.00    +0.000 A 
ATOM     28  C   UNL     1       7.863   5.332  12.737  0.00  0.00    +0.000 A 
ATOM     29  C   UNL     1       7.411   5.202  14.057  0.00  0.00    +0.000 A 
ENDBRANCH  23  24
ENDBRANCH  19  23
ENDBRANCH   1  19
TORSDOF 5
ENDMDL
MODEL 2
REMARK VINA RESULT:      -7.9      3.778      8.585
REMARK  Name = 
REMARK  5 active torsions:
REMARK  status: ('A' for Active; 'I' for Inactive)
REMARK    1  A    between atoms: N_1  and  C_2
REMARK    2  A    between atoms: C_2  and  C_3
REMARK    3  A    between atoms: C_2  and  C_10
REMARK    4  A    between atoms: C_3  and  C_4
REMARK    5  A    between atoms: C_15  and  C_16
REMARK                            x       y       z     vdW  Elec       q    Type
REMARK                         _______ _______ _______ _____ _____    ______ ____
ROOT
ATOM      1  C   UNL     1       3.696   4.421  19.024  0.00  0.00    +0.000 C 
ATOM      2  O   UNL     1       3.957   3.522  19.831  0.00  0.00    +0.000 OA
ATOM      3  N   UNL     1       4.612   4.786  18.031  0.00  0.00    +0.000 N 
ATOM      4  C   UNL     1       5.753   3.911  17.753  0.00  0.00    +0.000 C 
ATOM      5  C   UNL     1       7.060   4.702  17.640  0.00  0.00    +0.000 C 
ATOM      6  C   UNL     1       7.002   5.895  16.660  0.00  0.00    +0.000 C 
ATOM      7  C   UNL     1       5.705   6.701  16.910  0.00  0.00    +0.000 C 
ATOM      8  C   UNL     1       4.430   5.848  17.045  0.00  0.00    +0.000 C 
ENDROOT
BRANCH   6   9
ATOM      9  C   UNL     1       7.185   5.547  15.195  0.00  0.00    +0.000 A 
ATOM     10  N   UNL     1       8.297   5.970  14.573  0.00  0.00    +0.000 NA
ATOM     11  O   UNL     1       8.303   5.396  13.325  0.00  0.00    +0.000 OA
ATOM     12  C   UNL     1       7.191   4.635  13.166  0.00  0.00    +0.000 A 
ATOM     13  C   UNL     1       6.894   3.868  12.041  0.00  0.00    +0.000 A 
ATOM     14  C   UNL     1       5.698   3.168  12.074  0.00  0.00    +0.000 A 
ATOM     15  F   UNL     1       5.364   2.402  11.028  0.00  0.00    +0.000 F 
ATOM     16  C   UNL     1       4.836   3.244  13.169  0.00  0.00    +0.000 A 
ATOM     17  C   UNL     1       5.175   4.017  14.303  0.00  0.00    +0.000 A 
ATOM     18  C   UNL     1       6.404   4.726  14.312  0.00  0.00    +0.000 A 
ENDBRANCH   6   9
BRANCH   1  19
ATOM     19  C   UNL     1       2.298   5.142  19.095  0.00  0.00    +0.000 C 
BRANCH  19  20
ATOM     20  N   UNL     1       1.272   4.129  19.451  0.00  0.00    +0.000 NA
ATOM     21  H   UNL     1       0.639   4.013  18.659  0.00  0.00    +0.000 HD
ATOM     22  H   UNL     1       0.687   4.524  20.191  0.00  0.00    +0.000 HD
ENDBRANCH  19  20
BRANCH  19  23
ATOM     23  C   UNL     1       2.317   6.304  20.138  0.00  0.00    +0.000 C 
BRANCH  23  24
ATOM     24  C   UNL     1       1.912   7.705  19.686  0.00  0.00    +0.000 A 
ATOM     25  C   UNL     1       2.177   8.097  18.361  0.00  0.00    +0.000 A 
ATOM     26  C   UNL     1       1.792   9.355  17.883  0.00  0.00    +0.000 A 
ATOM     27  C   UNL     1       1.126  10.241  18.722  0.00  0.00    +0.000 A 
ATOM     28  C   UNL     1       0.833   9.866  20.029  0.00  0.00    +0.000 A 
ATOM     29  C   UNL     1       1.215   8.604  20.505  0.00  0.00    +0.000 A 
ENDBRANCH  23  24
ENDBRANCH  19  23
ENDBRANCH   1  19
TORSDOF 5
ENDMDL
MODEL 3
REMARK VINA RESULT:      -7.7      0.794      1.117
REMARK  Name = 
REMARK  5 active torsions:
REMARK  status: ('A' for Active; 'I' for Inactive)
REMARK    1  A    between atoms: N_1  and  C_2
REMARK    2  A    between atoms: C_2  and  C_3
REMARK    3  A    between atoms: C_2  and  C_10
REMARK    4  A    between atoms: C_3  and  C_4
REMARK    5  A    between atoms: C_15  and  C_16
REMARK                            x       y       z     vdW  Elec       q    Type
REMARK                         _______ _______ _______ _____ _____    ______ ____
ROOT
ATOM      1  C   UNL     1       5.978   5.030  18.552  0.00  0.00    +0.000 C 
ATOM      2  O   UNL     1       5.879   4.004  19.235  0.00  0.00    +0.000 OA
ATOM      3  N   UNL     1       4.913   5.933  18.450  0.00  0.00    +0.000 N 
ATOM      4  C   UNL     1       3.789   5.823  19.382  0.00  0.00    +0.000 C 
ATOM      5  C   UNL     1       2.441   5.921  18.661  0.00  0.00    +0.000 C 
ATOM      6  C   UNL     1       2.300   7.151  17.738  0.00  0.00    +0.000 C 
ATOM      7  C   UNL     1       3.577   7.295  16.876  0.00  0.00    +0.000 C 
ATOM      8  C   UNL     1       4.900   7.156  17.652  0.00  0.00    +0.000 C 
ENDROOT
BRANCH   6   9
ATOM      9  C   UNL     1       1.929   8.449  18.430  0.00  0.00    +0.000 A 
ATOM     10  N   UNL     1       1.919   9.579  17.706  0.00  0.00    +0.000 NA
ATOM     11  O   UNL     1       1.401  10.566  18.507  0.00  0.00    +0.000 OA
ATOM     12  C   UNL     1       1.107  10.057  19.729  0.00  0.00    +0.000 A 
ATOM     13  C   UNL     1       0.520  10.764  20.777  0.00  0.00    +0.000 A 
ATOM     14  C   UNL     1       0.311  10.059  21.952  0.00  0.00    +0.000 A 
ATOM     15  F   UNL     1      -0.264  10.680  22.990  0.00  0.00    +0.000 F 
ATOM     16  C   UNL     1       0.685   8.721  22.078  0.00  0.00    +0.000 A 
ATOM     17  C   UNL     1       1.262   8.026  20.991  0.00  0.00    +0.000 A 
ATOM     18  C   UNL     1       1.467   8.711  19.765  0.00  0.00    +0.000 A 
ENDBRANCH   6   9
BRANCH   1  19
ATOM     19  C   UNL     1       7.334   5.341  17.815  0.00  0.00    +0.000 C 
BRANCH  19  20
ATOM     20  N   UNL     1       8.056   4.059  17.614  0.00  0.00    +0.000 NA
ATOM     21  H   UNL     1       7.814   3.688  16.694  0.00  0.00    +0.000 HD
ATOM     22  H   UNL     1       7.672   3.377  18.274  0.00  0.00    +0.000 HD
ENDBRANCH  19  20
BRANCH  19  23
ATOM     23  C   UNL     1       7.082   6.055  16.450  0.00  0.00    +0.000 C 
BRANCH  23  24
ATOM     24  C   UNL     1       6.780   5.205  15.218  0.00  0.00    +0.000 A 
ATOM     25  C   UNL     1       5.585   4.463  15.177  0.00  0.00    +0.000 A 
ATOM     26  C   UNL     1       5.240   3.699  14.057  0.00  0.00    +0.000 A 
ATOM     27  C   UNL     1       6.083   3.670  12.951  0.00  0.00    +0.000 A 
ATOM     28  C   UNL     1       7.259   4.413  12.960  0.00  0.00    +0.000 A 
ATOM     29  C   UNL     1       7.600   5.182  14.081  0.00  0.00    +0.000 A 
ENDBRANCH  23  24
ENDBRANCH  19  23
ENDBRANCH   1  19
TORSDOF 5
ENDMDL
MODEL 4
REMARK VINA RESULT:      -7.5      3.677      8.971
REMARK  Name = 
REMARK  5 active torsions:
REMARK  status: ('A' for Active; 'I' for Inactive)
REMARK    1  A    between atoms: N_1  and  C_2
REMARK    2  A    between atoms: C_2  and  C_3
REMARK    3  A    between atoms: C_2  and  C_10
REMARK    4  A    between atoms: C_3  and  C_4
REMARK    5  A    between atoms: C_15  and  C_16
REMARK                            x       y       z     vdW  Elec       q    Type
REMARK                         _______ _______ _______ _____ _____    ______ ____
ROOT
ATOM      1  C   UNL     1       1.890   4.640  19.174  0.00  0.00    +0.000 C 
ATOM      2  O   UNL     1       0.944   3.913  18.850  0.00  0.00    +0.000 OA
ATOM      3  N   UNL     1       3.108   4.589  18.486  0.00  0.00    +0.000 N 
ATOM      4  C   UNL     1       3.172   3.896  17.197  0.00  0.00    +0.000 C 
ATOM      5  C   UNL     1       4.396   2.978  17.107  0.00  0.00    +0.000 C 
ATOM      6  C   UNL     1       5.735   3.663  17.456  0.00  0.00    +0.000 C 
ATOM      7  C   UNL     1       5.565   4.493  18.751  0.00  0.00    +0.000 C 
ATOM      8  C   UNL     1       4.301   5.371  18.795  0.00  0.00    +0.000 C 
ENDROOT
BRANCH   6   9
ATOM      9  C   UNL     1       6.366   4.472  16.338  0.00  0.00    +0.000 A 
ATOM     10  N   UNL     1       7.152   5.509  16.666  0.00  0.00    +0.000 NA
ATOM     11  O   UNL     1       7.721   5.967  15.503  0.00  0.00    +0.000 OA
ATOM     12  C   UNL     1       7.276   5.229  14.455  0.00  0.00    +0.000 A 
ATOM     13  C   UNL     1       7.684   5.383  13.131  0.00  0.00    +0.000 A 
ATOM     14  C   UNL     1       7.099   4.532  12.207  0.00  0.00    +0.000 A 
ATOM     15  F   UNL     1       7.461   4.621  10.920  0.00  0.00    +0.000 F 
ATOM     16  C   UNL     1       6.145   3.587  12.584  0.00  0.00    +0.000 A 
ATOM     17  C   UNL     1       5.766   3.443  13.938  0.00  0.00    +0.000 A 
ATOM     18  C   UNL     1       6.363   4.282  14.915  0.00  0.00    +0.000 A 
ENDBRANCH   6   9
BRANCH   1  19
ATOM     19  C   UNL     1       1.709   5.661  20.359  0.00  0.00    +0.000 C 
BRANCH  19  20
ATOM     20  N   UNL     1       2.398   5.112  21.554  0.00  0.00    +0.000 NA
ATOM     21  H   UNL     1       2.337   4.092  21.525  0.00  0.00    +0.000 HD
ATOM     22  H   UNL     1       1.852   5.378  22.378  0.00  0.00    +0.000 HD
ENDBRANCH  19  20
BRANCH  19  23
ATOM     23  C   UNL     1       2.282   7.065  19.984  0.00  0.00    +0.000 C 
BRANCH  23  24
ATOM     24  C   UNL     1       1.517   8.313  20.420  0.00  0.00    +0.000 A 
ATOM     25  C   UNL     1       1.080   9.221  19.438  0.00  0.00    +0.000 A 
ATOM     26  C   UNL     1       0.341  10.360  19.778  0.00  0.00    +0.000 A 
ATOM     27  C   UNL     1       0.017  10.605  21.108  0.00  0.00    +0.000 A 
ATOM     28  C   UNL     1       0.419   9.709  22.093  0.00  0.00    +0.000 A 
ATOM     29  C   UNL     1       1.155   8.566  21.750  0.00  0.00    +0.000 A 
ENDBRANCH  23  24
ENDBRANCH  19  23
ENDBRANCH   1  19
TORSDOF 5
ENDMDL
MODEL 5
REMARK VINA RESULT:      -7.4      4.887      6.899
REMARK  Name = 
REMARK  5 active torsions:
REMARK  status: ('A' for Active; 'I' for Inactive)
REMARK    1  A    between atoms: N_1  and  C_2
REMARK    2  A    between atoms: C_2  and  C_3
REMARK    3  A    between atoms: C_2  and  C_10
REMARK    4  A    between atoms: C_3  and  C_4
REMARK    5  A    between atoms: C_15  and  C_16
REMARK                            x       y       z     vdW  Elec       q    Type
REMARK                         _______ _______ _______ _____ _____    ______ ____
ROOT
ATOM      1  C   UNL     1       7.468   7.237  17.230  0.00  0.00    +0.000 C 
ATOM      2  O   UNL     1       8.250   7.071  16.287  0.00  0.00    +0.000 OA
ATOM      3  N   UNL     1       6.319   6.450  17.362  0.00  0.00    +0.000 N 
ATOM      4  C   UNL     1       6.189   5.233  16.558  0.00  0.00    +0.000 C 
ATOM      5  C   UNL     1       4.803   5.121  15.917  0.00  0.00    +0.000 C 
ATOM      6  C   UNL     1       3.627   5.281  16.907  0.00  0.00    +0.000 C 
ATOM      7  C   UNL     1       3.889   6.501  17.821  0.00  0.00    +0.000 C 
ATOM      8  C   UNL     1       5.310   6.575  18.410  0.00  0.00    +0.000 C 
ENDROOT
BRANCH   6   9
ATOM      9  C   UNL     1       3.268   4.039  17.701  0.00  0.00    +0.000 A 
ATOM     10  N   UNL     1       3.806   2.867  17.330  0.00  0.00    +0.000 NA
ATOM     11  O   UNL     1       3.462   1.944  18.287  0.00  0.00    +0.000 OA
ATOM     12  C   UNL     1       2.698   2.536  19.240  0.00  0.00    +0.000 A 
ATOM     13  C   UNL     1       2.213   1.911  20.386  0.00  0.00    +0.000 A 
ATOM     14  C   UNL     1       1.440   2.693  21.231  0.00  0.00    +0.000 A 
ATOM     15  F   UNL     1       0.957   2.153  22.357  0.00  0.00    +0.000 F 
ATOM     16  C   UNL     1       1.155   4.027  20.935  0.00  0.00    +0.000 A 
ATOM     17  C   UNL     1       1.678   4.637  19.772  0.00  0.00    +0.000 A 
ATOM     18  C   UNL     1       2.494   3.872  18.899  0.00  0.00    +0.000 A 
ENDBRANCH   6   9
BRANCH   1  19
ATOM     19  C   UNL     1       7.791   8.331  18.316  0.00  0.00    +0.000 C 
BRANCH  19  20
ATOM     20  N   UNL     1       8.766   7.757  19.277  0.00  0.00    +0.000 NA
ATOM     21  H   UNL     1       8.607   8.177  20.194  0.00  0.00    +0.000 HD
ATOM     22  H   UNL     1       9.698   8.079  19.005  0.00  0.00    +0.000 HD
ENDBRANCH  19  20
BRANCH  19  23
ATOM     23  C   UNL     1       8.357   9.628  17.658  0.00  0.00    +0.000 C 
BRANCH  23  24
ATOM     24  C   UNL     1       9.365  10.470  18.437  0.00  0.00    +0.000 A 
ATOM     25  C   UNL     1      10.411  11.100  17.739  0.00  0.00    +0.000 A 
ATOM     26  C   UNL     1      11.339  11.915  18.398  0.00  0.00    +0.000 A 
ATOM     27  C   UNL     1      11.231  12.121  19.768  0.00  0.00    +0.000 A 
ATOM     28  C   UNL     1      10.192  11.526  20.476  0.00  0.00    +0.000 A 
ATOM     29  C   UNL     1       9.260  10.714  19.814  0.00  0.00    +0.000 A 
ENDBRANCH  23  24
ENDBRANCH  19  23
ENDBRANCH   1  19
TORSDOF 5
ENDMDL
MODEL 6
REMARK VINA RESULT:      -7.4      3.732      8.650
REMARK  Name = 
REMARK  5 active torsions:
REMARK  status: ('A' for Active; 'I' for Inactive)
REMARK    1  A    between atoms: N_1  and  C_2
REMARK    2  A    between atoms: C_2  and  C_3
REMARK    3  A    between atoms: C_2  and  C_10
REMARK    4  A    between atoms: C_3  and  C_4
REMARK    5  A    between atoms: C_15  and  C_16
REMARK                            x       y       z     vdW  Elec       q    Type
REMARK                         _______ _______ _______ _____ _____    ______ ____
ROOT
ATOM      1  C   UNL     1       1.947   4.542  19.143  0.00  0.00    +0.000 C 
ATOM      2  O   UNL     1       0.990   3.832  18.812  0.00  0.00    +0.000 OA
ATOM      3  N   UNL     1       3.155   4.499  18.438  0.00  0.00    +0.000 N 
ATOM      4  C   UNL     1       3.196   3.840  17.130  0.00  0.00    +0.000 C 
ATOM      5  C   UNL     1       4.410   2.915  16.998  0.00  0.00    +0.000 C 
ATOM      6  C   UNL     1       5.760   3.579  17.348  0.00  0.00    +0.000 C 
ATOM      7  C   UNL     1       5.614   4.374  18.667  0.00  0.00    +0.000 C 
ATOM      8  C   UNL     1       4.359   5.262  18.751  0.00  0.00    +0.000 C 
ENDROOT
BRANCH   6   9
ATOM      9  C   UNL     1       6.383   4.412  16.244  0.00  0.00    +0.000 A 
ATOM     10  N   UNL     1       7.158   5.452  16.590  0.00  0.00    +0.000 NA
ATOM     11  O   UNL     1       7.723   5.934  15.435  0.00  0.00    +0.000 OA
ATOM     12  C   UNL     1       7.287   5.210  14.374  0.00  0.00    +0.000 A 
ATOM     13  C   UNL     1       7.694   5.389  13.054  0.00  0.00    +0.000 A 
ATOM     14  C   UNL     1       7.119   4.547  12.115  0.00  0.00    +0.000 A 
ATOM     15  F   UNL     1       7.481   4.661  10.830  0.00  0.00    +0.000 F 
ATOM     16  C   UNL     1       6.174   3.586  12.476  0.00  0.00    +0.000 A 
ATOM     17  C   UNL     1       5.796   3.416  13.827  0.00  0.00    +0.000 A 
ATOM     18  C   UNL     1       6.384   4.245  14.817  0.00  0.00    +0.000 A 
ENDBRANCH   6   9
BRANCH   1  19
ATOM     19  C   UNL     1       1.791   5.532  20.357  0.00  0.00    +0.000 C 
BRANCH  19  20
ATOM     20  N   UNL     1       2.295   4.852  21.578  0.00  0.00    +0.000 NA
ATOM     21  H   UNL     1       1.501   4.443  22.075  0.00  0.00    +0.000 HD
ATOM     22  H   UNL     1       2.651   5.572  22.211  0.00  0.00    +0.000 HD
ENDBRANCH  19  20
BRANCH  19  23
ATOM     23  C   UNL     1       2.568   6.862  20.102  0.00  0.00    +0.000 C 
BRANCH  23  24
ATOM     24  C   UNL     1       1.794   8.085  19.614  0.00  0.00    +0.000 A 
ATOM     25  C   UNL     1       1.061   8.844  20.544  0.00  0.00    +0.000 A 
ATOM     26  C   UNL     1       0.367   9.996  20.157  0.00  0.00    +0.000 A 
ATOM     27  C   UNL     1       0.401  10.414  18.831  0.00  0.00    +0.000 A 
ATOM     28  C   UNL     1       1.138   9.691  17.899  0.00  0.00    +0.000 A 
ATOM     29  C   UNL     1       1.837   8.541  18.289  0.00  0.00    +0.000 A 
ENDBRANCH  23  24
ENDBRANCH  19  23
ENDBRANCH   1  19
TORSDOF 5
ENDMDL
MODEL 7
REMARK VINA RESULT:      -7.3      4.086      5.905
REMARK  Name = 
REMARK  5 active torsions:
REMARK  status: ('A' for Active; 'I' for Inactive)
REMARK    1  A    between atoms: N_1  and  C_2
REMARK    2  A    between atoms: C_2  and  C_3
REMARK    3  A    between atoms: C_2  and  C_10
REMARK    4  A    between atoms: C_3  and  C_4
REMARK    5  A    between atoms: C_15  and  C_16
REMARK                            x       y       z     vdW  Elec       q    Type
REMARK                         _______ _______ _______ _____ _____    ______ ____
ROOT
ATOM      1  C   UNL     1       1.951   7.667  19.968  0.00  0.00    +0.000 C 
ATOM      2  O   UNL     1       1.847   7.191  21.104  0.00  0.00    +0.000 OA
ATOM      3  N   UNL     1       1.313   8.864  19.626  0.00  0.00    +0.000 N 
ATOM      4  C   UNL     1       0.768   9.713  20.688  0.00  0.00    +0.000 C 
ATOM      5  C   UNL     1      -0.646  10.199  20.357  0.00  0.00    +0.000 C 
ATOM      6  C   UNL     1      -0.784  10.861  18.968  0.00  0.00    +0.000 C 
ATOM      7  C   UNL     1      -0.069   9.988  17.910  0.00  0.00    +0.000 C 
ATOM      8  C   UNL     1       1.336   9.504  18.314  0.00  0.00    +0.000 C 
ENDROOT
BRANCH   6   9
ATOM      9  C   UNL     1      -0.358  12.315  18.892  0.00  0.00    +0.000 A 
ATOM     10  N   UNL     1      -1.264  13.262  19.181  0.00  0.00    +0.000 NA
ATOM     11  O   UNL     1      -0.599  14.463  19.200  0.00  0.00    +0.000 OA
ATOM     12  C   UNL     1       0.710  14.266  18.905  0.00  0.00    +0.000 A 
ATOM     13  C   UNL     1       1.689  15.258  18.883  0.00  0.00    +0.000 A 
ATOM     14  C   UNL     1       2.970  14.849  18.547  0.00  0.00    +0.000 A 
ATOM     15  F   UNL     1       3.957  15.754  18.522  0.00  0.00    +0.000 F 
ATOM     16  C   UNL     1       3.254  13.519  18.233  0.00  0.00    +0.000 A 
ATOM     17  C   UNL     1       2.242  12.533  18.282  0.00  0.00    +0.000 A 
ATOM     18  C   UNL     1       0.925  12.914  18.647  0.00  0.00    +0.000 A 
ENDBRANCH   6   9
BRANCH   1  19
ATOM     19  C   UNL     1       2.842   6.928  18.900  0.00  0.00    +0.000 C 
BRANCH  19  20
ATOM     20  N   UNL     1       3.883   6.152  19.622  0.00  0.00    +0.000 NA
ATOM     21  H   UNL     1       4.509   6.806  20.094  0.00  0.00    +0.000 HD
ATOM     22  H   UNL     1       4.471   5.693  18.922  0.00  0.00    +0.000 HD
ENDBRANCH  19  20
BRANCH  19  23
ATOM     23  C   UNL     1       1.979   5.993  17.996  0.00  0.00    +0.000 C 
BRANCH  23  24
ATOM     24  C   UNL     1       1.947   4.497  18.302  0.00  0.00    +0.000 A 
ATOM     25  C   UNL     1       1.233   4.047  19.426  0.00  0.00    +0.000 A 
ATOM     26  C   UNL     1       1.137   2.684  19.730  0.00  0.00    +0.000 A 
ATOM     27  C   UNL     1       1.749   1.745  18.907  0.00  0.00    +0.000 A 
ATOM     28  C   UNL     1       2.443   2.166  17.777  0.00  0.00    +0.000 A 
ATOM     29  C   UNL     1       2.533   3.531  17.471  0.00  0.00    +0.000 A 
ENDBRANCH  23  24
ENDBRANCH  19  23
ENDBRANCH   1  19
TORSDOF 5
ENDMDL
MODEL 8
REMARK VINA RESULT:      -7.3      3.187      4.938
REMARK  Name = 
REMARK  5 active torsions:
REMARK  status: ('A' for Active; 'I' for Inactive)
REMARK    1  A    between atoms: N_1  and  C_2
REMARK    2  A    between atoms: C_2  and  C_3
REMARK    3  A    between atoms: C_2  and  C_10
REMARK    4  A    between atoms: C_3  and  C_4
REMARK    5  A    between atoms: C_15  and  C_16
REMARK                            x       y       z     vdW  Elec       q    Type
REMARK                         _______ _______ _______ _____ _____    ______ ____
ROOT
ATOM      1  C   UNL     1       2.813   7.366  18.414  0.00  0.00    +0.000 C 
ATOM      2  O   UNL     1       3.571   7.516  17.449  0.00  0.00    +0.000 OA
ATOM      3  N   UNL     1       1.933   8.382  18.803  0.00  0.00    +0.000 N 
ATOM      4  C   UNL     1       1.691   9.506  17.896  0.00  0.00    +0.000 C 
ATOM      5  C   UNL     1       1.750  10.850  18.628  0.00  0.00    +0.000 C 
ATOM      6  C   UNL     1       0.860  10.930  19.888  0.00  0.00    +0.000 C 
ATOM      7  C   UNL     1       1.056   9.651  20.737  0.00  0.00    +0.000 C 
ATOM      8  C   UNL     1       1.017   8.335  19.940  0.00  0.00    +0.000 C 
ENDROOT
BRANCH   6   9
ATOM      9  C   UNL     1      -0.605  11.229  19.635  0.00  0.00    +0.000 A 
ATOM     10  N   UNL     1      -1.240  12.065  20.472  0.00  0.00    +0.000 NA
ATOM     11  O   UNL     1      -2.485  12.296  19.942  0.00  0.00    +0.000 OA
ATOM     12  C   UNL     1      -2.631  11.593  18.791  0.00  0.00    +0.000 A 
ATOM     13  C   UNL     1      -3.751  11.628  17.962  0.00  0.00    +0.000 A 
ATOM     14  C   UNL     1      -3.704  10.824  16.834  0.00  0.00    +0.000 A 
ATOM     15  F   UNL     1      -4.744  10.825  15.990  0.00  0.00    +0.000 F 
ATOM     16  C   UNL     1      -2.601  10.015  16.558  0.00  0.00    +0.000 A 
ATOM     17  C   UNL     1      -1.473  10.016  17.409  0.00  0.00    +0.000 A 
ATOM     18  C   UNL     1      -1.478  10.846  18.560  0.00  0.00    +0.000 A 
ENDBRANCH   6   9
BRANCH   1  19
ATOM     19  C   UNL     1       2.817   5.999  19.195  0.00  0.00    +0.000 C 
BRANCH  19  20
ATOM     20  N   UNL     1       2.008   5.022  18.423  0.00  0.00    +0.000 NA
ATOM     21  H   UNL     1       1.777   4.236  19.033  0.00  0.00    +0.000 HD
ATOM     22  H   UNL     1       2.610   4.619  17.702  0.00  0.00    +0.000 HD
ENDBRANCH  19  20
BRANCH  19  23
ATOM     23  C   UNL     1       4.272   5.474  19.403  0.00  0.00    +0.000 C 
BRANCH  23  24
ATOM     24  C   UNL     1       5.123   5.154  18.176  0.00  0.00    +0.000 A 
ATOM     25  C   UNL     1       6.362   5.802  18.018  0.00  0.00    +0.000 A 
ATOM     26  C   UNL     1       7.199   5.517  16.933  0.00  0.00    +0.000 A 
ATOM     27  C   UNL     1       6.813   4.572  15.989  0.00  0.00    +0.000 A 
ATOM     28  C   UNL     1       5.602   3.903  16.137  0.00  0.00    +0.000 A 
ATOM     29  C   UNL     1       4.768   4.185  17.227  0.00  0.00    +0.000 A 
ENDBRANCH  23  24
ENDBRANCH  19  23
ENDBRANCH   1  19
TORSDOF 5
ENDMDL
MODEL 9
REMARK VINA RESULT:      -7.3      2.303      3.370
REMARK  Name = 
REMARK  5 active torsions:
REMARK  status: ('A' for Active; 'I' for Inactive)
REMARK    1  A    between atoms: N_1  and  C_2
REMARK    2  A    between atoms: C_2  and  C_3
REMARK    3  A    between atoms: C_2  and  C_10
REMARK    4  A    between atoms: C_3  and  C_4
REMARK    5  A    between atoms: C_15  and  C_16
REMARK                            x       y       z     vdW  Elec       q    Type
REMARK                         _______ _______ _______ _____ _____    ______ ____
ROOT
ATOM      1  C   UNL     1       6.887   4.590  16.256  0.00  0.00    +0.000 C 
ATOM      2  O   UNL     1       7.999   4.356  16.744  0.00  0.00    +0.000 OA
ATOM      3  N   UNL     1       5.741   4.626  17.058  0.00  0.00    +0.000 N 
ATOM      4  C   UNL     1       5.888   4.684  18.514  0.00  0.00    +0.000 C 
ATOM      5  C   UNL     1       4.956   3.694  19.219  0.00  0.00    +0.000 C 
ATOM      6  C   UNL     1       3.476   3.793  18.789  0.00  0.00    +0.000 C 
ATOM      7  C   UNL     1       3.394   3.869  17.246  0.00  0.00    +0.000 C 
ATOM      8  C   UNL     1       4.376   4.859  16.594  0.00  0.00    +0.000 C 
ENDROOT
BRANCH   6   9
ATOM      9  C   UNL     1       2.674   4.894  19.458  0.00  0.00    +0.000 A 
ATOM     10  N   UNL     1       2.145   4.652  20.668  0.00  0.00    +0.000 NA
ATOM     11  O   UNL     1       1.618   5.836  21.121  0.00  0.00    +0.000 OA
ATOM     12  C   UNL     1       1.801   6.805  20.189  0.00  0.00    +0.000 A 
ATOM     13  C   UNL     1       1.436   8.142  20.334  0.00  0.00    +0.000 A 
ATOM     14  C   UNL     1       1.703   8.971  19.256  0.00  0.00    +0.000 A 
ATOM     15  F   UNL     1       1.388  10.270  19.340  0.00  0.00    +0.000 F 
ATOM     16  C   UNL     1       2.291   8.485  18.088  0.00  0.00    +0.000 A 
ATOM     17  C   UNL     1       2.667   7.127  17.979  0.00  0.00    +0.000 A 
ATOM     18  C   UNL     1       2.431   6.256  19.074  0.00  0.00    +0.000 A 
ENDBRANCH   6   9
BRANCH   1  19
ATOM     19  C   UNL     1       6.766   4.884  14.714  0.00  0.00    +0.000 C 
BRANCH  19  20
ATOM     20  N   UNL     1       7.816   5.868  14.346  0.00  0.00    +0.000 NA
ATOM     21  H   UNL     1       8.492   5.410  13.732  0.00  0.00    +0.000 HD
ATOM     22  H   UNL     1       8.347   6.088  15.192  0.00  0.00    +0.000 HD
ENDBRANCH  19  20
BRANCH  19  23
ATOM     23  C   UNL     1       6.915   3.574  13.878  0.00  0.00    +0.000 C 
BRANCH  23  24
ATOM     24  C   UNL     1       5.922   3.305  12.749  0.00  0.00    +0.000 A 
ATOM     25  C   UNL     1       6.103   2.168  11.940  0.00  0.00    +0.000 A 
ATOM     26  C   UNL     1       5.202   1.852  10.916  0.00  0.00    +0.000 A 
ATOM     27  C   UNL     1       4.096   2.665  10.691  0.00  0.00    +0.000 A 
ATOM     28  C   UNL     1       3.885   3.781  11.493  0.00  0.00    +0.000 A 
ATOM     29  C   UNL     1       4.786   4.094  12.520  0.00  0.00    +0.000 A 
ENDBRANCH  23  24
ENDBRANCH  19  23
ENDBRANCH   1  19
TORSDOF 5
ENDMDL
