MODEL 1
REMARK VINA RESULT:      -7.9      0.000      0.000
REMARK  Name = 
REMARK  16 active torsions:
REMARK  status: ('A' for Active; 'I' for Inactive)
REMARK    1  A    between atoms: C_1  and  O_2
REMARK    2  A    between atoms: O_2  and  C_3
REMARK    3  A    between atoms: C_6  and  C_7
REMARK    4  A    between atoms: C_7  and  C_8
REMARK    5  A    between atoms: C_7  and  C_18
REMARK    6  A    between atoms: C_11  and  O_12
REMARK    7  A    between atoms: O_12  and  C_13
REMARK    8  A    between atoms: C_14  and  O_15
REMARK    9  A    between atoms: O_15  and  C_16
REMARK   10  A    between atoms: C_18  and  C_19
REMARK   11  A    between atoms: C_18  and  C_20
REMARK   12  A    between atoms: C_20  and  C_21
REMARK   13  A    between atoms: C_20  and  C_22
REMARK   14  A    between atoms: C_22  and  O_23
REMARK   15  A    between atoms: C_25  and  O_26
REMARK   16  A    between atoms: O_26  and  C_27
REMARK                            x       y       z     vdW  Elec       q    Type
REMARK                         _______ _______ _______ _____ _____    ______ ____
ROOT
ATOM      1  C   UNL     1       3.685   5.160  18.249  0.00  0.00    +0.000 C 
ENDROOT
BRANCH   1   5
ATOM      2  C   UNL     1       6.939   5.141  15.289  0.00  0.00    +0.000 A 
ATOM      3  C   UNL     1       5.933   4.184  15.240  0.00  0.00    +0.000 A 
ATOM      4  C   UNL     1       4.890   4.200  16.167  0.00  0.00    +0.000 A 
ATOM      5  C   UNL     1       4.797   5.153  17.182  0.00  0.00    +0.000 A 
ATOM      6  C   UNL     1       5.855   6.077  17.260  0.00  0.00    +0.000 A 
ATOM      7  C   UNL     1       6.931   6.062  16.346  0.00  0.00    +0.000 A 
BRANCH   2   9
ATOM      8  C   UNL     1       7.513   4.925  13.001  0.00  0.00    +0.000 C 
ATOM      9  O   UNL     1       7.925   5.203  14.341  0.00  0.00    +0.000 OA
ENDBRANCH   2   9
BRANCH   7  10
ATOM     10  O   UNL     1       7.870   7.036  16.574  0.00  0.00    +0.000 OA
ATOM     11  C   UNL     1       7.594   7.912  17.663  0.00  0.00    +0.000 C 
ENDBRANCH   7  10
ENDBRANCH   1   5
BRANCH   1  12
ATOM     12  C   UNL     1       3.025   6.521  18.529  0.00  0.00    +0.000 A 
ATOM     13  C   UNL     1       2.920   7.518  17.556  0.00  0.00    +0.000 A 
ATOM     14  C   UNL     1       2.198   8.691  17.807  0.00  0.00    +0.000 A 
ATOM     15  C   UNL     1       1.574   8.921  19.045  0.00  0.00    +0.000 A 
ATOM     16  C   UNL     1       1.688   7.946  20.047  0.00  0.00    +0.000 A 
ATOM     17  C   UNL     1       2.407   6.763  19.777  0.00  0.00    +0.000 A 
BRANCH  15  18
ATOM     18  O   UNL     1       0.775  10.012  19.269  0.00  0.00    +0.000 OA
ATOM     19  C   UNL     1      -0.486  10.022  18.612  0.00  0.00    +0.000 C 
ENDBRANCH  15  18
BRANCH  16  20
ATOM     20  O   UNL     1       1.130   7.965  21.302  0.00  0.00    +0.000 OA
ATOM     21  C   UNL     1       1.443   9.062  22.154  0.00  0.00    +0.000 C 
ENDBRANCH  16  20
ENDBRANCH   1  12
BRANCH   1  22
ATOM     22  C   UNL     1       2.579   4.026  18.216  0.00  0.00    +0.000 C 
ATOM     23  C   UNL     1       1.239   4.536  17.644  0.00  0.00    +0.000 C 
BRANCH  22  24
ATOM     24  C   UNL     1       2.483   3.053  19.455  0.00  0.00    +0.000 C 
ATOM     25  C   UNL     1       1.299   3.440  20.358  0.00  0.00    +0.000 C 
BRANCH  24  26
ATOM     26  C   UNL     1       3.735   2.851  20.321  0.00  0.00    +0.000 C 
BRANCH  26  27
ATOM     27  O   UNL     1       4.783   2.226  19.581  0.00  0.00    +0.000 OA
ATOM     28  H   UNL     1       4.714   2.511  18.655  0.00  0.00    +0.000 HD
ENDBRANCH  26  27
ENDBRANCH  24  26
ENDBRANCH  22  24
ENDBRANCH   1  22
TORSDOF 10
ENDMDL
MODEL 2
REMARK VINA RESULT:      -7.9      1.475      1.944
REMARK  Name = 
REMARK  16 active torsions:
REMARK  status: ('A' for Active; 'I' for Inactive)
REMARK    1  A    between atoms: C_1  and  O_2
REMARK    2  A    between atoms: O_2  and  C_3
REMARK    3  A    between atoms: C_6  and  C_7
REMARK    4  A    between atoms: C_7  and  C_8
REMARK    5  A    between atoms: C_7  and  C_18
REMARK    6  A    between atoms: C_11  and  O_12
REMARK    7  A    between atoms: O_12  and  C_13
REMARK    8  A    between atoms: C_14  and  O_15
REMARK    9  A    between atoms: O_15  and  C_16
REMARK   10  A    between atoms: C_18  and  C_19
REMARK   11  A    between atoms: C_18  and  C_20
REMARK   12  A    between atoms: C_20  and  C_21
REMARK   13  A    between atoms: C_20  and  C_22
REMARK   14  A    between atoms: C_22  and  O_23
REMARK   15  A    between atoms: C_25  and  O_26
REMARK   16  A    between atoms: O_26  and  C_27
REMARK                            x       y       z     vdW  Elec       q    Type
REMARK                         _______ _______ _______ _____ _____    ______ ____
ROOT
ATOM      1  C   UNL     1       3.176   6.210  19.356  0.00  0.00    +0.000 C 
ENDROOT
BRANCH   1   5
ATOM      2  C   UNL     1       6.445   5.564  16.484  0.00  0.00    +0.000 A 
ATOM      3  C   UNL     1       5.208   6.029  16.055  0.00  0.00    +0.000 A 
ATOM      4  C   UNL     1       4.176   6.253  16.967  0.00  0.00    +0.000 A 
ATOM      5  C   UNL     1       4.316   6.022  18.337  0.00  0.00    +0.000 A 
ATOM      6  C   UNL     1       5.551   5.491  18.750  0.00  0.00    +0.000 A 
ATOM      7  C   UNL     1       6.599   5.235  17.838  0.00  0.00    +0.000 A 
BRANCH   2   9
ATOM      8  C   UNL     1       7.193   4.835  14.358  0.00  0.00    +0.000 C 
ATOM      9  O   UNL     1       7.501   5.420  15.625  0.00  0.00    +0.000 OA
ENDBRANCH   2   9
BRANCH   7  10
ATOM     10  O   UNL     1       7.729   4.718  18.419  0.00  0.00    +0.000 OA
ATOM     11  C   UNL     1       8.245   5.455  19.523  0.00  0.00    +0.000 C 
ENDBRANCH   7  10
ENDBRANCH   1   5
BRANCH   1  12
ATOM     12  C   UNL     1       2.363   7.511  19.228  0.00  0.00    +0.000 A 
ATOM     13  C   UNL     1       2.224   8.192  18.017  0.00  0.00    +0.000 A 
ATOM     14  C   UNL     1       1.371   9.297  17.910  0.00  0.00    +0.000 A 
ATOM     15  C   UNL     1       0.643   9.775  19.013  0.00  0.00    +0.000 A 
ATOM     16  C   UNL     1       0.787   9.123  20.247  0.00  0.00    +0.000 A 
ATOM     17  C   UNL     1       1.639   8.004  20.338  0.00  0.00    +0.000 A 
BRANCH  15  18
ATOM     18  O   UNL     1      -0.276  10.786  18.900  0.00  0.00    +0.000 OA
ATOM     19  C   UNL     1      -1.474  10.478  18.199  0.00  0.00    +0.000 C 
ENDBRANCH  15  18
BRANCH  16  20
ATOM     20  O   UNL     1       0.145   9.411  21.427  0.00  0.00    +0.000 OA
ATOM     21  C   UNL     1       0.893   9.309  22.634  0.00  0.00    +0.000 C 
ENDBRANCH  16  20
ENDBRANCH   1  12
BRANCH   1  22
ATOM     22  C   UNL     1       2.202   4.998  19.655  0.00  0.00    +0.000 C 
ATOM     23  C   UNL     1       2.266   4.549  21.130  0.00  0.00    +0.000 C 
BRANCH  22  24
ATOM     24  C   UNL     1       2.103   3.848  18.579  0.00  0.00    +0.000 C 
ATOM     25  C   UNL     1       1.205   4.278  17.406  0.00  0.00    +0.000 C 
BRANCH  24  26
ATOM     26  C   UNL     1       1.686   2.446  19.047  0.00  0.00    +0.000 C 
BRANCH  26  27
ATOM     27  O   UNL     1       2.583   1.449  18.561  0.00  0.00    +0.000 OA
ATOM     28  H   UNL     1       2.069   0.795  18.058  0.00  0.00    +0.000 HD
ENDBRANCH  26  27
ENDBRANCH  24  26
ENDBRANCH  22  24
ENDBRANCH   1  22
TORSDOF 10
ENDMDL
MODEL 3
REMARK VINA RESULT:      -7.8      1.164      6.345
REMARK  Name = 
REMARK  16 active torsions:
REMARK  status: ('A' for Active; 'I' for Inactive)
REMARK    1  A    between atoms: C_1  and  O_2
REMARK    2  A    between atoms: O_2  and  C_3
REMARK    3  A    between atoms: C_6  and  C_7
REMARK    4  A    between atoms: C_7  and  C_8
REMARK    5  A    between atoms: C_7  and  C_18
REMARK    6  A    between atoms: C_11  and  O_12
REMARK    7  A    between atoms: O_12  and  C_13
REMARK    8  A    between atoms: C_14  and  O_15
REMARK    9  A    between atoms: O_15  and  C_16
REMARK   10  A    between atoms: C_18  and  C_19
REMARK   11  A    between atoms: C_18  and  C_20
REMARK   12  A    between atoms: C_20  and  C_21
REMARK   13  A    between atoms: C_20  and  C_22
REMARK   14  A    between atoms: C_22  and  O_23
REMARK   15  A    between atoms: C_25  and  O_26
REMARK   16  A    between atoms: O_26  and  C_27
REMARK                            x       y       z     vdW  Elec       q    Type
REMARK                         _______ _______ _______ _____ _____    ______ ____
ROOT
ATOM      1  C   UNL     1       3.080   5.193  18.288  0.00  0.00    +0.000 C 
ENDROOT
BRANCH   1   5
ATOM      2  C   UNL     1       1.492   9.207  19.133  0.00  0.00    +0.000 A 
ATOM      3  C   UNL     1       1.931   8.874  17.857  0.00  0.00    +0.000 A 
ATOM      4  C   UNL     1       2.418   7.596  17.584  0.00  0.00    +0.000 A 
ATOM      5  C   UNL     1       2.498   6.594  18.553  0.00  0.00    +0.000 A 
ATOM      6  C   UNL     1       2.111   6.963  19.854  0.00  0.00    +0.000 A 
ATOM      7  C   UNL     1       1.639   8.260  20.156  0.00  0.00    +0.000 A 
BRANCH   2   9
ATOM      8  C   UNL     1       1.546  11.549  18.780  0.00  0.00    +0.000 C 
ATOM      9  O   UNL     1       0.929  10.424  19.409  0.00  0.00    +0.000 OA
ENDBRANCH   2   9
BRANCH   7  10
ATOM     10  O   UNL     1       1.307   8.439  21.475  0.00  0.00    +0.000 OA
ATOM     11  C   UNL     1      -0.088   8.417  21.766  0.00  0.00    +0.000 C 
ENDBRANCH   7  10
ENDBRANCH   1   5
BRANCH   1  12
ATOM     12  C   UNL     1       4.344   5.141  17.411  0.00  0.00    +0.000 A 
ATOM     13  C   UNL     1       4.519   4.186  16.407  0.00  0.00    +0.000 A 
ATOM     14  C   UNL     1       5.620   4.249  15.543  0.00  0.00    +0.000 A 
ATOM     15  C   UNL     1       6.594   5.254  15.663  0.00  0.00    +0.000 A 
ATOM     16  C   UNL     1       6.452   6.209  16.681  0.00  0.00    +0.000 A 
ATOM     17  C   UNL     1       5.334   6.142  17.536  0.00  0.00    +0.000 A 
BRANCH  15  18
ATOM     18  O   UNL     1       7.616   5.393  14.761  0.00  0.00    +0.000 OA
ATOM     19  C   UNL     1       7.393   4.861  13.462  0.00  0.00    +0.000 C 
ENDBRANCH  15  18
BRANCH  16  20
ATOM     20  O   UNL     1       7.271   7.281  16.944  0.00  0.00    +0.000 OA
ATOM     21  C   UNL     1       7.948   7.310  18.196  0.00  0.00    +0.000 C 
ENDBRANCH  16  20
ENDBRANCH   1  12
BRANCH   1  22
ATOM     22  C   UNL     1       3.225   4.178  19.495  0.00  0.00    +0.000 C 
ATOM     23  C   UNL     1       4.667   3.645  19.638  0.00  0.00    +0.000 C 
BRANCH  22  24
ATOM     24  C   UNL     1       2.069   3.128  19.718  0.00  0.00    +0.000 C 
ATOM     25  C   UNL     1       1.090   3.138  18.531  0.00  0.00    +0.000 C 
BRANCH  24  26
ATOM     26  C   UNL     1       1.273   3.188  21.030  0.00  0.00    +0.000 C 
BRANCH  26  27
ATOM     27  O   UNL     1       2.137   3.136  22.165  0.00  0.00    +0.000 OA
ATOM     28  H   UNL     1       2.975   2.728  21.891  0.00  0.00    +0.000 HD
ENDBRANCH  26  27
ENDBRANCH  24  26
ENDBRANCH  22  24
ENDBRANCH   1  22
TORSDOF 10
ENDMDL
MODEL 4
REMARK VINA RESULT:      -7.7      1.193      6.398
REMARK  Name = 
REMARK  16 active torsions:
REMARK  status: ('A' for Active; 'I' for Inactive)
REMARK    1  A    between atoms: C_1  and  O_2
REMARK    2  A    between atoms: O_2  and  C_3
REMARK    3  A    between atoms: C_6  and  C_7
REMARK    4  A    between atoms: C_7  and  C_8
REMARK    5  A    between atoms: C_7  and  C_18
REMARK    6  A    between atoms: C_11  and  O_12
REMARK    7  A    between atoms: O_12  and  C_13
REMARK    8  A    between atoms: C_14  and  O_15
REMARK    9  A    between atoms: O_15  and  C_16
REMARK   10  A    between atoms: C_18  and  C_19
REMARK   11  A    between atoms: C_18  and  C_20
REMARK   12  A    between atoms: C_20  and  C_21
REMARK   13  A    between atoms: C_20  and  C_22
REMARK   14  A    between atoms: C_22  and  O_23
REMARK   15  A    between atoms: C_25  and  O_26
REMARK   16  A    between atoms: O_26  and  C_27
REMARK                            x       y       z     vdW  Elec       q    Type
REMARK                         _______ _______ _______ _____ _____    ______ ____
ROOT
ATOM      1  C   UNL     1       3.007   5.269  18.385  0.00  0.00    +0.000 C 
ENDROOT
BRANCH   1   5
ATOM      2  C   UNL     1       1.425   9.302  19.147  0.00  0.00    +0.000 A 
ATOM      3  C   UNL     1       1.868   8.944  17.880  0.00  0.00    +0.000 A 
ATOM      4  C   UNL     1       2.353   7.659  17.632  0.00  0.00    +0.000 A 
ATOM      5  C   UNL     1       2.427   6.676  18.621  0.00  0.00    +0.000 A 
ATOM      6  C   UNL     1       2.036   7.071  19.913  0.00  0.00    +0.000 A 
ATOM      7  C   UNL     1       1.566   8.373  20.188  0.00  0.00    +0.000 A 
BRANCH   2   9
ATOM      8  C   UNL     1      -0.347  10.806  18.693  0.00  0.00    +0.000 C 
ATOM      9  O   UNL     1       0.864  10.525  19.398  0.00  0.00    +0.000 OA
ENDBRANCH   2   9
BRANCH   7  10
ATOM     10  O   UNL     1       1.229   8.579  21.503  0.00  0.00    +0.000 OA
ATOM     11  C   UNL     1      -0.163   8.518  21.797  0.00  0.00    +0.000 C 
ENDBRANCH   7  10
ENDBRANCH   1   5
BRANCH   1  12
ATOM     12  C   UNL     1       4.270   5.196  17.510  0.00  0.00    +0.000 A 
ATOM     13  C   UNL     1       4.449   4.216  16.531  0.00  0.00    +0.000 A 
ATOM     14  C   UNL     1       5.549   4.258  15.666  0.00  0.00    +0.000 A 
ATOM     15  C   UNL     1       6.522   5.268  15.762  0.00  0.00    +0.000 A 
ATOM     16  C   UNL     1       6.378   6.249  16.754  0.00  0.00    +0.000 A 
ATOM     17  C   UNL     1       5.259   6.202  17.611  0.00  0.00    +0.000 A 
BRANCH  15  18
ATOM     18  O   UNL     1       7.545   5.386  14.857  0.00  0.00    +0.000 OA
ATOM     19  C   UNL     1       7.308   4.855  13.559  0.00  0.00    +0.000 C 
ENDBRANCH  15  18
BRANCH  16  20
ATOM     20  O   UNL     1       7.194   7.328  16.991  0.00  0.00    +0.000 OA
ATOM     21  C   UNL     1       7.970   7.328  18.184  0.00  0.00    +0.000 C 
ENDBRANCH  16  20
ENDBRANCH   1  12
BRANCH   1  22
ATOM     22  C   UNL     1       3.148   4.277  19.612  0.00  0.00    +0.000 C 
ATOM     23  C   UNL     1       4.532   3.594  19.652  0.00  0.00    +0.000 C 
BRANCH  22  24
ATOM     24  C   UNL     1       1.910   3.367  19.972  0.00  0.00    +0.000 C 
ATOM     25  C   UNL     1       1.813   3.162  21.494  0.00  0.00    +0.000 C 
BRANCH  24  26
ATOM     26  C   UNL     1       1.775   2.009  19.269  0.00  0.00    +0.000 C 
BRANCH  26  27
ATOM     27  O   UNL     1       0.669   2.000  18.366  0.00  0.00    +0.000 OA
ATOM     28  H   UNL     1       0.470   1.077  18.138  0.00  0.00    +0.000 HD
ENDBRANCH  26  27
ENDBRANCH  24  26
ENDBRANCH  22  24
ENDBRANCH   1  22
TORSDOF 10
ENDMDL
MODEL 5
REMARK VINA RESULT:      -7.7      1.092      1.282
REMARK  Name = 
REMARK  16 active torsions:
REMARK  status: ('A' for Active; 'I' for Inactive)
REMARK    1  A    between atoms: C_1  and  O_2
REMARK    2  A    between atoms: O_2  and  C_3
REMARK    3  A    between atoms: C_6  and  C_7
REMARK    4  A    between atoms: C_7  and  C_8
REMARK    5  A    between atoms: C_7  and  C_18
REMARK    6  A    between atoms: C_11  and  O_12
REMARK    7  A    between atoms: O_12  and  C_13
REMARK    8  A    between atoms: C_14  and  O_15
REMARK    9  A    between atoms: O_15  and  C_16
REMARK   10  A    between atoms: C_18  and  C_19
REMARK   11  A    between atoms: C_18  and  C_20
REMARK   12  A    between atoms: C_20  and  C_21
REMARK   13  A    between atoms: C_20  and  C_22
REMARK   14  A    between atoms: C_22  and  O_23
REMARK   15  A    between atoms: C_25  and  O_26
REMARK   16  A    between atoms: O_26  and  C_27
REMARK                            x       y       z     vdW  Elec       q    Type
REMARK                         _______ _______ _______ _____ _____    ______ ____
ROOT
ATOM      1  C   UNL     1       3.659   5.517  18.521  0.00  0.00    +0.000 C 
ENDROOT
BRANCH   1   5
ATOM      2  C   UNL     1       6.834   5.316  15.484  0.00  0.00    +0.000 A 
ATOM      3  C   UNL     1       5.811   4.377  15.501  0.00  0.00    +0.000 A 
ATOM      4  C   UNL     1       4.793   4.450  16.452  0.00  0.00    +0.000 A 
ATOM      5  C   UNL     1       4.742   5.446  17.429  0.00  0.00    +0.000 A 
ATOM      6  C   UNL     1       5.818   6.353  17.441  0.00  0.00    +0.000 A 
ATOM      7  C   UNL     1       6.870   6.280  16.502  0.00  0.00    +0.000 A 
BRANCH   2   9
ATOM      8  C   UNL     1       7.383   4.839  13.230  0.00  0.00    +0.000 C 
ATOM      9  O   UNL     1       7.796   5.321  14.510  0.00  0.00    +0.000 OA
ENDBRANCH   2   9
BRANCH   7  10
ATOM     10  O   UNL     1       7.831   7.246  16.665  0.00  0.00    +0.000 OA
ATOM     11  C   UNL     1       7.882   7.849  17.955  0.00  0.00    +0.000 C 
ENDBRANCH   7  10
ENDBRANCH   1   5
BRANCH   1  12
ATOM     12  C   UNL     1       2.944   6.870  18.678  0.00  0.00    +0.000 A 
ATOM     13  C   UNL     1       2.884   7.810  17.646  0.00  0.00    +0.000 A 
ATOM     14  C   UNL     1       2.114   8.972  17.778  0.00  0.00    +0.000 A 
ATOM     15  C   UNL     1       1.394   9.248  18.952  0.00  0.00    +0.000 A 
ATOM     16  C   UNL     1       1.459   8.332  20.012  0.00  0.00    +0.000 A 
ATOM     17  C   UNL     1       2.228   7.159  19.862  0.00  0.00    +0.000 A 
BRANCH  15  18
ATOM     18  O   UNL     1       0.551  10.325  19.058  0.00  0.00    +0.000 OA
ATOM     19  C   UNL     1       1.148  11.610  18.947  0.00  0.00    +0.000 C 
ENDBRANCH  15  18
BRANCH  16  20
ATOM     20  O   UNL     1       0.809   8.400  21.221  0.00  0.00    +0.000 OA
ATOM     21  C   UNL     1       1.391   9.198  22.246  0.00  0.00    +0.000 C 
ENDBRANCH  16  20
ENDBRANCH   1  12
BRANCH   1  22
ATOM     22  C   UNL     1       2.607   4.339  18.641  0.00  0.00    +0.000 C 
ATOM     23  C   UNL     1       1.453   4.484  17.626  0.00  0.00    +0.000 C 
BRANCH  22  24
ATOM     24  C   UNL     1       2.207   3.852  20.088  0.00  0.00    +0.000 C 
ATOM     25  C   UNL     1       2.907   2.524  20.425  0.00  0.00    +0.000 C 
BRANCH  24  26
ATOM     26  C   UNL     1       0.714   3.739  20.433  0.00  0.00    +0.000 C 
BRANCH  26  27
ATOM     27  O   UNL     1       0.157   2.523  19.935  0.00  0.00    +0.000 OA
ATOM     28  H   UNL     1       0.288   2.499  18.972  0.00  0.00    +0.000 HD
ENDBRANCH  26  27
ENDBRANCH  24  26
ENDBRANCH  22  24
ENDBRANCH   1  22
TORSDOF 10
ENDMDL
MODEL 6
REMARK VINA RESULT:      -7.7      0.970      1.718
REMARK  Name = 
REMARK  16 active torsions:
REMARK  status: ('A' for Active; 'I' for Inactive)
REMARK    1  A    between atoms: C_1  and  O_2
REMARK    2  A    between atoms: O_2  and  C_3
REMARK    3  A    between atoms: C_6  and  C_7
REMARK    4  A    between atoms: C_7  and  C_8
REMARK    5  A    between atoms: C_7  and  C_18
REMARK    6  A    between atoms: C_11  and  O_12
REMARK    7  A    between atoms: O_12  and  C_13
REMARK    8  A    between atoms: C_14  and  O_15
REMARK    9  A    between atoms: O_15  and  C_16
REMARK   10  A    between atoms: C_18  and  C_19
REMARK   11  A    between atoms: C_18  and  C_20
REMARK   12  A    between atoms: C_20  and  C_21
REMARK   13  A    between atoms: C_20  and  C_22
REMARK   14  A    between atoms: C_22  and  O_23
REMARK   15  A    between atoms: C_25  and  O_26
REMARK   16  A    between atoms: O_26  and  C_27
REMARK                            x       y       z     vdW  Elec       q    Type
REMARK                         _______ _______ _______ _____ _____    ______ ____
ROOT
ATOM      1  C   UNL     1       3.593   4.737  18.559  0.00  0.00    +0.000 C 
ENDROOT
BRANCH   1   5
ATOM      2  C   UNL     1       6.661   5.311  15.460  0.00  0.00    +0.000 A 
ATOM      3  C   UNL     1       5.574   4.476  15.233  0.00  0.00    +0.000 A 
ATOM      4  C   UNL     1       4.590   4.308  16.208  0.00  0.00    +0.000 A 
ATOM      5  C   UNL     1       4.638   4.949  17.448  0.00  0.00    +0.000 A 
ATOM      6  C   UNL     1       5.775   5.741  17.689  0.00  0.00    +0.000 A 
ATOM      7  C   UNL     1       6.793   5.904  16.724  0.00  0.00    +0.000 A 
BRANCH   2   9
ATOM      8  C   UNL     1       7.407   4.868  13.256  0.00  0.00    +0.000 C 
ATOM      9  O   UNL     1       7.593   5.564  14.491  0.00  0.00    +0.000 OA
ENDBRANCH   2   9
BRANCH   7  10
ATOM     10  O   UNL     1       7.824   6.711  17.133  0.00  0.00    +0.000 OA
ATOM     11  C   UNL     1       7.984   6.837  18.543  0.00  0.00    +0.000 C 
ENDBRANCH   7  10
ENDBRANCH   1   5
BRANCH   1  12
ATOM     12  C   UNL     1       2.793   5.982  18.981  0.00  0.00    +0.000 A 
ATOM     13  C   UNL     1       2.262   6.133  20.265  0.00  0.00    +0.000 A 
ATOM     14  C   UNL     1       1.654   7.333  20.653  0.00  0.00    +0.000 A 
ATOM     15  C   UNL     1       1.536   8.418  19.768  0.00  0.00    +0.000 A 
ATOM     16  C   UNL     1       2.038   8.282  18.466  0.00  0.00    +0.000 A 
ATOM     17  C   UNL     1       2.659   7.072  18.091  0.00  0.00    +0.000 A 
BRANCH  15  18
ATOM     18  O   UNL     1       1.042   9.634  20.164  0.00  0.00    +0.000 OA
ATOM     19  C   UNL     1      -0.121   9.611  20.982  0.00  0.00    +0.000 C 
ENDBRANCH  15  18
BRANCH  16  20
ATOM     20  O   UNL     1       2.050   9.227  17.469  0.00  0.00    +0.000 OA
ATOM     21  C   UNL     1       2.369  10.567  17.825  0.00  0.00    +0.000 C 
ENDBRANCH  16  20
ENDBRANCH   1  12
BRANCH   1  22
ATOM     22  C   UNL     1       2.628   3.483  18.483  0.00  0.00    +0.000 C 
ATOM     23  C   UNL     1       1.243   3.848  17.906  0.00  0.00    +0.000 C 
BRANCH  22  24
ATOM     24  C   UNL     1       2.635   2.472  19.694  0.00  0.00    +0.000 C 
ATOM     25  C   UNL     1       1.400   2.687  20.587  0.00  0.00    +0.000 C 
BRANCH  24  26
ATOM     26  C   UNL     1       3.890   2.398  20.575  0.00  0.00    +0.000 C 
BRANCH  26  27
ATOM     27  O   UNL     1       4.981   1.800  19.877  0.00  0.00    +0.000 OA
ATOM     28  H   UNL     1       4.729   1.704  18.943  0.00  0.00    +0.000 HD
ENDBRANCH  26  27
ENDBRANCH  24  26
ENDBRANCH  22  24
ENDBRANCH   1  22
TORSDOF 10
ENDMDL
MODEL 7
REMARK VINA RESULT:      -7.6      1.277      1.603
REMARK  Name = 
REMARK  16 active torsions:
REMARK  status: ('A' for Active; 'I' for Inactive)
REMARK    1  A    between atoms: C_1  and  O_2
REMARK    2  A    between atoms: O_2  and  C_3
REMARK    3  A    between atoms: C_6  and  C_7
REMARK    4  A    between atoms: C_7  and  C_8
REMARK    5  A    between atoms: C_7  and  C_18
REMARK    6  A    between atoms: C_11  and  O_12
REMARK    7  A    between atoms: O_12  and  C_13
REMARK    8  A    between atoms: C_14  and  O_15
REMARK    9  A    between atoms: O_15  and  C_16
REMARK   10  A    between atoms: C_18  and  C_19
REMARK   11  A    between atoms: C_18  and  C_20
REMARK   12  A    between atoms: C_20  and  C_21
REMARK   13  A    between atoms: C_20  and  C_22
REMARK   14  A    between atoms: C_22  and  O_23
REMARK   15  A    between atoms: C_25  and  O_26
REMARK   16  A    between atoms: O_26  and  C_27
REMARK                            x       y       z     vdW  Elec       q    Type
REMARK                         _______ _______ _______ _____ _____    ______ ____
ROOT
ATOM      1  C   UNL     1       3.825   5.836  19.152  0.00  0.00    +0.000 C 
ENDROOT
BRANCH   1   5
ATOM      2  C   UNL     1       6.334   5.250  15.587  0.00  0.00    +0.000 A 
ATOM      3  C   UNL     1       5.185   4.492  15.776  0.00  0.00    +0.000 A 
ATOM      4  C   UNL     1       4.379   4.689  16.897  0.00  0.00    +0.000 A 
ATOM      5  C   UNL     1       4.671   5.637  17.880  0.00  0.00    +0.000 A 
ATOM      6  C   UNL     1       5.869   6.353  17.709  0.00  0.00    +0.000 A 
ATOM      7  C   UNL     1       6.711   6.150  16.594  0.00  0.00    +0.000 A 
BRANCH   2   9
ATOM      8  C   UNL     1       6.628   4.200  13.484  0.00  0.00    +0.000 C 
ATOM      9  O   UNL     1       7.095   5.140  14.454  0.00  0.00    +0.000 OA
ENDBRANCH   2   9
BRANCH   7  10
ATOM     10  O   UNL     1       7.835   6.936  16.593  0.00  0.00    +0.000 OA
ATOM     11  C   UNL     1       7.873   7.954  17.589  0.00  0.00    +0.000 C 
ENDBRANCH   7  10
ENDBRANCH   1   5
BRANCH   1  12
ATOM     12  C   UNL     1       2.878   7.049  19.151  0.00  0.00    +0.000 A 
ATOM     13  C   UNL     1       2.660   7.829  18.013  0.00  0.00    +0.000 A 
ATOM     14  C   UNL     1       1.694   8.842  18.013  0.00  0.00    +0.000 A 
ATOM     15  C   UNL     1       0.927   9.128  19.154  0.00  0.00    +0.000 A 
ATOM     16  C   UNL     1       1.146   8.376  20.318  0.00  0.00    +0.000 A 
ATOM     17  C   UNL     1       2.113   7.350  20.301  0.00  0.00    +0.000 A 
BRANCH  15  18
ATOM     18  O   UNL     1      -0.095  10.042  19.139  0.00  0.00    +0.000 OA
ATOM     19  C   UNL     1      -0.933  10.037  17.990  0.00  0.00    +0.000 C 
ENDBRANCH  15  18
BRANCH  16  20
ATOM     20  O   UNL     1       0.485   8.476  21.518  0.00  0.00    +0.000 OA
ATOM     21  C   UNL     1       0.940   9.451  22.450  0.00  0.00    +0.000 C 
ENDBRANCH  16  20
ENDBRANCH   1  12
BRANCH   1  22
ATOM     22  C   UNL     1       3.093   4.588  19.795  0.00  0.00    +0.000 C 
ATOM     23  C   UNL     1       4.022   3.359  19.902  0.00  0.00    +0.000 C 
BRANCH  22  24
ATOM     24  C   UNL     1       1.604   4.300  19.360  0.00  0.00    +0.000 C 
ATOM     25  C   UNL     1       0.807   3.689  20.526  0.00  0.00    +0.000 C 
BRANCH  24  26
ATOM     26  C   UNL     1       1.363   3.470  18.091  0.00  0.00    +0.000 C 
BRANCH  26  27
ATOM     27  O   UNL     1       0.966   4.296  16.998  0.00  0.00    +0.000 OA
ATOM     28  H   UNL     1       0.009   4.450  17.063  0.00  0.00    +0.000 HD
ENDBRANCH  26  27
ENDBRANCH  24  26
ENDBRANCH  22  24
ENDBRANCH   1  22
TORSDOF 10
ENDMDL
MODEL 8
REMARK VINA RESULT:      -7.5      0.939      1.122
REMARK  Name = 
REMARK  16 active torsions:
REMARK  status: ('A' for Active; 'I' for Inactive)
REMARK    1  A    between atoms: C_1  and  O_2
REMARK    2  A    between atoms: O_2  and  C_3
REMARK    3  A    between atoms: C_6  and  C_7
REMARK    4  A    between atoms: C_7  and  C_8
REMARK    5  A    between atoms: C_7  and  C_18
REMARK    6  A    between atoms: C_11  and  O_12
REMARK    7  A    between atoms: O_12  and  C_13
REMARK    8  A    between atoms: C_14  and  O_15
REMARK    9  A    between atoms: O_15  and  C_16
REMARK   10  A    between atoms: C_18  and  C_19
REMARK   11  A    between atoms: C_18  and  C_20
REMARK   12  A    between atoms: C_20  and  C_21
REMARK   13  A    between atoms: C_20  and  C_22
REMARK   14  A    between atoms: C_22  and  O_23
REMARK   15  A    between atoms: C_25  and  O_26
REMARK   16  A    between atoms: O_26  and  C_27
REMARK                            x       y       z     vdW  Elec       q    Type
REMARK                         _______ _______ _______ _____ _____    ______ ____
ROOT
ATOM      1  C   UNL     1       3.373   5.733  19.000  0.00  0.00    +0.000 C 
ENDROOT
BRANCH   1   5
ATOM      2  C   UNL     1       6.503   5.074  15.981  0.00  0.00    +0.000 A 
ATOM      3  C   UNL     1       5.276   4.431  15.879  0.00  0.00    +0.000 A 
ATOM      4  C   UNL     1       4.275   4.654  16.825  0.00  0.00    +0.000 A 
ATOM      5  C   UNL     1       4.442   5.513  17.913  0.00  0.00    +0.000 A 
ATOM      6  C   UNL     1       5.711   6.107  18.040  0.00  0.00    +0.000 A 
ATOM      7  C   UNL     1       6.744   5.875  17.106  0.00  0.00    +0.000 A 
BRANCH   2   9
ATOM      8  C   UNL     1       7.004   4.582  13.718  0.00  0.00    +0.000 C 
ATOM      9  O   UNL     1       7.470   4.943  15.020  0.00  0.00    +0.000 OA
ENDBRANCH   2   9
BRANCH   7  10
ATOM     10  O   UNL     1       7.911   6.538  17.389  0.00  0.00    +0.000 OA
ATOM     11  C   UNL     1       7.780   7.935  17.636  0.00  0.00    +0.000 C 
ENDBRANCH   7  10
ENDBRANCH   1   5
BRANCH   1  12
ATOM     12  C   UNL     1       2.658   7.096  18.978  0.00  0.00    +0.000 A 
ATOM     13  C   UNL     1       2.592   7.889  17.830  0.00  0.00    +0.000 A 
ATOM     14  C   UNL     1       1.823   9.059  17.811  0.00  0.00    +0.000 A 
ATOM     15  C   UNL     1       1.110   9.490  18.942  0.00  0.00    +0.000 A 
ATOM     16  C   UNL     1       1.181   8.723  20.115  0.00  0.00    +0.000 A 
ATOM     17  C   UNL     1       1.949   7.541  20.117  0.00  0.00    +0.000 A 
BRANCH  15  18
ATOM     18  O   UNL     1       0.268  10.571  18.908  0.00  0.00    +0.000 OA
ATOM     19  C   UNL     1       0.879  11.853  18.969  0.00  0.00    +0.000 C 
ENDBRANCH  15  18
BRANCH  16  20
ATOM     20  O   UNL     1       0.539   8.953  21.307  0.00  0.00    +0.000 OA
ATOM     21  C   UNL     1       1.336   9.268  22.443  0.00  0.00    +0.000 C 
ENDBRANCH  16  20
ENDBRANCH   1  12
BRANCH   1  22
ATOM     22  C   UNL     1       2.323   4.584  19.293  0.00  0.00    +0.000 C 
ATOM     23  C   UNL     1       1.502   4.858  20.572  0.00  0.00    +0.000 C 
BRANCH  22  24
ATOM     24  C   UNL     1       2.780   3.091  19.065  0.00  0.00    +0.000 C 
ATOM     25  C   UNL     1       1.560   2.163  18.939  0.00  0.00    +0.000 C 
BRANCH  24  26
ATOM     26  C   UNL     1       3.784   2.476  20.051  0.00  0.00    +0.000 C 
BRANCH  26  27
ATOM     27  O   UNL     1       5.110   2.497  19.523  0.00  0.00    +0.000 OA
ATOM     28  H   UNL     1       5.212   1.737  18.927  0.00  0.00    +0.000 HD
ENDBRANCH  26  27
ENDBRANCH  24  26
ENDBRANCH  22  24
ENDBRANCH   1  22
TORSDOF 10
ENDMDL
MODEL 9
REMARK VINA RESULT:      -7.5      1.338      6.239
REMARK  Name = 
REMARK  16 active torsions:
REMARK  status: ('A' for Active; 'I' for Inactive)
REMARK    1  A    between atoms: C_1  and  O_2
REMARK    2  A    between atoms: O_2  and  C_3
REMARK    3  A    between atoms: C_6  and  C_7
REMARK    4  A    between atoms: C_7  and  C_8
REMARK    5  A    between atoms: C_7  and  C_18
REMARK    6  A    between atoms: C_11  and  O_12
REMARK    7  A    between atoms: O_12  and  C_13
REMARK    8  A    between atoms: C_14  and  O_15
REMARK    9  A    between atoms: O_15  and  C_16
REMARK   10  A    between atoms: C_18  and  C_19
REMARK   11  A    between atoms: C_18  and  C_20
REMARK   12  A    between atoms: C_20  and  C_21
REMARK   13  A    between atoms: C_20  and  C_22
REMARK   14  A    between atoms: C_22  and  O_23
REMARK   15  A    between atoms: C_25  and  O_26
REMARK   16  A    between atoms: O_26  and  C_27
REMARK                            x       y       z     vdW  Elec       q    Type
REMARK                         _______ _______ _______ _____ _____    ______ ____
ROOT
ATOM      1  C   UNL     1       3.076   4.847  18.582  0.00  0.00    +0.000 C 
ENDROOT
BRANCH   1   5
ATOM      2  C   UNL     1       1.458   8.732  19.859  0.00  0.00    +0.000 A 
ATOM      3  C   UNL     1       1.510   7.663  20.744  0.00  0.00    +0.000 A 
ATOM      4  C   UNL     1       2.040   6.435  20.345  0.00  0.00    +0.000 A 
ATOM      5  C   UNL     1       2.535   6.207  19.060  0.00  0.00    +0.000 A 
ATOM      6  C   UNL     1       2.418   7.278  18.156  0.00  0.00    +0.000 A 
ATOM      7  C   UNL     1       1.863   8.520  18.533  0.00  0.00    +0.000 A 
BRANCH   2   9
ATOM      8  C   UNL     1      -0.389  10.171  20.217  0.00  0.00    +0.000 C 
ATOM      9  O   UNL     1       1.025   9.972  20.247  0.00  0.00    +0.000 OA
ENDBRANCH   2   9
BRANCH   7  10
ATOM     10  O   UNL     1       1.830   9.447  17.522  0.00  0.00    +0.000 OA
ATOM     11  C   UNL     1       2.448  10.697  17.813  0.00  0.00    +0.000 C 
ENDBRANCH   7  10
ENDBRANCH   1   5
BRANCH   1  12
ATOM     12  C   UNL     1       4.322   4.893  17.680  0.00  0.00    +0.000 A 
ATOM     13  C   UNL     1       4.351   4.310  16.411  0.00  0.00    +0.000 A 
ATOM     14  C   UNL     1       5.455   4.484  15.568  0.00  0.00    +0.000 A 
ATOM     15  C   UNL     1       6.577   5.229  15.967  0.00  0.00    +0.000 A 
ATOM     16  C   UNL     1       6.581   5.803  17.247  0.00  0.00    +0.000 A 
ATOM     17  C   UNL     1       5.459   5.630  18.083  0.00  0.00    +0.000 A 
BRANCH  15  18
ATOM     18  O   UNL     1       7.616   5.500  15.116  0.00  0.00    +0.000 OA
ATOM     19  C   UNL     1       7.469   5.056  13.773  0.00  0.00    +0.000 C 
ENDBRANCH  15  18
BRANCH  16  20
ATOM     20  O   UNL     1       7.559   6.587  17.811  0.00  0.00    +0.000 OA
ATOM     21  C   UNL     1       7.547   7.980  17.518  0.00  0.00    +0.000 C 
ENDBRANCH  16  20
ENDBRANCH   1  12
BRANCH   1  22
ATOM     22  C   UNL     1       3.214   3.662  19.624  0.00  0.00    +0.000 C 
ATOM     23  C   UNL     1       4.581   2.953  19.521  0.00  0.00    +0.000 C 
BRANCH  22  24
ATOM     24  C   UNL     1       1.961   2.731  19.854  0.00  0.00    +0.000 C 
ATOM     25  C   UNL     1       1.051   2.730  18.613  0.00  0.00    +0.000 C 
BRANCH  24  26
ATOM     26  C   UNL     1       1.104   2.958  21.108  0.00  0.00    +0.000 C 
BRANCH  26  27
ATOM     27  O   UNL     1       1.716   2.389  22.265  0.00  0.00    +0.000 OA
ATOM     28  H   UNL     1       2.642   2.684  22.297  0.00  0.00    +0.000 HD
ENDBRANCH  26  27
ENDBRANCH  24  26
ENDBRANCH  22  24
ENDBRANCH   1  22
TORSDOF 10
ENDMDL
