MODEL 1
REMARK VINA RESULT:      -7.5      0.000      0.000
REMARK  Name = 
REMARK  13 active torsions:
REMARK  status: ('A' for Active; 'I' for Inactive)
REMARK    1  A    between atoms: C_1  and  C_2
REMARK    2  A    between atoms: C_2  and  C_3
REMARK    3  A    between atoms: C_2  and  C_4
REMARK    4  A    between atoms: C_7  and  C_8
REMARK    5  A    between atoms: C_8  and  O_9
REMARK    6  A    between atoms: O_9  and  C_10
REMARK    7  A    between atoms: C_16  and  C_17
REMARK    8  A    between atoms: C_21  and  O_22
REMARK    9  A    between atoms: O_22  and  C_23
REMARK   10  A    between atoms: C_23  and  C_24
REMARK   11  A    between atoms: C_23  and  C_25
REMARK   12  A    between atoms: C_23  and  C_26
REMARK   13  A    between atoms: C_26  and  O_28
REMARK                            x       y       z     vdW  Elec       q    Type
REMARK                         _______ _______ _______ _____ _____    ______ ____
ROOT
ATOM      1  C   UNL     1       6.847   6.230  17.014  0.00  0.00    +0.000 C 
ATOM      2  O   UNL     1       7.607   5.437  16.481  0.00  0.00    +0.000 OA
ATOM      3  N   UNL     1       5.573   5.885  17.453  0.00  0.00    +0.000 N 
ATOM      4  C   UNL     1       5.140   4.501  17.324  0.00  0.00    +0.000 C 
ATOM      5  C   UNL     1       3.678   4.413  16.901  0.00  0.00    +0.000 C 
ATOM      6  C   UNL     1       2.781   5.216  17.839  0.00  0.00    +0.000 C 
ATOM      7  C   UNL     1       3.276   6.667  17.975  0.00  0.00    +0.000 C 
ATOM      8  C   UNL     1       4.770   6.731  18.336  0.00  0.00    +0.000 C 
ENDROOT
BRANCH   7   9
ATOM      9  C   UNL     1       2.436   7.517  18.918  0.00  0.00    +0.000 A 
ATOM     10  C   UNL     1       2.060   7.122  20.202  0.00  0.00    +0.000 A 
ATOM     11  C   UNL     1       1.210   7.929  20.961  0.00  0.00    +0.000 A 
ATOM     12  C   UNL     1       0.724   9.133  20.438  0.00  0.00    +0.000 A 
ATOM     13  C   UNL     1       1.125   9.571  19.175  0.00  0.00    +0.000 A 
ATOM     14  C   UNL     1       1.999   8.767  18.450  0.00  0.00    +0.000 A 
BRANCH  13  15
ATOM     15  O   UNL     1       0.551  10.731  18.732  0.00  0.00    +0.000 OA
BRANCH  15  16
ATOM     16  C   UNL     1       1.116  12.028  19.043  0.00  0.00    +0.000 C 
ATOM     17  C   UNL     1       1.223  12.241  20.557  0.00  0.00    +0.000 C 
ATOM     18  C   UNL     1       2.376  12.378  18.236  0.00  0.00    +0.000 C 
BRANCH  16  19
ATOM     19  C   UNL     1       0.079  13.065  18.548  0.00  0.00    +0.000 C 
ATOM     20  O   UNL     1      -1.034  12.784  18.124  0.00  0.00    +0.000 OA
BRANCH  19  21
ATOM     21  O   UNL     1       0.511  14.352  18.643  0.00  0.00    +0.000 OA
ATOM     22  H   UNL     1      -0.268  14.946  18.709  0.00  0.00    +0.000 HD
ENDBRANCH  19  21
ENDBRANCH  16  19
ENDBRANCH  15  16
ENDBRANCH  13  15
ENDBRANCH   7   9
BRANCH   1  23
ATOM     23  O   UNL     1       7.155   7.537  17.246  0.00  0.00    +0.000 OA
BRANCH  23  24
ATOM     24  C   UNL     1       8.145   7.781  18.256  0.00  0.00    +0.000 C 
BRANCH  24  28
ATOM     25  C   UNL     1       9.074  12.022  18.459  0.00  0.00    +0.000 A 
ATOM     26  C   UNL     1       9.613  11.126  19.394  0.00  0.00    +0.000 A 
ATOM     27  C   UNL     1       9.312   9.757  19.335  0.00  0.00    +0.000 A 
ATOM     28  C   UNL     1       8.463   9.255  18.343  0.00  0.00    +0.000 A 
ATOM     29  C   UNL     1       7.933  10.146  17.400  0.00  0.00    +0.000 A 
ATOM     30  C   UNL     1       8.233  11.513  17.461  0.00  0.00    +0.000 A 
BRANCH  25  32
ATOM     31  C   UNL     1      10.463  13.909  17.511  0.00  0.00    +0.000 C 
ATOM     32  C   UNL     1       9.400  13.504  18.538  0.00  0.00    +0.000 C 
ATOM     33  C   UNL     1       8.146  14.371  18.370  0.00  0.00    +0.000 C 
ENDBRANCH  25  32
ENDBRANCH  24  28
ENDBRANCH  23  24
ENDBRANCH   1  23
TORSDOF 9
ENDMDL
MODEL 2
REMARK VINA RESULT:      -7.4      3.639      7.865
REMARK  Name = 
REMARK  13 active torsions:
REMARK  status: ('A' for Active; 'I' for Inactive)
REMARK    1  A    between atoms: C_1  and  C_2
REMARK    2  A    between atoms: C_2  and  C_3
REMARK    3  A    between atoms: C_2  and  C_4
REMARK    4  A    between atoms: C_7  and  C_8
REMARK    5  A    between atoms: C_8  and  O_9
REMARK    6  A    between atoms: O_9  and  C_10
REMARK    7  A    between atoms: C_16  and  C_17
REMARK    8  A    between atoms: C_21  and  O_22
REMARK    9  A    between atoms: O_22  and  C_23
REMARK   10  A    between atoms: C_23  and  C_24
REMARK   11  A    between atoms: C_23  and  C_25
REMARK   12  A    between atoms: C_23  and  C_26
REMARK   13  A    between atoms: C_26  and  O_28
REMARK                            x       y       z     vdW  Elec       q    Type
REMARK                         _______ _______ _______ _____ _____    ______ ____
ROOT
ATOM      1  C   UNL     1      -1.171  11.689  20.063  0.00  0.00    +0.000 C 
ATOM      2  O   UNL     1      -1.947  12.389  20.693  0.00  0.00    +0.000 OA
ATOM      3  N   UNL     1      -0.572  10.550  20.591  0.00  0.00    +0.000 N 
ATOM      4  C   UNL     1      -0.928  10.136  21.941  0.00  0.00    +0.000 C 
ATOM      5  C   UNL     1       0.290   9.632  22.708  0.00  0.00    +0.000 C 
ATOM      6  C   UNL     1       1.013   8.532  21.935  0.00  0.00    +0.000 C 
ATOM      7  C   UNL     1       1.354   8.987  20.505  0.00  0.00    +0.000 C 
ATOM      8  C   UNL     1       0.124   9.555  19.776  0.00  0.00    +0.000 C 
ENDROOT
BRANCH   7   9
ATOM      9  C   UNL     1       2.056   7.924  19.673  0.00  0.00    +0.000 A 
ATOM     10  C   UNL     1       2.353   8.061  18.317  0.00  0.00    +0.000 A 
ATOM     11  C   UNL     1       2.917   6.995  17.613  0.00  0.00    +0.000 A 
ATOM     12  C   UNL     1       3.182   5.782  18.259  0.00  0.00    +0.000 A 
ATOM     13  C   UNL     1       2.939   5.638  19.626  0.00  0.00    +0.000 A 
ATOM     14  C   UNL     1       2.407   6.724  20.314  0.00  0.00    +0.000 A 
BRANCH  13  15
ATOM     15  O   UNL     1       3.178   4.399  20.151  0.00  0.00    +0.000 OA
BRANCH  15  16
ATOM     16  C   UNL     1       2.198   3.335  20.072  0.00  0.00    +0.000 C 
ATOM     17  C   UNL     1       0.794   3.889  19.808  0.00  0.00    +0.000 C 
ATOM     18  C   UNL     1       2.620   2.152  19.185  0.00  0.00    +0.000 C 
BRANCH  16  19
ATOM     19  C   UNL     1       2.141   2.713  21.488  0.00  0.00    +0.000 C 
ATOM     20  O   UNL     1       1.138   2.676  22.190  0.00  0.00    +0.000 OA
BRANCH  19  21
ATOM     21  O   UNL     1       3.324   2.178  21.894  0.00  0.00    +0.000 OA
ATOM     22  H   UNL     1       3.518   1.383  21.351  0.00  0.00    +0.000 HD
ENDBRANCH  19  21
ENDBRANCH  16  19
ENDBRANCH  15  16
ENDBRANCH  13  15
ENDBRANCH   7   9
BRANCH   1  23
ATOM     23  O   UNL     1      -0.804  11.933  18.773  0.00  0.00    +0.000 OA
BRANCH  23  24
ATOM     24  C   UNL     1      -0.718  13.314  18.394  0.00  0.00    +0.000 C 
BRANCH  24  28
ATOM     25  C   UNL     1       3.369  14.767  18.665  0.00  0.00    +0.000 A 
ATOM     26  C   UNL     1       3.107  13.416  18.395  0.00  0.00    +0.000 A 
ATOM     27  C   UNL     1       1.790  12.942  18.312  0.00  0.00    +0.000 A 
ATOM     28  C   UNL     1       0.706  13.806  18.499  0.00  0.00    +0.000 A 
ATOM     29  C   UNL     1       0.966  15.159  18.757  0.00  0.00    +0.000 A 
ATOM     30  C   UNL     1       2.281  15.631  18.842  0.00  0.00    +0.000 A 
BRANCH  25  32
ATOM     31  C   UNL     1       5.326  15.213  20.202  0.00  0.00    +0.000 C 
ATOM     32  C   UNL     1       4.801  15.268  18.763  0.00  0.00    +0.000 C 
ATOM     33  C   UNL     1       5.739  14.494  17.829  0.00  0.00    +0.000 C 
ENDBRANCH  25  32
ENDBRANCH  24  28
ENDBRANCH  23  24
ENDBRANCH   1  23
TORSDOF 9
ENDMDL
MODEL 3
REMARK VINA RESULT:      -7.4      6.142      9.844
REMARK  Name = 
REMARK  13 active torsions:
REMARK  status: ('A' for Active; 'I' for Inactive)
REMARK    1  A    between atoms: C_1  and  C_2
REMARK    2  A    between atoms: C_2  and  C_3
REMARK    3  A    between atoms: C_2  and  C_4
REMARK    4  A    between atoms: C_7  and  C_8
REMARK    5  A    between atoms: C_8  and  O_9
REMARK    6  A    between atoms: O_9  and  C_10
REMARK    7  A    between atoms: C_16  and  C_17
REMARK    8  A    between atoms: C_21  and  O_22
REMARK    9  A    between atoms: O_22  and  C_23
REMARK   10  A    between atoms: C_23  and  C_24
REMARK   11  A    between atoms: C_23  and  C_25
REMARK   12  A    between atoms: C_23  and  C_26
REMARK   13  A    between atoms: C_26  and  O_28
REMARK                            x       y       z     vdW  Elec       q    Type
REMARK                         _______ _______ _______ _____ _____    ______ ____
ROOT
ATOM      1  C   UNL     1      -1.389  13.762  23.148  0.00  0.00    +0.000 C 
ATOM      2  O   UNL     1      -0.752  14.398  23.972  0.00  0.00    +0.000 OA
ATOM      3  N   UNL     1      -2.743  13.972  22.906  0.00  0.00    +0.000 N 
ATOM      4  C   UNL     1      -3.425  15.038  23.627  0.00  0.00    +0.000 C 
ATOM      5  C   UNL     1      -4.828  14.614  24.050  0.00  0.00    +0.000 C 
ATOM      6  C   UNL     1      -5.636  14.111  22.857  0.00  0.00    +0.000 C 
ATOM      7  C   UNL     1      -4.881  13.004  22.099  0.00  0.00    +0.000 C 
ATOM      8  C   UNL     1      -3.447  13.429  21.744  0.00  0.00    +0.000 C 
ENDROOT
BRANCH   7   9
ATOM      9  C   UNL     1      -5.626  12.476  20.882  0.00  0.00    +0.000 A 
ATOM     10  C   UNL     1      -6.939  12.006  20.911  0.00  0.00    +0.000 A 
ATOM     11  C   UNL     1      -7.509  11.454  19.762  0.00  0.00    +0.000 A 
ATOM     12  C   UNL     1      -6.769  11.360  18.579  0.00  0.00    +0.000 A 
ATOM     13  C   UNL     1      -5.470  11.867  18.513  0.00  0.00    +0.000 A 
ATOM     14  C   UNL     1      -4.933  12.443  19.660  0.00  0.00    +0.000 A 
BRANCH  13  15
ATOM     15  O   UNL     1      -4.810  11.677  17.330  0.00  0.00    +0.000 OA
BRANCH  15  16
ATOM     16  C   UNL     1      -3.554  10.959  17.265  0.00  0.00    +0.000 C 
ATOM     17  C   UNL     1      -2.396  11.811  17.795  0.00  0.00    +0.000 C 
ATOM     18  C   UNL     1      -3.620   9.522  17.808  0.00  0.00    +0.000 C 
BRANCH  16  19
ATOM     19  C   UNL     1      -3.266  10.755  15.758  0.00  0.00    +0.000 C 
ATOM     20  O   UNL     1      -3.887   9.991  15.031  0.00  0.00    +0.000 OA
BRANCH  19  21
ATOM     21  O   UNL     1      -2.251  11.530  15.290  0.00  0.00    +0.000 OA
ATOM     22  H   UNL     1      -2.313  11.580  14.311  0.00  0.00    +0.000 HD
ENDBRANCH  19  21
ENDBRANCH  16  19
ENDBRANCH  15  16
ENDBRANCH  13  15
ENDBRANCH   7   9
BRANCH   1  23
ATOM     23  O   UNL     1      -0.855  12.782  22.367  0.00  0.00    +0.000 OA
BRANCH  23  24
ATOM     24  C   UNL     1      -0.914  11.450  22.898  0.00  0.00    +0.000 C 
BRANCH  24  28
ATOM     25  C   UNL     1       1.392   8.706  20.440  0.00  0.00    +0.000 A 
ATOM     26  C   UNL     1       0.870   9.889  19.895  0.00  0.00    +0.000 A 
ATOM     27  C   UNL     1       0.122  10.774  20.684  0.00  0.00    +0.000 A 
ATOM     28  C   UNL     1      -0.125  10.497  22.032  0.00  0.00    +0.000 A 
ATOM     29  C   UNL     1       0.405   9.322  22.582  0.00  0.00    +0.000 A 
ATOM     30  C   UNL     1       1.151   8.437  21.793  0.00  0.00    +0.000 A 
BRANCH  25  32
ATOM     31  C   UNL     1       1.953   6.287  19.968  0.00  0.00    +0.000 C 
ATOM     32  C   UNL     1       2.194   7.749  19.574  0.00  0.00    +0.000 C 
ATOM     33  C   UNL     1       1.900   7.950  18.083  0.00  0.00    +0.000 C 
ENDBRANCH  25  32
ENDBRANCH  24  28
ENDBRANCH  23  24
ENDBRANCH   1  23
TORSDOF 9
ENDMDL
MODEL 4
REMARK VINA RESULT:      -7.4      2.635      7.231
REMARK  Name = 
REMARK  13 active torsions:
REMARK  status: ('A' for Active; 'I' for Inactive)
REMARK    1  A    between atoms: C_1  and  C_2
REMARK    2  A    between atoms: C_2  and  C_3
REMARK    3  A    between atoms: C_2  and  C_4
REMARK    4  A    between atoms: C_7  and  C_8
REMARK    5  A    between atoms: C_8  and  O_9
REMARK    6  A    between atoms: O_9  and  C_10
REMARK    7  A    between atoms: C_16  and  C_17
REMARK    8  A    between atoms: C_21  and  O_22
REMARK    9  A    between atoms: O_22  and  C_23
REMARK   10  A    between atoms: C_23  and  C_24
REMARK   11  A    between atoms: C_23  and  C_25
REMARK   12  A    between atoms: C_23  and  C_26
REMARK   13  A    between atoms: C_26  and  O_28
REMARK                            x       y       z     vdW  Elec       q    Type
REMARK                         _______ _______ _______ _____ _____    ______ ____
ROOT
ATOM      1  C   UNL     1       1.034  11.662  19.859  0.00  0.00    +0.000 C 
ATOM      2  O   UNL     1       0.389  12.503  20.463  0.00  0.00    +0.000 OA
ATOM      3  N   UNL     1       0.887  10.295  20.069  0.00  0.00    +0.000 N 
ATOM      4  C   UNL     1      -0.122   9.838  21.015  0.00  0.00    +0.000 C 
ATOM      5  C   UNL     1       0.385   8.662  21.843  0.00  0.00    +0.000 C 
ATOM      6  C   UNL     1       0.895   7.535  20.949  0.00  0.00    +0.000 C 
ATOM      7  C   UNL     1       1.941   8.051  19.944  0.00  0.00    +0.000 C 
ATOM      8  C   UNL     1       1.432   9.279  19.169  0.00  0.00    +0.000 C 
ENDROOT
BRANCH   7   9
ATOM      9  C   UNL     1       2.472   6.978  19.005  0.00  0.00    +0.000 A 
ATOM     10  C   UNL     1       1.913   5.707  18.872  0.00  0.00    +0.000 A 
ATOM     11  C   UNL     1       2.525   4.756  18.054  0.00  0.00    +0.000 A 
ATOM     12  C   UNL     1       3.705   5.066  17.368  0.00  0.00    +0.000 A 
ATOM     13  C   UNL     1       4.256   6.346  17.447  0.00  0.00    +0.000 A 
ATOM     14  C   UNL     1       3.611   7.288  18.242  0.00  0.00    +0.000 A 
BRANCH  13  15
ATOM     15  O   UNL     1       5.438   6.533  16.786  0.00  0.00    +0.000 OA
BRANCH  15  16
ATOM     16  C   UNL     1       6.714   6.253  17.413  0.00  0.00    +0.000 C 
ATOM     17  C   UNL     1       7.625   7.486  17.399  0.00  0.00    +0.000 C 
ATOM     18  C   UNL     1       6.608   5.524  18.762  0.00  0.00    +0.000 C 
BRANCH  16  19
ATOM     19  C   UNL     1       7.408   5.213  16.502  0.00  0.00    +0.000 C 
ATOM     20  O   UNL     1       7.479   5.296  15.282  0.00  0.00    +0.000 OA
BRANCH  19  21
ATOM     21  O   UNL     1       7.965   4.177  17.186  0.00  0.00    +0.000 OA
ATOM     22  H   UNL     1       8.197   4.481  18.091  0.00  0.00    +0.000 HD
ENDBRANCH  19  21
ENDBRANCH  16  19
ENDBRANCH  15  16
ENDBRANCH  13  15
ENDBRANCH   7   9
BRANCH   1  23
ATOM     23  O   UNL     1       1.963  11.957  18.907  0.00  0.00    +0.000 OA
BRANCH  23  24
ATOM     24  C   UNL     1       1.737  13.159  18.157  0.00  0.00    +0.000 C 
BRANCH  24  28
ATOM     25  C   UNL     1       4.696  16.169  19.195  0.00  0.00    +0.000 A 
ATOM     26  C   UNL     1       3.932  16.291  18.025  0.00  0.00    +0.000 A 
ATOM     27  C   UNL     1       2.979  15.320  17.685  0.00  0.00    +0.000 A 
ATOM     28  C   UNL     1       2.772  14.204  18.502  0.00  0.00    +0.000 A 
ATOM     29  C   UNL     1       3.527  14.086  19.677  0.00  0.00    +0.000 A 
ATOM     30  C   UNL     1       4.479  15.055  20.016  0.00  0.00    +0.000 A 
BRANCH  25  32
ATOM     31  C   UNL     1       5.278  18.094  20.725  0.00  0.00    +0.000 C 
ATOM     32  C   UNL     1       5.732  17.222  19.549  0.00  0.00    +0.000 C 
ATOM     33  C   UNL     1       7.099  16.596  19.853  0.00  0.00    +0.000 C 
ENDBRANCH  25  32
ENDBRANCH  24  28
ENDBRANCH  23  24
ENDBRANCH   1  23
TORSDOF 9
ENDMDL
MODEL 5
REMARK VINA RESULT:      -7.4      4.118      8.314
REMARK  Name = 
REMARK  13 active torsions:
REMARK  status: ('A' for Active; 'I' for Inactive)
REMARK    1  A    between atoms: C_1  and  C_2
REMARK    2  A    between atoms: C_2  and  C_3
REMARK    3  A    between atoms: C_2  and  C_4
REMARK    4  A    between atoms: C_7  and  C_8
REMARK    5  A    between atoms: C_8  and  O_9
REMARK    6  A    between atoms: O_9  and  C_10
REMARK    7  A    between atoms: C_16  and  C_17
REMARK    8  A    between atoms: C_21  and  O_22
REMARK    9  A    between atoms: O_22  and  C_23
REMARK   10  A    between atoms: C_23  and  C_24
REMARK   11  A    between atoms: C_23  and  C_25
REMARK   12  A    between atoms: C_23  and  C_26
REMARK   13  A    between atoms: C_26  and  O_28
REMARK                            x       y       z     vdW  Elec       q    Type
REMARK                         _______ _______ _______ _____ _____    ______ ____
ROOT
ATOM      1  C   UNL     1      -1.889  12.135  21.785  0.00  0.00    +0.000 C 
ATOM      2  O   UNL     1      -2.574  12.574  22.695  0.00  0.00    +0.000 OA
ATOM      3  N   UNL     1      -1.124  10.979  21.899  0.00  0.00    +0.000 N 
ATOM      4  C   UNL     1      -1.182  10.221  23.141  0.00  0.00    +0.000 C 
ATOM      5  C   UNL     1       0.193   9.693  23.535  0.00  0.00    +0.000 C 
ATOM      6  C   UNL     1       0.826   8.895  22.398  0.00  0.00    +0.000 C 
ATOM      7  C   UNL     1       0.851   9.710  21.093  0.00  0.00    +0.000 C 
ATOM      8  C   UNL     1      -0.532  10.289  20.752  0.00  0.00    +0.000 C 
ENDROOT
BRANCH   7   9
ATOM      9  C   UNL     1       1.450   8.960  19.912  0.00  0.00    +0.000 A 
ATOM     10  C   UNL     1       1.414   9.417  18.594  0.00  0.00    +0.000 A 
ATOM     11  C   UNL     1       1.907   8.616  17.563  0.00  0.00    +0.000 A 
ATOM     12  C   UNL     1       2.435   7.350  17.840  0.00  0.00    +0.000 A 
ATOM     13  C   UNL     1       2.525   6.891  19.155  0.00  0.00    +0.000 A 
ATOM     14  C   UNL     1       2.057   7.720  20.170  0.00  0.00    +0.000 A 
BRANCH  13  15
ATOM     15  O   UNL     1       3.002   5.620  19.317  0.00  0.00    +0.000 OA
BRANCH  15  16
ATOM     16  C   UNL     1       2.138   4.462  19.208  0.00  0.00    +0.000 C 
ATOM     17  C   UNL     1       1.159   4.383  20.383  0.00  0.00    +0.000 C 
ATOM     18  C   UNL     1       1.516   4.268  17.815  0.00  0.00    +0.000 C 
BRANCH  16  19
ATOM     19  C   UNL     1       3.066   3.233  19.355  0.00  0.00    +0.000 C 
ATOM     20  O   UNL     1       2.958   2.383  20.230  0.00  0.00    +0.000 OA
BRANCH  19  21
ATOM     21  O   UNL     1       4.028   3.161  18.396  0.00  0.00    +0.000 OA
ATOM     22  H   UNL     1       4.447   2.273  18.429  0.00  0.00    +0.000 HD
ENDBRANCH  19  21
ENDBRANCH  16  19
ENDBRANCH  15  16
ENDBRANCH  13  15
ENDBRANCH   7   9
BRANCH   1  23
ATOM     23  O   UNL     1      -1.797  12.716  20.556  0.00  0.00    +0.000 OA
BRANCH  23  24
ATOM     24  C   UNL     1      -1.518  14.123  20.544  0.00  0.00    +0.000 C 
BRANCH  24  28
ATOM     25  C   UNL     1       2.127  14.967  18.333  0.00  0.00    +0.000 A 
ATOM     26  C   UNL     1       1.717  13.645  18.557  0.00  0.00    +0.000 A 
ATOM     27  C   UNL     1       0.544  13.368  19.274  0.00  0.00    +0.000 A 
ATOM     28  C   UNL     1      -0.243  14.406  19.786  0.00  0.00    +0.000 A 
ATOM     29  C   UNL     1       0.159  15.728  19.553  0.00  0.00    +0.000 A 
ATOM     30  C   UNL     1       1.332  16.003  18.839  0.00  0.00    +0.000 A 
BRANCH  25  32
ATOM     31  C   UNL     1       3.561  16.749  17.257  0.00  0.00    +0.000 C 
ATOM     32  C   UNL     1       3.405  15.256  17.563  0.00  0.00    +0.000 C 
ATOM     33  C   UNL     1       4.644  14.737  18.303  0.00  0.00    +0.000 C 
ENDBRANCH  25  32
ENDBRANCH  24  28
ENDBRANCH  23  24
ENDBRANCH   1  23
TORSDOF 9
ENDMDL
MODEL 6
REMARK VINA RESULT:      -7.4      5.894      9.804
REMARK  Name = 
REMARK  13 active torsions:
REMARK  status: ('A' for Active; 'I' for Inactive)
REMARK    1  A    between atoms: C_1  and  C_2
REMARK    2  A    between atoms: C_2  and  C_3
REMARK    3  A    between atoms: C_2  and  C_4
REMARK    4  A    between atoms: C_7  and  C_8
REMARK    5  A    between atoms: C_8  and  O_9
REMARK    6  A    between atoms: O_9  and  C_10
REMARK    7  A    between atoms: C_16  and  C_17
REMARK    8  A    between atoms: C_21  and  O_22
REMARK    9  A    between atoms: O_22  and  C_23
REMARK   10  A    between atoms: C_23  and  C_24
REMARK   11  A    between atoms: C_23  and  C_25
REMARK   12  A    between atoms: C_23  and  C_26
REMARK   13  A    between atoms: C_26  and  O_28
REMARK                            x       y       z     vdW  Elec       q    Type
REMARK                         _______ _______ _______ _____ _____    ______ ____
ROOT
ATOM      1  C   UNL     1       0.684  10.540  21.618  0.00  0.00    +0.000 C 
ATOM      2  O   UNL     1       1.618  10.146  22.297  0.00  0.00    +0.000 OA
ATOM      3  N   UNL     1       0.361   9.996  20.380  0.00  0.00    +0.000 N 
ATOM      4  C   UNL     1       1.135   8.864  19.890  0.00  0.00    +0.000 C 
ATOM      5  C   UNL     1       1.399   8.977  18.392  0.00  0.00    +0.000 C 
ATOM      6  C   UNL     1       0.100   9.171  17.615  0.00  0.00    +0.000 C 
ATOM      7  C   UNL     1      -0.710  10.357  18.170  0.00  0.00    +0.000 C 
ATOM      8  C   UNL     1      -0.904  10.255  19.692  0.00  0.00    +0.000 C 
ENDROOT
BRANCH   7   9
ATOM      9  C   UNL     1      -2.031  10.588  17.451  0.00  0.00    +0.000 A 
ATOM     10  C   UNL     1      -2.299  10.163  16.150  0.00  0.00    +0.000 A 
ATOM     11  C   UNL     1      -3.508  10.501  15.539  0.00  0.00    +0.000 A 
ATOM     12  C   UNL     1      -4.455  11.273  16.222  0.00  0.00    +0.000 A 
ATOM     13  C   UNL     1      -4.229  11.669  17.541  0.00  0.00    +0.000 A 
ATOM     14  C   UNL     1      -3.032  11.292  18.141  0.00  0.00    +0.000 A 
BRANCH  13  15
ATOM     15  O   UNL     1      -5.188  12.466  18.101  0.00  0.00    +0.000 OA
BRANCH  15  16
ATOM     16  C   UNL     1      -6.080  11.976  19.133  0.00  0.00    +0.000 C 
ATOM     17  C   UNL     1      -6.518  10.535  18.853  0.00  0.00    +0.000 C 
ATOM     18  C   UNL     1      -5.600  12.255  20.566  0.00  0.00    +0.000 C 
BRANCH  16  19
ATOM     19  C   UNL     1      -7.364  12.832  19.016  0.00  0.00    +0.000 C 
ATOM     20  O   UNL     1      -7.905  13.131  17.959  0.00  0.00    +0.000 OA
BRANCH  19  21
ATOM     21  O   UNL     1      -7.868  13.221  20.219  0.00  0.00    +0.000 OA
ATOM     22  H   UNL     1      -7.139  13.251  20.876  0.00  0.00    +0.000 HD
ENDBRANCH  19  21
ENDBRANCH  16  19
ENDBRANCH  15  16
ENDBRANCH  13  15
ENDBRANCH   7   9
BRANCH   1  23
ATOM     23  O   UNL     1      -0.153  11.549  21.991  0.00  0.00    +0.000 OA
BRANCH  23  24
ATOM     24  C   UNL     1      -1.089  11.239  23.032  0.00  0.00    +0.000 C 
BRANCH  24  28
ATOM     25  C   UNL     1      -4.003  14.432  23.484  0.00  0.00    +0.000 A 
ATOM     26  C   UNL     1      -2.730  14.695  22.959  0.00  0.00    +0.000 A 
ATOM     27  C   UNL     1      -1.785  13.669  22.816  0.00  0.00    +0.000 A 
ATOM     28  C   UNL     1      -2.090  12.358  23.198  0.00  0.00    +0.000 A 
ATOM     29  C   UNL     1      -3.366  12.091  23.712  0.00  0.00    +0.000 A 
ATOM     30  C   UNL     1      -4.308  13.116  23.856  0.00  0.00    +0.000 A 
BRANCH  25  32
ATOM     31  C   UNL     1      -6.435  15.013  23.852  0.00  0.00    +0.000 C 
ATOM     32  C   UNL     1      -5.016  15.553  23.644  0.00  0.00    +0.000 C 
ATOM     33  C   UNL     1      -4.639  16.502  24.788  0.00  0.00    +0.000 C 
ENDBRANCH  25  32
ENDBRANCH  24  28
ENDBRANCH  23  24
ENDBRANCH   1  23
TORSDOF 9
ENDMDL
MODEL 7
REMARK VINA RESULT:      -7.3      4.135      6.029
REMARK  Name = 
REMARK  13 active torsions:
REMARK  status: ('A' for Active; 'I' for Inactive)
REMARK    1  A    between atoms: C_1  and  C_2
REMARK    2  A    between atoms: C_2  and  C_3
REMARK    3  A    between atoms: C_2  and  C_4
REMARK    4  A    between atoms: C_7  and  C_8
REMARK    5  A    between atoms: C_8  and  O_9
REMARK    6  A    between atoms: O_9  and  C_10
REMARK    7  A    between atoms: C_16  and  C_17
REMARK    8  A    between atoms: C_21  and  O_22
REMARK    9  A    between atoms: O_22  and  C_23
REMARK   10  A    between atoms: C_23  and  C_24
REMARK   11  A    between atoms: C_23  and  C_25
REMARK   12  A    between atoms: C_23  and  C_26
REMARK   13  A    between atoms: C_26  and  O_28
REMARK                            x       y       z     vdW  Elec       q    Type
REMARK                         _______ _______ _______ _____ _____    ______ ____
ROOT
ATOM      1  C   UNL     1       4.870   4.646  19.023  0.00  0.00    +0.000 C 
ATOM      2  O   UNL     1       5.241   3.526  19.333  0.00  0.00    +0.000 OA
ATOM      3  N   UNL     1       3.779   5.277  19.613  0.00  0.00    +0.000 N 
ATOM      4  C   UNL     1       3.077   4.595  20.692  0.00  0.00    +0.000 C 
ATOM      5  C   UNL     1       1.569   4.795  20.586  0.00  0.00    +0.000 C 
ATOM      6  C   UNL     1       1.211   6.276  20.506  0.00  0.00    +0.000 C 
ATOM      7  C   UNL     1       1.986   6.976  19.375  0.00  0.00    +0.000 C 
ATOM      8  C   UNL     1       3.497   6.704  19.463  0.00  0.00    +0.000 C 
ENDROOT
BRANCH   7   9
ATOM      9  C   UNL     1       1.691   8.464  19.257  0.00  0.00    +0.000 A 
ATOM     10  C   UNL     1       1.924   9.220  18.108  0.00  0.00    +0.000 A 
ATOM     11  C   UNL     1       1.708  10.599  18.123  0.00  0.00    +0.000 A 
ATOM     12  C   UNL     1       1.265  11.234  19.289  0.00  0.00    +0.000 A 
ATOM     13  C   UNL     1       0.980  10.492  20.436  0.00  0.00    +0.000 A 
ATOM     14  C   UNL     1       1.170   9.114  20.389  0.00  0.00    +0.000 A 
BRANCH  13  15
ATOM     15  O   UNL     1       0.608  11.209  21.539  0.00  0.00    +0.000 OA
BRANCH  15  16
ATOM     16  C   UNL     1      -0.694  11.837  21.636  0.00  0.00    +0.000 C 
ATOM     17  C   UNL     1      -1.551  11.539  20.401  0.00  0.00    +0.000 C 
ATOM     18  C   UNL     1      -1.393  11.636  22.990  0.00  0.00    +0.000 C 
BRANCH  16  19
ATOM     19  C   UNL     1      -0.427  13.361  21.599  0.00  0.00    +0.000 C 
ATOM     20  O   UNL     1      -1.117  14.172  20.996  0.00  0.00    +0.000 OA
BRANCH  19  21
ATOM     21  O   UNL     1       0.658  13.740  22.327  0.00  0.00    +0.000 OA
ATOM     22  H   UNL     1       0.355  14.101  23.189  0.00  0.00    +0.000 HD
ENDBRANCH  19  21
ENDBRANCH  16  19
ENDBRANCH  15  16
ENDBRANCH  13  15
ENDBRANCH   7   9
BRANCH   1  23
ATOM     23  O   UNL     1       5.478   5.411  18.074  0.00  0.00    +0.000 OA
BRANCH  23  24
ATOM     24  C   UNL     1       6.697   4.888  17.529  0.00  0.00    +0.000 C 
BRANCH  24  28
ATOM     25  C   UNL     1       6.172   3.858  13.339  0.00  0.00    +0.000 A 
ATOM     26  C   UNL     1       5.283   3.377  14.311  0.00  0.00    +0.000 A 
ATOM     27  C   UNL     1       5.452   3.703  15.665  0.00  0.00    +0.000 A 
ATOM     28  C   UNL     1       6.514   4.513  16.078  0.00  0.00    +0.000 A 
ATOM     29  C   UNL     1       7.397   5.006  15.107  0.00  0.00    +0.000 A 
ATOM     30  C   UNL     1       7.229   4.678  13.756  0.00  0.00    +0.000 A 
BRANCH  25  32
ATOM     31  C   UNL     1       6.844   2.285  11.478  0.00  0.00    +0.000 C 
ATOM     32  C   UNL     1       5.986   3.491  11.877  0.00  0.00    +0.000 C 
ATOM     33  C   UNL     1       4.513   3.225  11.541  0.00  0.00    +0.000 C 
ENDBRANCH  25  32
ENDBRANCH  24  28
ENDBRANCH  23  24
ENDBRANCH   1  23
TORSDOF 9
ENDMDL
MODEL 8
REMARK VINA RESULT:      -7.3      3.576      7.429
REMARK  Name = 
REMARK  13 active torsions:
REMARK  status: ('A' for Active; 'I' for Inactive)
REMARK    1  A    between atoms: C_1  and  C_2
REMARK    2  A    between atoms: C_2  and  C_3
REMARK    3  A    between atoms: C_2  and  C_4
REMARK    4  A    between atoms: C_7  and  C_8
REMARK    5  A    between atoms: C_8  and  O_9
REMARK    6  A    between atoms: O_9  and  C_10
REMARK    7  A    between atoms: C_16  and  C_17
REMARK    8  A    between atoms: C_21  and  O_22
REMARK    9  A    between atoms: O_22  and  C_23
REMARK   10  A    between atoms: C_23  and  C_24
REMARK   11  A    between atoms: C_23  and  C_25
REMARK   12  A    between atoms: C_23  and  C_26
REMARK   13  A    between atoms: C_26  and  O_28
REMARK                            x       y       z     vdW  Elec       q    Type
REMARK                         _______ _______ _______ _____ _____    ______ ____
ROOT
ATOM      1  C   UNL     1       0.690  12.589  21.184  0.00  0.00    +0.000 C 
ATOM      2  O   UNL     1       0.008  13.417  21.766  0.00  0.00    +0.000 OA
ATOM      3  N   UNL     1       0.396  11.229  21.177  0.00  0.00    +0.000 N 
ATOM      4  C   UNL     1      -0.814  10.773  21.847  0.00  0.00    +0.000 C 
ATOM      5  C   UNL     1      -0.577   9.461  22.588  0.00  0.00    +0.000 C 
ATOM      6  C   UNL     1       0.009   8.400  21.661  0.00  0.00    +0.000 C 
ATOM      7  C   UNL     1       1.271   8.918  20.949  0.00  0.00    +0.000 C 
ATOM      8  C   UNL     1       1.026  10.275  20.266  0.00  0.00    +0.000 C 
ENDROOT
BRANCH   7   9
ATOM      9  C   UNL     1       1.891   7.913  19.989  0.00  0.00    +0.000 A 
ATOM     10  C   UNL     1       2.014   8.115  18.615  0.00  0.00    +0.000 A 
ATOM     11  C   UNL     1       2.513   7.097  17.800  0.00  0.00    +0.000 A 
ATOM     12  C   UNL     1       2.886   5.867  18.353  0.00  0.00    +0.000 A 
ATOM     13  C   UNL     1       2.817   5.658  19.731  0.00  0.00    +0.000 A 
ATOM     14  C   UNL     1       2.348   6.698  20.528  0.00  0.00    +0.000 A 
BRANCH  13  15
ATOM     15  O   UNL     1       3.150   4.405  20.167  0.00  0.00    +0.000 OA
BRANCH  15  16
ATOM     16  C   UNL     1       2.159   3.357  20.303  0.00  0.00    +0.000 C 
ATOM     17  C   UNL     1       2.277   2.650  21.656  0.00  0.00    +0.000 C 
ATOM     18  C   UNL     1       0.737   3.777  19.897  0.00  0.00    +0.000 C 
BRANCH  16  19
ATOM     19  C   UNL     1       2.529   2.293  19.242  0.00  0.00    +0.000 C 
ATOM     20  O   UNL     1       3.672   2.045  18.878  0.00  0.00    +0.000 OA
BRANCH  19  21
ATOM     21  O   UNL     1       1.454   1.622  18.748  0.00  0.00    +0.000 OA
ATOM     22  H   UNL     1       1.149   2.068  17.928  0.00  0.00    +0.000 HD
ENDBRANCH  19  21
ENDBRANCH  16  19
ENDBRANCH  15  16
ENDBRANCH  13  15
ENDBRANCH   7   9
BRANCH   1  23
ATOM     23  O   UNL     1       1.810  12.895  20.472  0.00  0.00    +0.000 OA
BRANCH  23  24
ATOM     24  C   UNL     1       1.838  14.196  19.868  0.00  0.00    +0.000 C 
BRANCH  24  28
ATOM     25  C   UNL     1       5.921  15.322  18.895  0.00  0.00    +0.000 A 
ATOM     26  C   UNL     1       5.514  15.191  20.231  0.00  0.00    +0.000 A 
ATOM     27  C   UNL     1       4.197  14.833  20.549  0.00  0.00    +0.000 A 
ATOM     28  C   UNL     1       3.256  14.601  19.541  0.00  0.00    +0.000 A 
ATOM     29  C   UNL     1       3.663  14.719  18.205  0.00  0.00    +0.000 A 
ATOM     30  C   UNL     1       4.979  15.078  17.888  0.00  0.00    +0.000 A 
BRANCH  25  32
ATOM     31  C   UNL     1       7.537  17.241  18.585  0.00  0.00    +0.000 C 
ATOM     32  C   UNL     1       7.350  15.720  18.561  0.00  0.00    +0.000 C 
ATOM     33  C   UNL     1       8.361  15.049  19.499  0.00  0.00    +0.000 C 
ENDBRANCH  25  32
ENDBRANCH  24  28
ENDBRANCH  23  24
ENDBRANCH   1  23
TORSDOF 9
ENDMDL
MODEL 9
REMARK VINA RESULT:      -7.3      3.963      7.920
REMARK  Name = 
REMARK  13 active torsions:
REMARK  status: ('A' for Active; 'I' for Inactive)
REMARK    1  A    between atoms: C_1  and  C_2
REMARK    2  A    between atoms: C_2  and  C_3
REMARK    3  A    between atoms: C_2  and  C_4
REMARK    4  A    between atoms: C_7  and  C_8
REMARK    5  A    between atoms: C_8  and  O_9
REMARK    6  A    between atoms: O_9  and  C_10
REMARK    7  A    between atoms: C_16  and  C_17
REMARK    8  A    between atoms: C_21  and  O_22
REMARK    9  A    between atoms: O_22  and  C_23
REMARK   10  A    between atoms: C_23  and  C_24
REMARK   11  A    between atoms: C_23  and  C_25
REMARK   12  A    between atoms: C_23  and  C_26
REMARK   13  A    between atoms: C_26  and  O_28
REMARK                            x       y       z     vdW  Elec       q    Type
REMARK                         _______ _______ _______ _____ _____    ______ ____
ROOT
ATOM      1  C   UNL     1      -1.254  11.712  20.000  0.00  0.00    +0.000 C 
ATOM      2  O   UNL     1      -2.037  12.388  20.646  0.00  0.00    +0.000 OA
ATOM      3  N   UNL     1      -0.602  10.598  20.520  0.00  0.00    +0.000 N 
ATOM      4  C   UNL     1      -0.908  10.181  21.881  0.00  0.00    +0.000 C 
ATOM      5  C   UNL     1       0.347   9.725  22.617  0.00  0.00    +0.000 C 
ATOM      6  C   UNL     1       1.088   8.646  21.833  0.00  0.00    +0.000 C 
ATOM      7  C   UNL     1       1.374   9.103  20.391  0.00  0.00    +0.000 C 
ATOM      8  C   UNL     1       0.106   9.621  19.692  0.00  0.00    +0.000 C 
ENDROOT
BRANCH   7   9
ATOM      9  C   UNL     1       2.091   8.059  19.547  0.00  0.00    +0.000 A 
ATOM     10  C   UNL     1       2.479   8.256  18.222  0.00  0.00    +0.000 A 
ATOM     11  C   UNL     1       3.049   7.207  17.497  0.00  0.00    +0.000 A 
ATOM     12  C   UNL     1       3.229   5.952  18.090  0.00  0.00    +0.000 A 
ATOM     13  C   UNL     1       2.893   5.746  19.429  0.00  0.00    +0.000 A 
ATOM     14  C   UNL     1       2.357   6.814  20.141  0.00  0.00    +0.000 A 
BRANCH  13  15
ATOM     15  O   UNL     1       3.054   4.472  19.899  0.00  0.00    +0.000 OA
BRANCH  15  16
ATOM     16  C   UNL     1       2.095   3.426  19.609  0.00  0.00    +0.000 C 
ATOM     17  C   UNL     1       1.458   2.881  20.892  0.00  0.00    +0.000 C 
ATOM     18  C   UNL     1       1.113   3.766  18.476  0.00  0.00    +0.000 C 
BRANCH  16  19
ATOM     19  C   UNL     1       2.918   2.254  19.023  0.00  0.00    +0.000 C 
ATOM     20  O   UNL     1       4.030   1.923  19.415  0.00  0.00    +0.000 OA
BRANCH  19  21
ATOM     21  O   UNL     1       2.281   1.590  18.021  0.00  0.00    +0.000 OA
ATOM     22  H   UNL     1       2.129   0.661  18.299  0.00  0.00    +0.000 HD
ENDBRANCH  19  21
ENDBRANCH  16  19
ENDBRANCH  15  16
ENDBRANCH  13  15
ENDBRANCH   7   9
BRANCH   1  23
ATOM     23  O   UNL     1      -0.931  11.959  18.700  0.00  0.00    +0.000 OA
BRANCH  23  24
ATOM     24  C   UNL     1      -0.735  13.336  18.351  0.00  0.00    +0.000 C 
BRANCH  24  28
ATOM     25  C   UNL     1       3.348  14.599  19.145  0.00  0.00    +0.000 A 
ATOM     26  C   UNL     1       3.089  13.413  18.441  0.00  0.00    +0.000 A 
ATOM     27  C   UNL     1       1.774  13.000  18.187  0.00  0.00    +0.000 A 
ATOM     28  C   UNL     1       0.687  13.760  18.633  0.00  0.00    +0.000 A 
ATOM     29  C   UNL     1       0.943  14.951  19.326  0.00  0.00    +0.000 A 
ATOM     30  C   UNL     1       2.257  15.362  19.580  0.00  0.00    +0.000 A 
BRANCH  25  32
ATOM     31  C   UNL     1       5.070  16.425  18.855  0.00  0.00    +0.000 C 
ATOM     32  C   UNL     1       4.778  15.032  19.422  0.00  0.00    +0.000 C 
ATOM     33  C   UNL     1       5.103  14.993  20.921  0.00  0.00    +0.000 C 
ENDBRANCH  25  32
ENDBRANCH  24  28
ENDBRANCH  23  24
ENDBRANCH   1  23
TORSDOF 9
ENDMDL
