MODEL 1
REMARK VINA RESULT:      -8.6      0.000      0.000
REMARK  Name = 
REMARK  6 active torsions:
REMARK  status: ('A' for Active; 'I' for Inactive)
REMARK    1  A    between atoms: C_1  and  C_2
REMARK    2  A    between atoms: CA_4  and  C_5
REMARK    3  A    between atoms: C_5  and  OXT_7
REMARK    4  A    between atoms: C_9  and  C_10
REMARK    5  A    between atoms: C_17  and  N_18
REMARK    6  A    between atoms: N_21  and  C_22
REMARK                            x       y       z     vdW  Elec       q    Type
REMARK                         _______ _______ _______ _____ _____    ______ ____
ROOT
ATOM      1  C   UNL     1       3.186   7.275  17.732  0.00  0.00    +0.000 C 
ATOM      2  C   UNL     1       2.471   7.593  18.827  0.00  0.00    +0.000 C 
ATOM      3  C   UNL     1       2.375   6.807  20.124  0.00  0.00    +0.000 C 
ATOM      4  O   UNL     1       2.864   5.729  20.409  0.00  0.00    +0.000 OA
ATOM      5  N   UNL     1       1.544   7.548  20.936  0.00  0.00    +0.000 N 
ATOM      6  C   UNL     1       1.077   8.679  20.286  0.00  0.00    +0.000 A 
ATOM      7  C   UNL     1       0.181   9.580  20.819  0.00  0.00    +0.000 A 
ATOM      8  C   UNL     1      -0.202  10.679  20.046  0.00  0.00    +0.000 A 
ATOM      9  C   UNL     1       0.287  10.786  18.726  0.00  0.00    +0.000 A 
ATOM     10  C   UNL     1       1.202   9.841  18.199  0.00  0.00    +0.000 A 
ATOM     11  C   UNL     1       1.605   8.783  19.000  0.00  0.00    +0.000 A 
ATOM     12  H   UNL     1       1.294   7.269  21.874  0.00  0.00    +0.000 HD
ENDROOT
BRANCH   1  18
ATOM     13  C   UNL     1       2.223   4.134  17.432  0.00  0.00    +0.000 C 
ATOM     14  C   UNL     1       3.585   4.729  17.447  0.00  0.00    +0.000 A 
ATOM     15  C   UNL     1       4.801   3.991  17.351  0.00  0.00    +0.000 A 
ATOM     16  CA  UNL     1       5.858   4.878  17.351  0.00  0.00    +0.000 A 
ATOM     17  N   UNL     1       5.304   6.122  17.525  0.00  0.00    +0.000 N 
ATOM     18  C   UNL     1       3.929   6.071  17.541  0.00  0.00    +0.000 A 
ATOM     19  H   UNL     1       5.840   6.979  17.564  0.00  0.00    +0.000 HD
BRANCH  16  20
ATOM     20  C   UNL     1       7.266   4.590  17.247  0.00  0.00    +0.000 C 
ATOM     21  O   UNL     1       7.897   4.440  16.210  0.00  0.00    +0.000 OA
BRANCH  20  22
ATOM     22  OXT UNL     1       7.856   4.478  18.466  0.00  0.00    +0.000 OA
ATOM     23  HXT UNL     1       7.336   4.892  19.183  0.00  0.00    +0.000 HD
ENDBRANCH  20  22
ENDBRANCH  16  20
ENDBRANCH   1  18
BRANCH   8  24
ATOM     24  N   UNL     1      -1.078  11.671  20.563  0.00  0.00    +0.000 N 
ATOM     25  C   UNL     1      -0.648  12.713  21.374  0.00  0.00    +0.000 C 
ATOM     26  O   UNL     1       0.529  12.951  21.628  0.00  0.00    +0.000 OA
ATOM     27  N   UNL     1      -1.701  13.450  21.904  0.00  0.00    +0.000 N 
ATOM     28  H   UNL     1      -1.965  11.807  20.098  0.00  0.00    +0.000 HD
ATOM     29  H   UNL     1      -2.512  12.895  22.138  0.00  0.00    +0.000 HD
BRANCH  27  30
ATOM     30  C   UNL     1      -1.412  14.535  22.772  0.00  0.00    +0.000 A 
ATOM     31  C   UNL     1      -1.394  14.362  24.163  0.00  0.00    +0.000 A 
ATOM     32  C   UNL     1      -1.243  15.460  25.013  0.00  0.00    +0.000 A 
ATOM     33  C   UNL     1      -1.115  16.734  24.470  0.00  0.00    +0.000 A 
ATOM     34 CL   UNL     1      -1.004  18.099  25.511  0.00  0.00    +0.000 Cl
ATOM     35  C   UNL     1      -1.092  16.912  23.085  0.00  0.00    +0.000 A 
ATOM     36  C   UNL     1      -1.214  15.808  22.233  0.00  0.00    +0.000 A 
ENDBRANCH  27  30
ENDBRANCH   8  24
TORSDOF 5
ENDMDL
MODEL 2
REMARK VINA RESULT:      -8.5      0.466      1.113
REMARK  Name = 
REMARK  6 active torsions:
REMARK  status: ('A' for Active; 'I' for Inactive)
REMARK    1  A    between atoms: C_1  and  C_2
REMARK    2  A    between atoms: CA_4  and  C_5
REMARK    3  A    between atoms: C_5  and  OXT_7
REMARK    4  A    between atoms: C_9  and  C_10
REMARK    5  A    between atoms: C_17  and  N_18
REMARK    6  A    between atoms: N_21  and  C_22
REMARK                            x       y       z     vdW  Elec       q    Type
REMARK                         _______ _______ _______ _____ _____    ______ ____
ROOT
ATOM      1  C   UNL     1       3.293   7.112  17.577  0.00  0.00    +0.000 C 
ATOM      2  C   UNL     1       2.606   7.417  18.694  0.00  0.00    +0.000 C 
ATOM      3  C   UNL     1       2.564   6.628  19.992  0.00  0.00    +0.000 C 
ATOM      4  O   UNL     1       3.080   5.557  20.260  0.00  0.00    +0.000 OA
ATOM      5  N   UNL     1       1.746   7.353  20.831  0.00  0.00    +0.000 N 
ATOM      6  C   UNL     1       1.241   8.477  20.198  0.00  0.00    +0.000 A 
ATOM      7  C   UNL     1       0.347   9.363  20.760  0.00  0.00    +0.000 A 
ATOM      8  C   UNL     1      -0.078  10.456  20.002  0.00  0.00    +0.000 A 
ATOM      9  C   UNL     1       0.368  10.573  18.668  0.00  0.00    +0.000 A 
ATOM     10  C   UNL     1       1.281   9.645  18.111  0.00  0.00    +0.000 A 
ATOM     11  C   UNL     1       1.726   8.592  18.896  0.00  0.00    +0.000 A 
ATOM     12  H   UNL     1       1.530   7.069  21.776  0.00  0.00    +0.000 HD
ENDROOT
BRANCH   1  18
ATOM     13  C   UNL     1       2.381   3.948  17.371  0.00  0.00    +0.000 C 
ATOM     14  C   UNL     1       3.728   4.571  17.302  0.00  0.00    +0.000 A 
ATOM     15  C   UNL     1       4.953   3.856  17.149  0.00  0.00    +0.000 A 
ATOM     16  CA  UNL     1       5.989   4.765  17.079  0.00  0.00    +0.000 A 
ATOM     17  N   UNL     1       5.419   6.000  17.268  0.00  0.00    +0.000 N 
ATOM     18  C   UNL     1       4.049   5.921  17.361  0.00  0.00    +0.000 A 
ATOM     19  H   UNL     1       5.939   6.868  17.266  0.00  0.00    +0.000 HD
BRANCH  16  20
ATOM     20  C   UNL     1       7.395   4.505  16.901  0.00  0.00    +0.000 C 
ATOM     21  O   UNL     1       8.181   4.159  17.773  0.00  0.00    +0.000 OA
BRANCH  20  22
ATOM     22  OXT UNL     1       7.793   4.704  15.617  0.00  0.00    +0.000 OA
ATOM     23  HXT UNL     1       8.050   3.878  15.163  0.00  0.00    +0.000 HD
ENDBRANCH  20  22
ENDBRANCH  16  20
ENDBRANCH   1  18
BRANCH   8  24
ATOM     24  N   UNL     1      -0.954  11.433  20.548  0.00  0.00    +0.000 N 
ATOM     25  C   UNL     1      -0.512  12.505  21.311  0.00  0.00    +0.000 C 
ATOM     26  O   UNL     1       0.670  12.783  21.492  0.00  0.00    +0.000 OA
ATOM     27  N   UNL     1      -1.555  13.222  21.885  0.00  0.00    +0.000 N 
ATOM     28  H   UNL     1      -1.869  11.532  20.131  0.00  0.00    +0.000 HD
ATOM     29  H   UNL     1      -2.334  12.648  22.177  0.00  0.00    +0.000 HD
BRANCH  27  30
ATOM     30  C   UNL     1      -1.251  14.334  22.713  0.00  0.00    +0.000 A 
ATOM     31  C   UNL     1      -0.586  15.456  22.199  0.00  0.00    +0.000 A 
ATOM     32  C   UNL     1      -0.170  16.485  23.047  0.00  0.00    +0.000 A 
ATOM     33  C   UNL     1      -0.415  16.388  24.413  0.00  0.00    +0.000 A 
ATOM     34 CL   UNL     1       0.160  17.615  25.473  0.00  0.00    +0.000 Cl
ATOM     35  C   UNL     1      -1.111  15.293  24.929  0.00  0.00    +0.000 A 
ATOM     36  C   UNL     1      -1.554  14.276  24.075  0.00  0.00    +0.000 A 
ENDBRANCH  27  30
ENDBRANCH   8  24
TORSDOF 5
ENDMDL
MODEL 3
REMARK VINA RESULT:      -8.4      1.274      1.856
REMARK  Name = 
REMARK  6 active torsions:
REMARK  status: ('A' for Active; 'I' for Inactive)
REMARK    1  A    between atoms: C_1  and  C_2
REMARK    2  A    between atoms: CA_4  and  C_5
REMARK    3  A    between atoms: C_5  and  OXT_7
REMARK    4  A    between atoms: C_9  and  C_10
REMARK    5  A    between atoms: C_17  and  N_18
REMARK    6  A    between atoms: N_21  and  C_22
REMARK                            x       y       z     vdW  Elec       q    Type
REMARK                         _______ _______ _______ _____ _____    ______ ____
ROOT
ATOM      1  C   UNL     1       2.909   6.228  19.523  0.00  0.00    +0.000 C 
ATOM      2  C   UNL     1       2.382   7.400  19.121  0.00  0.00    +0.000 C 
ATOM      3  C   UNL     1       2.590   8.092  17.784  0.00  0.00    +0.000 C 
ATOM      4  O   UNL     1       3.303   7.768  16.852  0.00  0.00    +0.000 OA
ATOM      5  N   UNL     1       1.831   9.240  17.848  0.00  0.00    +0.000 N 
ATOM      6  C   UNL     1       1.208   9.367  19.079  0.00  0.00    +0.000 A 
ATOM      7  C   UNL     1       0.433  10.440  19.463  0.00  0.00    +0.000 A 
ATOM      8  C   UNL     1      -0.134  10.434  20.740  0.00  0.00    +0.000 A 
ATOM      9  C   UNL     1       0.165   9.364  21.611  0.00  0.00    +0.000 A 
ATOM     10  C   UNL     1       0.971   8.276  21.195  0.00  0.00    +0.000 A 
ATOM     11  C   UNL     1       1.487   8.280  19.907  0.00  0.00    +0.000 A 
ATOM     12  H   UNL     1       1.772   9.908  17.093  0.00  0.00    +0.000 HD
ENDROOT
BRANCH   1  18
ATOM     13  C   UNL     1       2.514   3.767  17.361  0.00  0.00    +0.000 C 
ATOM     14  C   UNL     1       3.751   4.382  17.909  0.00  0.00    +0.000 A 
ATOM     15  C   UNL     1       5.079   3.969  17.593  0.00  0.00    +0.000 A 
ATOM     16  CA  UNL     1       5.968   4.795  18.250  0.00  0.00    +0.000 A 
ATOM     17  N   UNL     1       5.201   5.640  19.013  0.00  0.00    +0.000 N 
ATOM     18  C   UNL     1       3.856   5.446  18.796  0.00  0.00    +0.000 A 
ATOM     19  H   UNL     1       5.580   6.364  19.608  0.00  0.00    +0.000 HD
BRANCH  16  20
ATOM     20  C   UNL     1       7.408   4.771  18.209  0.00  0.00    +0.000 C 
ATOM     21  O   UNL     1       8.096   4.300  17.314  0.00  0.00    +0.000 OA
BRANCH  20  22
ATOM     22  OXT UNL     1       7.960   5.330  19.318  0.00  0.00    +0.000 OA
ATOM     23  HXT UNL     1       8.937   5.307  19.312  0.00  0.00    +0.000 HD
ENDBRANCH  20  22
ENDBRANCH  16  20
ENDBRANCH   1  18
BRANCH   8  24
ATOM     24  N   UNL     1      -0.988  11.485  21.170  0.00  0.00    +0.000 N 
ATOM     25  C   UNL     1      -0.517  12.645  21.769  0.00  0.00    +0.000 C 
ATOM     26  O   UNL     1       0.671  12.933  21.881  0.00  0.00    +0.000 OA
ATOM     27  N   UNL     1      -1.540  13.445  22.268  0.00  0.00    +0.000 N 
ATOM     28  H   UNL     1      -1.913  11.536  20.768  0.00  0.00    +0.000 HD
ATOM     29  H   UNL     1      -2.315  12.924  22.654  0.00  0.00    +0.000 HD
BRANCH  27  30
ATOM     30  C   UNL     1      -1.205  14.655  22.929  0.00  0.00    +0.000 A 
ATOM     31  C   UNL     1      -0.718  15.758  22.213  0.00  0.00    +0.000 A 
ATOM     32  C   UNL     1      -0.263  16.896  22.884  0.00  0.00    +0.000 A 
ATOM     33  C   UNL     1      -0.292  16.927  24.275  0.00  0.00    +0.000 A 
ATOM     34 CL   UNL     1       0.335  18.294  25.111  0.00  0.00    +0.000 Cl
ATOM     35  C   UNL     1      -0.812  15.849  24.995  0.00  0.00    +0.000 A 
ATOM     36  C   UNL     1      -1.294  14.721  24.321  0.00  0.00    +0.000 A 
ENDBRANCH  27  30
ENDBRANCH   8  24
TORSDOF 5
ENDMDL
MODEL 4
REMARK VINA RESULT:      -8.3      1.499      1.936
REMARK  Name = 
REMARK  6 active torsions:
REMARK  status: ('A' for Active; 'I' for Inactive)
REMARK    1  A    between atoms: C_1  and  C_2
REMARK    2  A    between atoms: CA_4  and  C_5
REMARK    3  A    between atoms: C_5  and  OXT_7
REMARK    4  A    between atoms: C_9  and  C_10
REMARK    5  A    between atoms: C_17  and  N_18
REMARK    6  A    between atoms: N_21  and  C_22
REMARK                            x       y       z     vdW  Elec       q    Type
REMARK                         _______ _______ _______ _____ _____    ______ ____
ROOT
ATOM      1  C   UNL     1       2.239   6.647  20.039  0.00  0.00    +0.000 C 
ATOM      2  C   UNL     1       1.772   7.849  19.652  0.00  0.00    +0.000 C 
ATOM      3  C   UNL     1       2.042   8.561  18.337  0.00  0.00    +0.000 C 
ATOM      4  O   UNL     1       2.763   8.227  17.414  0.00  0.00    +0.000 OA
ATOM      5  N   UNL     1       1.331   9.739  18.411  0.00  0.00    +0.000 N 
ATOM      6  C   UNL     1       0.685   9.866  19.629  0.00  0.00    +0.000 A 
ATOM      7  C   UNL     1      -0.052  10.963  20.020  0.00  0.00    +0.000 A 
ATOM      8  C   UNL     1      -0.649  10.953  21.283  0.00  0.00    +0.000 A 
ATOM      9  C   UNL     1      -0.418   9.852  22.136  0.00  0.00    +0.000 A 
ATOM     10  C   UNL     1       0.350   8.739  21.713  0.00  0.00    +0.000 A 
ATOM     11  C   UNL     1       0.897   8.750  20.438  0.00  0.00    +0.000 A 
ATOM     12  H   UNL     1       1.319  10.426  17.670  0.00  0.00    +0.000 HD
ENDROOT
BRANCH   1  18
ATOM     13  C   UNL     1       1.797   4.360  17.702  0.00  0.00    +0.000 C 
ATOM     14  C   UNL     1       3.039   4.844  18.357  0.00  0.00    +0.000 A 
ATOM     15  C   UNL     1       4.351   4.350  18.088  0.00  0.00    +0.000 A 
ATOM     16  CA  UNL     1       5.256   5.065  18.847  0.00  0.00    +0.000 A 
ATOM     17  N   UNL     1       4.508   5.917  19.620  0.00  0.00    +0.000 N 
ATOM     18  C   UNL     1       3.168   5.840  19.316  0.00  0.00    +0.000 A 
ATOM     19  H   UNL     1       4.902   6.573  20.282  0.00  0.00    +0.000 HD
BRANCH  16  20
ATOM     20  C   UNL     1       6.690   4.933  18.885  0.00  0.00    +0.000 C 
ATOM     21  O   UNL     1       7.390   4.418  18.024  0.00  0.00    +0.000 OA
BRANCH  20  22
ATOM     22  OXT UNL     1       7.220   5.441  20.028  0.00  0.00    +0.000 OA
ATOM     23  HXT UNL     1       7.484   6.379  19.944  0.00  0.00    +0.000 HD
ENDBRANCH  20  22
ENDBRANCH  16  20
ENDBRANCH   1  18
BRANCH   8  24
ATOM     24  N   UNL     1      -1.467  12.030  21.718  0.00  0.00    +0.000 N 
ATOM     25  C   UNL     1      -0.995  13.067  22.511  0.00  0.00    +0.000 C 
ATOM     26  O   UNL     1       0.184  13.223  22.816  0.00  0.00    +0.000 OA
ATOM     27  N   UNL     1      -2.010  13.905  22.960  0.00  0.00    +0.000 N 
ATOM     28  H   UNL     1      -2.317  12.216  21.203  0.00  0.00    +0.000 HD
ATOM     29  H   UNL     1      -2.873  13.424  23.172  0.00  0.00    +0.000 HD
BRANCH  27  30
ATOM     30  C   UNL     1      -1.676  14.998  23.801  0.00  0.00    +0.000 A 
ATOM     31  C   UNL     1      -1.744  14.882  25.196  0.00  0.00    +0.000 A 
ATOM     32  C   UNL     1      -1.547  15.999  26.012  0.00  0.00    +0.000 A 
ATOM     33  C   UNL     1      -1.286  17.235  25.430  0.00  0.00    +0.000 A 
ATOM     34 CL   UNL     1      -1.116  18.629  26.424  0.00  0.00    +0.000 Cl
ATOM     35  C   UNL     1      -1.177  17.352  24.042  0.00  0.00    +0.000 A 
ATOM     36  C   UNL     1      -1.346  16.227  23.227  0.00  0.00    +0.000 A 
ENDBRANCH  27  30
ENDBRANCH   8  24
TORSDOF 5
ENDMDL
MODEL 5
REMARK VINA RESULT:      -8.2      1.250      1.700
REMARK  Name = 
REMARK  6 active torsions:
REMARK  status: ('A' for Active; 'I' for Inactive)
REMARK    1  A    between atoms: C_1  and  C_2
REMARK    2  A    between atoms: CA_4  and  C_5
REMARK    3  A    between atoms: C_5  and  OXT_7
REMARK    4  A    between atoms: C_9  and  C_10
REMARK    5  A    between atoms: C_17  and  N_18
REMARK    6  A    between atoms: N_21  and  C_22
REMARK                            x       y       z     vdW  Elec       q    Type
REMARK                         _______ _______ _______ _____ _____    ______ ____
ROOT
ATOM      1  C   UNL     1       2.699   6.278  19.397  0.00  0.00    +0.000 C 
ATOM      2  C   UNL     1       2.238   7.493  19.046  0.00  0.00    +0.000 C 
ATOM      3  C   UNL     1       2.509   8.242  17.752  0.00  0.00    +0.000 C 
ATOM      4  O   UNL     1       3.228   7.933  16.819  0.00  0.00    +0.000 OA
ATOM      5  N   UNL     1       1.803   9.421  17.861  0.00  0.00    +0.000 N 
ATOM      6  C   UNL     1       1.159   9.515  19.084  0.00  0.00    +0.000 A 
ATOM      7  C   UNL     1       0.427  10.602  19.508  0.00  0.00    +0.000 A 
ATOM      8  C   UNL     1      -0.169  10.557  20.770  0.00  0.00    +0.000 A 
ATOM      9  C   UNL     1       0.059   9.431  21.590  0.00  0.00    +0.000 A 
ATOM     10  C   UNL     1       0.822   8.328  21.133  0.00  0.00    +0.000 A 
ATOM     11  C   UNL     1       1.367   8.374  19.859  0.00  0.00    +0.000 A 
ATOM     12  H   UNL     1       1.793  10.129  17.141  0.00  0.00    +0.000 HD
ENDROOT
BRANCH   1  18
ATOM     13  C   UNL     1       2.283   3.566  17.565  0.00  0.00    +0.000 C 
ATOM     14  C   UNL     1       3.515   4.327  17.897  0.00  0.00    +0.000 A 
ATOM     15  C   UNL     1       4.831   3.979  17.471  0.00  0.00    +0.000 A 
ATOM     16  CA  UNL     1       5.712   4.937  17.930  0.00  0.00    +0.000 A 
ATOM     17  N   UNL     1       4.964   5.804  18.686  0.00  0.00    +0.000 N 
ATOM     18  C   UNL     1       3.625   5.490  18.649  0.00  0.00    +0.000 A 
ATOM     19  H   UNL     1       5.342   6.617  19.153  0.00  0.00    +0.000 HD
BRANCH  16  20
ATOM     20  C   UNL     1       7.136   5.013  17.723  0.00  0.00    +0.000 C 
ATOM     21  O   UNL     1       7.996   4.514  18.436  0.00  0.00    +0.000 OA
BRANCH  20  22
ATOM     22  OXT UNL     1       7.454   5.740  16.620  0.00  0.00    +0.000 OA
ATOM     23  HXT UNL     1       7.395   5.225  15.791  0.00  0.00    +0.000 HD
ENDBRANCH  20  22
ENDBRANCH  16  20
ENDBRANCH   1  18
BRANCH   8  24
ATOM     24  N   UNL     1      -0.982  11.625  21.237  0.00  0.00    +0.000 N 
ATOM     25  C   UNL     1      -0.469  12.740  21.886  0.00  0.00    +0.000 C 
ATOM     26  O   UNL     1       0.729  12.974  22.016  0.00  0.00    +0.000 OA
ATOM     27  N   UNL     1      -1.461  13.560  22.410  0.00  0.00    +0.000 N 
ATOM     28  H   UNL     1      -1.902  11.731  20.832  0.00  0.00    +0.000 HD
ATOM     29  H   UNL     1      -2.260  13.057  22.770  0.00  0.00    +0.000 HD
BRANCH  27  30
ATOM     30  C   UNL     1      -1.082  14.729  23.121  0.00  0.00    +0.000 A 
ATOM     31  C   UNL     1      -1.256  14.817  24.509  0.00  0.00    +0.000 A 
ATOM     32  C   UNL     1      -1.008  16.017  25.181  0.00  0.00    +0.000 A 
ATOM     33  C   UNL     1      -0.590  17.131  24.461  0.00  0.00    +0.000 A 
ATOM     34 CL   UNL     1      -0.355  18.631  25.270  0.00  0.00    +0.000 Cl
ATOM     35  C   UNL     1      -0.376  17.041  23.084  0.00  0.00    +0.000 A 
ATOM     36  C   UNL     1      -0.597  15.832  22.416  0.00  0.00    +0.000 A 
ENDBRANCH  27  30
ENDBRANCH   8  24
TORSDOF 5
ENDMDL
MODEL 6
REMARK VINA RESULT:      -8.2      2.410      2.957
REMARK  Name = 
REMARK  6 active torsions:
REMARK  status: ('A' for Active; 'I' for Inactive)
REMARK    1  A    between atoms: C_1  and  C_2
REMARK    2  A    between atoms: CA_4  and  C_5
REMARK    3  A    between atoms: C_5  and  OXT_7
REMARK    4  A    between atoms: C_9  and  C_10
REMARK    5  A    between atoms: C_17  and  N_18
REMARK    6  A    between atoms: N_21  and  C_22
REMARK                            x       y       z     vdW  Elec       q    Type
REMARK                         _______ _______ _______ _____ _____    ______ ____
ROOT
ATOM      1  C   UNL     1       2.894   6.216  19.312  0.00  0.00    +0.000 C 
ATOM      2  C   UNL     1       2.396   7.454  19.130  0.00  0.00    +0.000 C 
ATOM      3  C   UNL     1       2.518   8.321  17.889  0.00  0.00    +0.000 C 
ATOM      4  O   UNL     1       3.124   8.106  16.855  0.00  0.00    +0.000 OA
ATOM      5  N   UNL     1       1.831   9.479  18.187  0.00  0.00    +0.000 N 
ATOM      6  C   UNL     1       1.332   9.453  19.479  0.00  0.00    +0.000 A 
ATOM      7  C   UNL     1       0.655  10.490  20.083  0.00  0.00    +0.000 A 
ATOM      8  C   UNL     1       0.208  10.324  21.396  0.00  0.00    +0.000 A 
ATOM      9  C   UNL     1       0.527   9.129  22.076  0.00  0.00    +0.000 A 
ATOM     10  C   UNL     1       1.231   8.080  21.435  0.00  0.00    +0.000 A 
ATOM     11  C   UNL     1       1.626   8.248  20.116  0.00  0.00    +0.000 A 
ATOM     12  H   UNL     1       1.739  10.250  17.541  0.00  0.00    +0.000 HD
ENDROOT
BRANCH   1  18
ATOM     13  C   UNL     1       2.298   3.606  17.384  0.00  0.00    +0.000 C 
ATOM     14  C   UNL     1       3.543   4.391  17.590  0.00  0.00    +0.000 A 
ATOM     15  C   UNL     1       4.795   4.116  16.964  0.00  0.00    +0.000 A 
ATOM     16  CA  UNL     1       5.705   5.077  17.357  0.00  0.00    +0.000 A 
ATOM     17  N   UNL     1       5.047   5.869  18.264  0.00  0.00    +0.000 N 
ATOM     18  C   UNL     1       3.725   5.508  18.394  0.00  0.00    +0.000 A 
ATOM     19  H   UNL     1       5.465   6.665  18.726  0.00  0.00    +0.000 HD
BRANCH  16  20
ATOM     20  C   UNL     1       7.083   5.217  16.959  0.00  0.00    +0.000 C 
ATOM     21  O   UNL     1       7.942   4.348  17.016  0.00  0.00    +0.000 OA
BRANCH  20  22
ATOM     22  OXT UNL     1       7.360   6.469  16.510  0.00  0.00    +0.000 OA
ATOM     23  HXT UNL     1       6.824   6.725  15.734  0.00  0.00    +0.000 HD
ENDBRANCH  20  22
ENDBRANCH  16  20
ENDBRANCH   1  18
BRANCH   8  24
ATOM     24  N   UNL     1      -0.544  11.336  22.050  0.00  0.00    +0.000 N 
ATOM     25  C   UNL     1      -1.568  12.039  21.430  0.00  0.00    +0.000 C 
ATOM     26  O   UNL     1      -2.002  11.785  20.311  0.00  0.00    +0.000 OA
ATOM     27  N   UNL     1      -2.036  13.098  22.201  0.00  0.00    +0.000 N 
ATOM     28  H   UNL     1      -0.551  11.341  23.061  0.00  0.00    +0.000 HD
ATOM     29  H   UNL     1      -1.316  13.566  22.732  0.00  0.00    +0.000 HD
BRANCH  27  30
ATOM     30  C   UNL     1      -3.069  13.921  21.682  0.00  0.00    +0.000 A 
ATOM     31  C   UNL     1      -2.777  15.148  21.071  0.00  0.00    +0.000 A 
ATOM     32  C   UNL     1      -3.805  16.013  20.687  0.00  0.00    +0.000 A 
ATOM     33  C   UNL     1      -5.127  15.650  20.919  0.00  0.00    +0.000 A 
ATOM     34 CL   UNL     1      -6.395  16.741  20.518  0.00  0.00    +0.000 Cl
ATOM     35  C   UNL     1      -5.429  14.413  21.492  0.00  0.00    +0.000 A 
ATOM     36  C   UNL     1      -4.400  13.534  21.851  0.00  0.00    +0.000 A 
ENDBRANCH  27  30
ENDBRANCH   8  24
TORSDOF 5
ENDMDL
MODEL 7
REMARK VINA RESULT:      -8.1      2.855      3.314
REMARK  Name = 
REMARK  6 active torsions:
REMARK  status: ('A' for Active; 'I' for Inactive)
REMARK    1  A    between atoms: C_1  and  C_2
REMARK    2  A    between atoms: CA_4  and  C_5
REMARK    3  A    between atoms: C_5  and  OXT_7
REMARK    4  A    between atoms: C_9  and  C_10
REMARK    5  A    between atoms: C_17  and  N_18
REMARK    6  A    between atoms: N_21  and  C_22
REMARK                            x       y       z     vdW  Elec       q    Type
REMARK                         _______ _______ _______ _____ _____    ______ ____
ROOT
ATOM      1  C   UNL     1       2.209   6.999  19.623  0.00  0.00    +0.000 C 
ATOM      2  C   UNL     1       1.673   8.233  19.567  0.00  0.00    +0.000 C 
ATOM      3  C   UNL     1       1.650   9.173  18.374  0.00  0.00    +0.000 C 
ATOM      4  O   UNL     1       2.151   9.032  17.273  0.00  0.00    +0.000 OA
ATOM      5  N   UNL     1       0.977  10.294  18.809  0.00  0.00    +0.000 N 
ATOM      6  C   UNL     1       0.615  10.182  20.141  0.00  0.00    +0.000 A 
ATOM      7  C   UNL     1      -0.015  11.166  20.872  0.00  0.00    +0.000 A 
ATOM      8  C   UNL     1      -0.321  10.913  22.211  0.00  0.00    +0.000 A 
ATOM      9  C   UNL     1       0.088   9.689  22.783  0.00  0.00    +0.000 A 
ATOM     10  C   UNL     1       0.741   8.696  22.012  0.00  0.00    +0.000 A 
ATOM     11  C   UNL     1       0.995   8.950  20.672  0.00  0.00    +0.000 A 
ATOM     12  H   UNL     1       0.806  11.099  18.224  0.00  0.00    +0.000 HD
ENDROOT
BRANCH   1  18
ATOM     13  C   UNL     1       1.688   4.206  17.946  0.00  0.00    +0.000 C 
ATOM     14  C   UNL     1       2.806   5.181  17.873  0.00  0.00    +0.000 A 
ATOM     15  C   UNL     1       3.944   5.059  17.021  0.00  0.00    +0.000 A 
ATOM     16  CA  UNL     1       4.744   6.170  17.191  0.00  0.00    +0.000 A 
ATOM     17  N   UNL     1       4.152   6.912  18.182  0.00  0.00    +0.000 N 
ATOM     18  C   UNL     1       2.955   6.365  18.584  0.00  0.00    +0.000 A 
ATOM     19  H   UNL     1       4.515   7.792  18.523  0.00  0.00    +0.000 HD
BRANCH  16  20
ATOM     20  C   UNL     1       5.981   6.491  16.523  0.00  0.00    +0.000 C 
ATOM     21  O   UNL     1       6.834   7.272  16.921  0.00  0.00    +0.000 OA
BRANCH  20  22
ATOM     22  OXT UNL     1       6.112   5.827  15.345  0.00  0.00    +0.000 OA
ATOM     23  HXT UNL     1       6.986   5.402  15.240  0.00  0.00    +0.000 HD
ENDBRANCH  20  22
ENDBRANCH  16  20
ENDBRANCH   1  18
BRANCH   8  24
ATOM     24  N   UNL     1      -1.020  11.867  22.998  0.00  0.00    +0.000 N 
ATOM     25  C   UNL     1      -2.255  12.388  22.637  0.00  0.00    +0.000 C 
ATOM     26  O   UNL     1      -2.916  11.999  21.679  0.00  0.00    +0.000 OA
ATOM     27  N   UNL     1      -2.659  13.433  23.462  0.00  0.00    +0.000 N 
ATOM     28  H   UNL     1      -0.773  11.946  23.975  0.00  0.00    +0.000 HD
ATOM     29  H   UNL     1      -1.902  14.026  23.770  0.00  0.00    +0.000 HD
BRANCH  27  30
ATOM     30  C   UNL     1      -3.895  14.078  23.197  0.00  0.00    +0.000 A 
ATOM     31  C   UNL     1      -5.087  13.619  23.773  0.00  0.00    +0.000 A 
ATOM     32  C   UNL     1      -6.315  14.173  23.402  0.00  0.00    +0.000 A 
ATOM     33  C   UNL     1      -6.349  15.185  22.448  0.00  0.00    +0.000 A 
ATOM     34 CL   UNL     1      -7.862  15.820  21.930  0.00  0.00    +0.000 Cl
ATOM     35  C   UNL     1      -5.163  15.675  21.897  0.00  0.00    +0.000 A 
ATOM     36  C   UNL     1      -3.931  15.140  22.291  0.00  0.00    +0.000 A 
ENDBRANCH  27  30
ENDBRANCH   8  24
TORSDOF 5
ENDMDL
MODEL 8
REMARK VINA RESULT:      -8.1      1.470      2.015
REMARK  Name = 
REMARK  6 active torsions:
REMARK  status: ('A' for Active; 'I' for Inactive)
REMARK    1  A    between atoms: C_1  and  C_2
REMARK    2  A    between atoms: CA_4  and  C_5
REMARK    3  A    between atoms: C_5  and  OXT_7
REMARK    4  A    between atoms: C_9  and  C_10
REMARK    5  A    between atoms: C_17  and  N_18
REMARK    6  A    between atoms: N_21  and  C_22
REMARK                            x       y       z     vdW  Elec       q    Type
REMARK                         _______ _______ _______ _____ _____    ______ ____
ROOT
ATOM      1  C   UNL     1       2.993   7.335  17.871  0.00  0.00    +0.000 C 
ATOM      2  C   UNL     1       2.288   7.729  18.948  0.00  0.00    +0.000 C 
ATOM      3  C   UNL     1       2.112   6.977  20.257  0.00  0.00    +0.000 C 
ATOM      4  O   UNL     1       2.509   5.869  20.568  0.00  0.00    +0.000 OA
ATOM      5  N   UNL     1       1.330   7.796  21.042  0.00  0.00    +0.000 N 
ATOM      6  C   UNL     1       0.965   8.949  20.366  0.00  0.00    +0.000 A 
ATOM      7  C   UNL     1       0.136   9.928  20.868  0.00  0.00    +0.000 A 
ATOM      8  C   UNL     1      -0.148  11.039  20.071  0.00  0.00    +0.000 A 
ATOM      9  C   UNL     1       0.368  11.083  18.758  0.00  0.00    +0.000 A 
ATOM     10  C   UNL     1       1.212  10.059  18.262  0.00  0.00    +0.000 A 
ATOM     11  C   UNL     1       1.518   8.987  19.087  0.00  0.00    +0.000 A 
ATOM     12  H   UNL     1       1.045   7.556  21.981  0.00  0.00    +0.000 HD
ENDROOT
BRANCH   1  18
ATOM     13  C   UNL     1       6.116   6.552  17.149  0.00  0.00    +0.000 C 
ATOM     14  C   UNL     1       4.930   5.685  17.375  0.00  0.00    +0.000 A 
ATOM     15  C   UNL     1       4.930   4.261  17.288  0.00  0.00    +0.000 A 
ATOM     16  CA  UNL     1       3.668   3.800  17.605  0.00  0.00    +0.000 A 
ATOM     17  N   UNL     1       2.897   4.918  17.799  0.00  0.00    +0.000 N 
ATOM     18  C   UNL     1       3.640   6.073  17.712  0.00  0.00    +0.000 A 
ATOM     19  H   UNL     1       1.917   4.892  18.048  0.00  0.00    +0.000 HD
BRANCH  16  20
ATOM     20  C   UNL     1       3.207   2.436  17.673  0.00  0.00    +0.000 C 
ATOM     21  O   UNL     1       2.046   2.062  17.584  0.00  0.00    +0.000 OA
BRANCH  20  22
ATOM     22  OXT UNL     1       4.228   1.561  17.873  0.00  0.00    +0.000 OA
ATOM     23  HXT UNL     1       4.281   0.871  17.183  0.00  0.00    +0.000 HD
ENDBRANCH  20  22
ENDBRANCH  16  20
ENDBRANCH   1  18
BRANCH   8  24
ATOM     24  N   UNL     1      -0.949  12.107  20.557  0.00  0.00    +0.000 N 
ATOM     25  C   UNL     1      -0.493  13.038  21.480  0.00  0.00    +0.000 C 
ATOM     26  O   UNL     1       0.667  13.106  21.878  0.00  0.00    +0.000 OA
ATOM     27  N   UNL     1      -1.502  13.876  21.942  0.00  0.00    +0.000 N 
ATOM     28  H   UNL     1      -1.751  12.384  20.008  0.00  0.00    +0.000 HD
ATOM     29  H   UNL     1      -2.397  13.419  22.046  0.00  0.00    +0.000 HD
BRANCH  27  30
ATOM     30  C   UNL     1      -1.184  14.864  22.910  0.00  0.00    +0.000 A 
ATOM     31  C   UNL     1      -1.352  14.614  24.279  0.00  0.00    +0.000 A 
ATOM     32  C   UNL     1      -1.168  15.634  25.215  0.00  0.00    +0.000 A 
ATOM     33  C   UNL     1      -0.820  16.909  24.779  0.00  0.00    +0.000 A 
ATOM     34 CL   UNL     1      -0.665  18.188  25.919  0.00  0.00    +0.000 Cl
ATOM     35  C   UNL     1      -0.612  17.158  23.421  0.00  0.00    +0.000 A 
ATOM     36  C   UNL     1      -0.769  16.128  22.486  0.00  0.00    +0.000 A 
ENDBRANCH  27  30
ENDBRANCH   8  24
TORSDOF 5
ENDMDL
MODEL 9
REMARK VINA RESULT:      -8.0      2.587      3.025
REMARK  Name = 
REMARK  6 active torsions:
REMARK  status: ('A' for Active; 'I' for Inactive)
REMARK    1  A    between atoms: C_1  and  C_2
REMARK    2  A    between atoms: CA_4  and  C_5
REMARK    3  A    between atoms: C_5  and  OXT_7
REMARK    4  A    between atoms: C_9  and  C_10
REMARK    5  A    between atoms: C_17  and  N_18
REMARK    6  A    between atoms: N_21  and  C_22
REMARK                            x       y       z     vdW  Elec       q    Type
REMARK                         _______ _______ _______ _____ _____    ______ ____
ROOT
ATOM      1  C   UNL     1       2.583   6.462  19.576  0.00  0.00    +0.000 C 
ATOM      2  C   UNL     1       2.110   7.708  19.387  0.00  0.00    +0.000 C 
ATOM      3  C   UNL     1       2.208   8.548  18.125  0.00  0.00    +0.000 C 
ATOM      4  O   UNL     1       2.772   8.298  17.075  0.00  0.00    +0.000 OA
ATOM      5  N   UNL     1       1.561   9.728  18.423  0.00  0.00    +0.000 N 
ATOM      6  C   UNL     1       1.107   9.739  19.732  0.00  0.00    +0.000 A 
ATOM      7  C   UNL     1       0.477  10.804  20.338  0.00  0.00    +0.000 A 
ATOM      8  C   UNL     1       0.073  10.674  21.669  0.00  0.00    +0.000 A 
ATOM      9  C   UNL     1       0.387   9.485  22.362  0.00  0.00    +0.000 A 
ATOM     10  C   UNL     1       1.042   8.406  21.718  0.00  0.00    +0.000 A 
ATOM     11  C   UNL     1       1.394   8.540  20.383  0.00  0.00    +0.000 A 
ATOM     12  H   UNL     1       1.465  10.488  17.766  0.00  0.00    +0.000 HD
ENDROOT
BRANCH   1  18
ATOM     13  C   UNL     1       1.815   3.923  17.614  0.00  0.00    +0.000 C 
ATOM     14  C   UNL     1       3.108   4.624  17.825  0.00  0.00    +0.000 A 
ATOM     15  C   UNL     1       4.338   4.280  17.188  0.00  0.00    +0.000 A 
ATOM     16  CA  UNL     1       5.309   5.175  17.590  0.00  0.00    +0.000 A 
ATOM     17  N   UNL     1       4.706   5.994  18.512  0.00  0.00    +0.000 N 
ATOM     18  C   UNL     1       3.365   5.716  18.643  0.00  0.00    +0.000 A 
ATOM     19  H   UNL     1       5.176   6.756  18.983  0.00  0.00    +0.000 HD
BRANCH  16  20
ATOM     20  C   UNL     1       6.691   5.234  17.187  0.00  0.00    +0.000 C 
ATOM     21  O   UNL     1       7.584   4.486  17.562  0.00  0.00    +0.000 OA
BRANCH  20  22
ATOM     22  OXT UNL     1       6.929   6.256  16.324  0.00  0.00    +0.000 OA
ATOM     23  HXT UNL     1       6.486   7.088  16.584  0.00  0.00    +0.000 HD
ENDBRANCH  20  22
ENDBRANCH  16  20
ENDBRANCH   1  18
BRANCH   8  24
ATOM     24  N   UNL     1      -0.631  11.717  22.329  0.00  0.00    +0.000 N 
ATOM     25  C   UNL     1      -1.792  12.285  21.823  0.00  0.00    +0.000 C 
ATOM     26  O   UNL     1      -2.388  11.874  20.832  0.00  0.00    +0.000 OA
ATOM     27  N   UNL     1      -2.201  13.403  22.542  0.00  0.00    +0.000 N 
ATOM     28  H   UNL     1      -0.469  11.844  23.318  0.00  0.00    +0.000 HD
ATOM     29  H   UNL     1      -1.438  13.970  22.885  0.00  0.00    +0.000 HD
BRANCH  27  30
ATOM     30  C   UNL     1      -3.364  14.101  22.124  0.00  0.00    +0.000 A 
ATOM     31  C   UNL     1      -4.642  13.658  22.489  0.00  0.00    +0.000 A 
ATOM     32  C   UNL     1      -5.783  14.269  21.963  0.00  0.00    +0.000 A 
ATOM     33  C   UNL     1      -5.643  15.323  21.066  0.00  0.00    +0.000 A 
ATOM     34 CL   UNL     1      -7.041  16.031  20.357  0.00  0.00    +0.000 Cl
ATOM     35  C   UNL     1      -4.374  15.797  20.727  0.00  0.00    +0.000 A 
ATOM     36  C   UNL     1      -3.232  15.203  21.277  0.00  0.00    +0.000 A 
ENDBRANCH  27  30
ENDBRANCH   8  24
TORSDOF 5
ENDMDL
