MODEL 1
REMARK VINA RESULT:      -8.0      0.000      0.000
REMARK  Name = 
REMARK  5 active torsions:
REMARK  status: ('A' for Active; 'I' for Inactive)
REMARK    1  A    between atoms: S_2  and  C_4
REMARK    2  A    between atoms: S_2  and  N_12
REMARK    3  A    between atoms: C_16  and  C_17
REMARK    4  A    between atoms: C_17  and  C_18
REMARK    5  A    between atoms: C_20  and  C_21
REMARK                            x       y       z     vdW  Elec       q    Type
REMARK                         _______ _______ _______ _____ _____    ______ ____
ROOT
ATOM      1  N   UNL     1       4.563   5.296  18.239  0.00  0.00    +0.000 NA
ATOM      2  C   UNL     1       5.742   5.248  19.160  0.00  0.00    +0.000 C 
ATOM      3  C   UNL     1       6.998   5.541  18.336  0.00  0.00    +0.000 C 
ATOM      4  C   UNL     1       7.194   4.449  17.287  0.00  0.00    +0.000 C 
ATOM      5  C   UNL     1       5.956   4.296  16.382  0.00  0.00    +0.000 C 
ATOM      6  C   UNL     1       4.678   4.181  17.227  0.00  0.00    +0.000 C 
ENDROOT
BRANCH   1   8
ATOM      7  O   UNL     1       3.217   4.671  20.324  0.00  0.00    +0.000 OA
ATOM      8  S   UNL     1       3.012   5.245  19.009  0.00  0.00    +0.000 S 
ATOM      9  O   UNL     1       2.085   4.661  18.072  0.00  0.00    +0.000 OA
BRANCH   8  10
ATOM     10  C   UNL     1       2.484   6.936  19.219  0.00  0.00    +0.000 A 
ATOM     11  C   UNL     1       2.470   7.776  18.097  0.00  0.00    +0.000 A 
ATOM     12  C   UNL     1       1.822   9.011  18.165  0.00  0.00    +0.000 A 
ATOM     13  C   UNL     1       1.157   9.381  19.333  0.00  0.00    +0.000 A 
ATOM     14  F   UNL     1       0.482  10.540  19.349  0.00  0.00    +0.000 F 
ATOM     15  C   UNL     1       1.175   8.549  20.453  0.00  0.00    +0.000 A 
ATOM     16 CL   UNL     1       0.298   8.986  21.871  0.00  0.00    +0.000 Cl
ATOM     17  C   UNL     1       1.865   7.333  20.413  0.00  0.00    +0.000 A 
ENDBRANCH   8  10
ENDBRANCH   1   8
BRANCH   5  18
ATOM     18  C   UNL     1       5.814   5.411  15.322  0.00  0.00    +0.000 C 
BRANCH  18  19
ATOM     19  C   UNL     1       6.238   4.933  13.983  0.00  0.00    +0.000 A 
ATOM     20  N   UNL     1       5.663   4.047  13.205  0.00  0.00    +0.000 NA
ATOM     21  C   UNL     1       6.620   3.848  12.244  0.00  0.00    +0.000 A 
ATOM     22  N   UNL     1       7.711   4.616  12.366  0.00  0.00    +0.000 NA
ATOM     23  O   UNL     1       7.457   5.347  13.529  0.00  0.00    +0.000 OA
BRANCH  21  24
ATOM     24  C   UNL     1       6.486   2.783  11.168  0.00  0.00    +0.000 C 
ATOM     25  C   UNL     1       7.283   1.502  11.339  0.00  0.00    +0.000 C 
ATOM     26  C   UNL     1       5.804   1.478  11.519  0.00  0.00    +0.000 C 
ENDBRANCH  21  24
ENDBRANCH  18  19
ENDBRANCH   5  18
TORSDOF 5
ENDMDL
MODEL 2
REMARK VINA RESULT:      -7.9      1.180      1.555
REMARK  Name = 
REMARK  5 active torsions:
REMARK  status: ('A' for Active; 'I' for Inactive)
REMARK    1  A    between atoms: S_2  and  C_4
REMARK    2  A    between atoms: S_2  and  N_12
REMARK    3  A    between atoms: C_16  and  C_17
REMARK    4  A    between atoms: C_17  and  C_18
REMARK    5  A    between atoms: C_20  and  C_21
REMARK                            x       y       z     vdW  Elec       q    Type
REMARK                         _______ _______ _______ _____ _____    ______ ____
ROOT
ATOM      1  N   UNL     1       4.754   4.724  18.115  0.00  0.00    +0.000 NA
ATOM      2  C   UNL     1       5.775   4.830  19.205  0.00  0.00    +0.000 C 
ATOM      3  C   UNL     1       7.040   5.452  18.609  0.00  0.00    +0.000 C 
ATOM      4  C   UNL     1       7.612   4.530  17.535  0.00  0.00    +0.000 C 
ATOM      5  C   UNL     1       6.576   4.214  16.439  0.00  0.00    +0.000 C 
ATOM      6  C   UNL     1       5.248   3.759  17.065  0.00  0.00    +0.000 C 
ENDROOT
BRANCH   1   8
ATOM      7  O   UNL     1       3.314   3.453  19.806  0.00  0.00    +0.000 OA
ATOM      8  S   UNL     1       3.159   4.282  18.629  0.00  0.00    +0.000 S 
ATOM      9  O   UNL     1       2.448   3.810  17.467  0.00  0.00    +0.000 OA
BRANCH   8  10
ATOM     10  C   UNL     1       2.338   5.789  19.115  0.00  0.00    +0.000 A 
ATOM     11  C   UNL     1       1.879   5.904  20.434  0.00  0.00    +0.000 A 
ATOM     12  C   UNL     1       1.474   7.150  20.920  0.00  0.00    +0.000 A 
ATOM     13  C   UNL     1       1.572   8.276  20.105  0.00  0.00    +0.000 A 
ATOM     14  F   UNL     1       1.246   9.472  20.619  0.00  0.00    +0.000 F 
ATOM     15  C   UNL     1       2.023   8.163  18.790  0.00  0.00    +0.000 A 
ATOM     16 CL   UNL     1       2.200   9.569  17.809  0.00  0.00    +0.000 Cl
ATOM     17  C   UNL     1       2.381   6.912  18.276  0.00  0.00    +0.000 A 
ENDBRANCH   8  10
ENDBRANCH   1   8
BRANCH   5  18
ATOM     18  C   UNL     1       6.344   5.373  15.444  0.00  0.00    +0.000 C 
BRANCH  18  19
ATOM     19  C   UNL     1       6.505   4.914  14.042  0.00  0.00    +0.000 A 
ATOM     20  N   UNL     1       5.846   3.978  13.402  0.00  0.00    +0.000 NA
ATOM     21  C   UNL     1       6.585   3.842  12.256  0.00  0.00    +0.000 A 
ATOM     22  N   UNL     1       7.615   4.692  12.144  0.00  0.00    +0.000 NA
ATOM     23  O   UNL     1       7.562   5.414  13.339  0.00  0.00    +0.000 OA
BRANCH  21  24
ATOM     24  C   UNL     1       6.304   2.759  11.227  0.00  0.00    +0.000 C 
ATOM     25  C   UNL     1       7.300   1.617  11.115  0.00  0.00    +0.000 C 
ATOM     26  C   UNL     1       5.960   1.367  11.715  0.00  0.00    +0.000 C 
ENDBRANCH  21  24
ENDBRANCH  18  19
ENDBRANCH   5  18
TORSDOF 5
ENDMDL
MODEL 3
REMARK VINA RESULT:      -7.9      4.395      8.203
REMARK  Name = 
REMARK  5 active torsions:
REMARK  status: ('A' for Active; 'I' for Inactive)
REMARK    1  A    between atoms: S_2  and  C_4
REMARK    2  A    between atoms: S_2  and  N_12
REMARK    3  A    between atoms: C_16  and  C_17
REMARK    4  A    between atoms: C_17  and  C_18
REMARK    5  A    between atoms: C_20  and  C_21
REMARK                            x       y       z     vdW  Elec       q    Type
REMARK                         _______ _______ _______ _____ _____    ______ ____
ROOT
ATOM      1  N   UNL     1       3.079   4.179  19.122  0.00  0.00    +0.000 NA
ATOM      2  C   UNL     1       2.204   3.655  20.219  0.00  0.00    +0.000 C 
ATOM      3  C   UNL     1       1.014   4.606  20.369  0.00  0.00    +0.000 C 
ATOM      4  C   UNL     1       1.506   5.986  20.796  0.00  0.00    +0.000 C 
ATOM      5  C   UNL     1       2.551   6.552  19.815  0.00  0.00    +0.000 C 
ATOM      6  C   UNL     1       3.649   5.514  19.536  0.00  0.00    +0.000 C 
ENDROOT
BRANCH   1   8
ATOM      7  O   UNL     1       3.715   1.956  18.025  0.00  0.00    +0.000 OA
ATOM      8  S   UNL     1       4.351   3.118  18.612  0.00  0.00    +0.000 S 
ATOM      9  O   UNL     1       5.274   2.994  19.712  0.00  0.00    +0.000 OA
BRANCH   8  10
ATOM     10  C   UNL     1       5.246   3.969  17.325  0.00  0.00    +0.000 A 
ATOM     11  C   UNL     1       6.483   4.547  17.641  0.00  0.00    +0.000 A 
ATOM     12  C   UNL     1       7.325   4.985  16.615  0.00  0.00    +0.000 A 
ATOM     13  C   UNL     1       6.948   4.804  15.285  0.00  0.00    +0.000 A 
ATOM     14  F   UNL     1       7.805   5.167  14.319  0.00  0.00    +0.000 F 
ATOM     15  C   UNL     1       5.715   4.235  14.969  0.00  0.00    +0.000 A 
ATOM     16 CL   UNL     1       5.284   3.959  13.323  0.00  0.00    +0.000 Cl
ATOM     17  C   UNL     1       4.841   3.841  15.988  0.00  0.00    +0.000 A 
ENDBRANCH   8  10
ENDBRANCH   1   8
BRANCH   5  18
ATOM     18  C   UNL     1       1.947   7.079  18.493  0.00  0.00    +0.000 C 
BRANCH  18  19
ATOM     19  C   UNL     1       1.873   8.561  18.494  0.00  0.00    +0.000 A 
ATOM     20  N   UNL     1       1.258   9.354  19.339  0.00  0.00    +0.000 NA
ATOM     21  C   UNL     1       1.335  10.565  18.701  0.00  0.00    +0.000 A 
ATOM     22  N   UNL     1       2.020  10.554  17.550  0.00  0.00    +0.000 NA
ATOM     23  O   UNL     1       2.385   9.212  17.409  0.00  0.00    +0.000 OA
BRANCH  21  24
ATOM     24  C   UNL     1       0.631  11.807  19.221  0.00  0.00    +0.000 C 
ATOM     25  C   UNL     1       1.337  12.625  20.289  0.00  0.00    +0.000 C 
ATOM     26  C   UNL     1       1.224  13.164  18.905  0.00  0.00    +0.000 C 
ENDBRANCH  21  24
ENDBRANCH  18  19
ENDBRANCH   5  18
TORSDOF 5
ENDMDL
MODEL 4
REMARK VINA RESULT:      -7.8      0.900      1.097
REMARK  Name = 
REMARK  5 active torsions:
REMARK  status: ('A' for Active; 'I' for Inactive)
REMARK    1  A    between atoms: S_2  and  C_4
REMARK    2  A    between atoms: S_2  and  N_12
REMARK    3  A    between atoms: C_16  and  C_17
REMARK    4  A    between atoms: C_17  and  C_18
REMARK    5  A    between atoms: C_20  and  C_21
REMARK                            x       y       z     vdW  Elec       q    Type
REMARK                         _______ _______ _______ _____ _____    ______ ____
ROOT
ATOM      1  N   UNL     1       5.021   5.365  18.325  0.00  0.00    +0.000 NA
ATOM      2  C   UNL     1       5.976   5.388  19.478  0.00  0.00    +0.000 C 
ATOM      3  C   UNL     1       7.363   5.743  18.936  0.00  0.00    +0.000 C 
ATOM      4  C   UNL     1       7.835   4.656  17.973  0.00  0.00    +0.000 C 
ATOM      5  C   UNL     1       6.830   4.428  16.828  0.00  0.00    +0.000 C 
ATOM      6  C   UNL     1       5.408   4.251  17.382  0.00  0.00    +0.000 C 
ENDROOT
BRANCH   1   8
ATOM      7  O   UNL     1       3.287   4.545  20.019  0.00  0.00    +0.000 OA
ATOM      8  S   UNL     1       3.345   5.235  18.747  0.00  0.00    +0.000 S 
ATOM      9  O   UNL     1       2.647   4.736  17.589  0.00  0.00    +0.000 OA
BRANCH   8  10
ATOM     10  C   UNL     1       2.745   6.897  18.991  0.00  0.00    +0.000 A 
ATOM     11  C   UNL     1       2.730   7.770  17.895  0.00  0.00    +0.000 A 
ATOM     12  C   UNL     1       2.032   8.977  17.980  0.00  0.00    +0.000 A 
ATOM     13  C   UNL     1       1.319   9.284  19.138  0.00  0.00    +0.000 A 
ATOM     14  F   UNL     1       0.598  10.415  19.169  0.00  0.00    +0.000 F 
ATOM     15  C   UNL     1       1.338   8.420  20.233  0.00  0.00    +0.000 A 
ATOM     16 CL   UNL     1       0.404   8.778  21.637  0.00  0.00    +0.000 Cl
ATOM     17  C   UNL     1       2.076   7.233  20.177  0.00  0.00    +0.000 A 
ENDBRANCH   8  10
ENDBRANCH   1   8
BRANCH   5  18
ATOM     18  C   UNL     1       6.861   5.527  15.741  0.00  0.00    +0.000 C 
BRANCH  18  19
ATOM     19  C   UNL     1       6.556   4.962  14.402  0.00  0.00    +0.000 A 
ATOM     20  N   UNL     1       5.526   4.242  14.028  0.00  0.00    +0.000 NA
ATOM     21  C   UNL     1       5.911   3.820  12.782  0.00  0.00    +0.000 A 
ATOM     22  N   UNL     1       7.089   4.302  12.362  0.00  0.00    +0.000 NA
ATOM     23  O   UNL     1       7.523   5.071  13.445  0.00  0.00    +0.000 OA
BRANCH  21  24
ATOM     24  C   UNL     1       5.102   2.821  11.972  0.00  0.00    +0.000 C 
ATOM     25  C   UNL     1       3.753   3.272  11.439  0.00  0.00    +0.000 C 
ATOM     26  C   UNL     1       4.890   3.084  10.496  0.00  0.00    +0.000 C 
ENDBRANCH  21  24
ENDBRANCH  18  19
ENDBRANCH   5  18
TORSDOF 5
ENDMDL
MODEL 5
REMARK VINA RESULT:      -7.6      1.429      1.849
REMARK  Name = 
REMARK  5 active torsions:
REMARK  status: ('A' for Active; 'I' for Inactive)
REMARK    1  A    between atoms: S_2  and  C_4
REMARK    2  A    between atoms: S_2  and  N_12
REMARK    3  A    between atoms: C_16  and  C_17
REMARK    4  A    between atoms: C_17  and  C_18
REMARK    5  A    between atoms: C_20  and  C_21
REMARK                            x       y       z     vdW  Elec       q    Type
REMARK                         _______ _______ _______ _____ _____    ______ ____
ROOT
ATOM      1  N   UNL     1       4.978   4.980  18.271  0.00  0.00    +0.000 NA
ATOM      2  C   UNL     1       5.812   5.206  19.494  0.00  0.00    +0.000 C 
ATOM      3  C   UNL     1       7.128   5.855  19.057  0.00  0.00    +0.000 C 
ATOM      4  C   UNL     1       7.898   4.899  18.148  0.00  0.00    +0.000 C 
ATOM      5  C   UNL     1       7.059   4.464  16.931  0.00  0.00    +0.000 C 
ATOM      6  C   UNL     1       5.670   3.980  17.377  0.00  0.00    +0.000 C 
ENDROOT
BRANCH   1   8
ATOM      7  O   UNL     1       3.375   3.578  19.689  0.00  0.00    +0.000 OA
ATOM      8  S   UNL     1       3.343   4.489  18.564  0.00  0.00    +0.000 S 
ATOM      9  O   UNL     1       2.778   4.097  17.297  0.00  0.00    +0.000 OA
BRANCH   8  10
ATOM     10  C   UNL     1       2.447   5.950  19.060  0.00  0.00    +0.000 A 
ATOM     11  C   UNL     1       1.974   6.030  20.376  0.00  0.00    +0.000 A 
ATOM     12  C   UNL     1       1.507   7.250  20.871  0.00  0.00    +0.000 A 
ATOM     13  C   UNL     1       1.555   8.388  20.067  0.00  0.00    +0.000 A 
ATOM     14  F   UNL     1       1.167   9.561  20.590  0.00  0.00    +0.000 F 
ATOM     15  C   UNL     1       2.019   8.309  18.754  0.00  0.00    +0.000 A 
ATOM     16 CL   UNL     1       2.132   9.731  17.787  0.00  0.00    +0.000 Cl
ATOM     17  C   UNL     1       2.440   7.082  18.231  0.00  0.00    +0.000 A 
ENDBRANCH   8  10
ENDBRANCH   1   8
BRANCH   5  18
ATOM     18  C   UNL     1       6.937   5.547  15.835  0.00  0.00    +0.000 C 
BRANCH  18  19
ATOM     19  C   UNL     1       6.531   4.951  14.538  0.00  0.00    +0.000 A 
ATOM     20  N   UNL     1       5.409   4.347  14.226  0.00  0.00    +0.000 NA
ATOM     21  C   UNL     1       5.707   3.810  13.000  0.00  0.00    +0.000 A 
ATOM     22  N   UNL     1       6.925   4.114  12.532  0.00  0.00    +0.000 NA
ATOM     23  O   UNL     1       7.479   4.881  13.560  0.00  0.00    +0.000 OA
BRANCH  21  24
ATOM     24  C   UNL     1       4.758   2.878  12.265  0.00  0.00    +0.000 C 
ATOM     25  C   UNL     1       4.047   3.418  11.037  0.00  0.00    +0.000 C 
ATOM     26  C   UNL     1       5.132   2.411  10.874  0.00  0.00    +0.000 C 
ENDBRANCH  21  24
ENDBRANCH  18  19
ENDBRANCH   5  18
TORSDOF 5
ENDMDL
MODEL 6
REMARK VINA RESULT:      -7.6      4.352      8.296
REMARK  Name = 
REMARK  5 active torsions:
REMARK  status: ('A' for Active; 'I' for Inactive)
REMARK    1  A    between atoms: S_2  and  C_4
REMARK    2  A    between atoms: S_2  and  N_12
REMARK    3  A    between atoms: C_16  and  C_17
REMARK    4  A    between atoms: C_17  and  C_18
REMARK    5  A    between atoms: C_20  and  C_21
REMARK                            x       y       z     vdW  Elec       q    Type
REMARK                         _______ _______ _______ _____ _____    ______ ____
ROOT
ATOM      1  N   UNL     1       5.078   4.918  18.327  0.00  0.00    +0.000 NA
ATOM      2  C   UNL     1       4.860   3.615  19.032  0.00  0.00    +0.000 C 
ATOM      3  C   UNL     1       3.357   3.453  19.272  0.00  0.00    +0.000 C 
ATOM      4  C   UNL     1       2.859   4.561  20.197  0.00  0.00    +0.000 C 
ATOM      5  C   UNL     1       3.187   5.961  19.642  0.00  0.00    +0.000 C 
ATOM      6  C   UNL     1       4.667   6.050  19.238  0.00  0.00    +0.000 C 
ENDROOT
BRANCH   1   8
ATOM      7  O   UNL     1       7.565   4.350  18.520  0.00  0.00    +0.000 OA
ATOM      8  S   UNL     1       6.683   5.184  17.731  0.00  0.00    +0.000 S 
ATOM      9  O   UNL     1       6.878   6.610  17.642  0.00  0.00    +0.000 OA
BRANCH   8  10
ATOM     10  C   UNL     1       6.713   4.588  16.050  0.00  0.00    +0.000 A 
ATOM     11  C   UNL     1       5.701   3.713  15.632  0.00  0.00    +0.000 A 
ATOM     12  C   UNL     1       5.542   3.438  14.272  0.00  0.00    +0.000 A 
ATOM     13  C   UNL     1       6.361   4.069  13.337  0.00  0.00    +0.000 A 
ATOM     14  F   UNL     1       6.140   3.843  12.033  0.00  0.00    +0.000 F 
ATOM     15  C   UNL     1       7.372   4.936  13.751  0.00  0.00    +0.000 A 
ATOM     16 CL   UNL     1       8.340   5.759  12.585  0.00  0.00    +0.000 Cl
ATOM     17  C   UNL     1       7.575   5.178  15.113  0.00  0.00    +0.000 A 
ENDBRANCH   8  10
ENDBRANCH   1   8
BRANCH   5  18
ATOM     18  C   UNL     1       2.274   6.402  18.476  0.00  0.00    +0.000 C 
BRANCH  18  19
ATOM     19  C   UNL     1       2.069   7.872  18.484  0.00  0.00    +0.000 A 
ATOM     20  N   UNL     1       1.444   8.611  19.370  0.00  0.00    +0.000 NA
ATOM     21  C   UNL     1       1.372   9.821  18.730  0.00  0.00    +0.000 A 
ATOM     22  N   UNL     1       1.978   9.866  17.536  0.00  0.00    +0.000 NA
ATOM     23  O   UNL     1       2.449   8.561  17.370  0.00  0.00    +0.000 OA
BRANCH  21  24
ATOM     24  C   UNL     1       0.596  10.999  19.298  0.00  0.00    +0.000 C 
ATOM     25  C   UNL     1      -0.854  11.158  18.876  0.00  0.00    +0.000 C 
ATOM     26  C   UNL     1      -0.536  10.724  20.265  0.00  0.00    +0.000 C 
ENDBRANCH  21  24
ENDBRANCH  18  19
ENDBRANCH   5  18
TORSDOF 5
ENDMDL
MODEL 7
REMARK VINA RESULT:      -7.5      4.374      8.914
REMARK  Name = 
REMARK  5 active torsions:
REMARK  status: ('A' for Active; 'I' for Inactive)
REMARK    1  A    between atoms: S_2  and  C_4
REMARK    2  A    between atoms: S_2  and  N_12
REMARK    3  A    between atoms: C_16  and  C_17
REMARK    4  A    between atoms: C_17  and  C_18
REMARK    5  A    between atoms: C_20  and  C_21
REMARK                            x       y       z     vdW  Elec       q    Type
REMARK                         _______ _______ _______ _____ _____    ______ ____
ROOT
ATOM      1  N   UNL     1       5.353   5.165  16.971  0.00  0.00    +0.000 NA
ATOM      2  C   UNL     1       4.770   3.788  17.060  0.00  0.00    +0.000 C 
ATOM      3  C   UNL     1       3.273   3.926  17.352  0.00  0.00    +0.000 C 
ATOM      4  C   UNL     1       3.071   4.597  18.708  0.00  0.00    +0.000 C 
ATOM      5  C   UNL     1       3.782   5.961  18.785  0.00  0.00    +0.000 C 
ATOM      6  C   UNL     1       5.241   5.839  18.317  0.00  0.00    +0.000 C 
ENDROOT
BRANCH   1   8
ATOM      7  O   UNL     1       7.682   4.107  16.951  0.00  0.00    +0.000 OA
ATOM      8  S   UNL     1       6.984   5.248  16.395  0.00  0.00    +0.000 S 
ATOM      9  O   UNL     1       7.451   6.594  16.616  0.00  0.00    +0.000 OA
BRANCH   8  10
ATOM     10  C   UNL     1       6.916   5.048  14.624  0.00  0.00    +0.000 A 
ATOM     11  C   UNL     1       7.880   5.696  13.840  0.00  0.00    +0.000 A 
ATOM     12  C   UNL     1       8.020   5.355  12.492  0.00  0.00    +0.000 A 
ATOM     13  C   UNL     1       7.230   4.344  11.948  0.00  0.00    +0.000 A 
ATOM     14  F   UNL     1       7.433   3.987  10.671  0.00  0.00    +0.000 F 
ATOM     15  C   UNL     1       6.265   3.702  12.724  0.00  0.00    +0.000 A 
ATOM     16 CL   UNL     1       5.336   2.411  12.061  0.00  0.00    +0.000 Cl
ATOM     17  C   UNL     1       6.081   4.071  14.061  0.00  0.00    +0.000 A 
ENDBRANCH   8  10
ENDBRANCH   1   8
BRANCH   5  18
ATOM     18  C   UNL     1       3.055   7.091  18.020  0.00  0.00    +0.000 C 
BRANCH  18  19
ATOM     19  C   UNL     1       2.257   7.934  18.945  0.00  0.00    +0.000 A 
ATOM     20  N   UNL     1       1.826   7.651  20.151  0.00  0.00    +0.000 NA
ATOM     21  C   UNL     1       0.964   8.689  20.395  0.00  0.00    +0.000 A 
ATOM     22  N   UNL     1       0.905   9.613  19.428  0.00  0.00    +0.000 NA
ATOM     23  O   UNL     1       1.773   9.111  18.455  0.00  0.00    +0.000 OA
BRANCH  21  24
ATOM     24  C   UNL     1       0.086   8.745  21.634  0.00  0.00    +0.000 C 
ATOM     25  C   UNL     1       0.665   9.389  22.882  0.00  0.00    +0.000 C 
ATOM     26  C   UNL     1      -0.401  10.095  22.118  0.00  0.00    +0.000 C 
ENDBRANCH  21  24
ENDBRANCH  18  19
ENDBRANCH   5  18
TORSDOF 5
ENDMDL
MODEL 8
REMARK VINA RESULT:      -7.4      3.080      5.443
REMARK  Name = 
REMARK  5 active torsions:
REMARK  status: ('A' for Active; 'I' for Inactive)
REMARK    1  A    between atoms: S_2  and  C_4
REMARK    2  A    between atoms: S_2  and  N_12
REMARK    3  A    between atoms: C_16  and  C_17
REMARK    4  A    between atoms: C_17  and  C_18
REMARK    5  A    between atoms: C_20  and  C_21
REMARK                            x       y       z     vdW  Elec       q    Type
REMARK                         _______ _______ _______ _____ _____    ______ ____
ROOT
ATOM      1  N   UNL     1       4.412   4.982  17.727  0.00  0.00    +0.000 NA
ATOM      2  C   UNL     1       4.497   4.003  16.597  0.00  0.00    +0.000 C 
ATOM      3  C   UNL     1       5.958   3.926  16.148  0.00  0.00    +0.000 C 
ATOM      4  C   UNL     1       6.406   5.283  15.611  0.00  0.00    +0.000 C 
ATOM      5  C   UNL     1       6.199   6.405  16.647  0.00  0.00    +0.000 C 
ATOM      6  C   UNL     1       4.775   6.357  17.221  0.00  0.00    +0.000 C 
ENDROOT
BRANCH   1   8
ATOM      7  O   UNL     1       3.096   4.401  19.844  0.00  0.00    +0.000 OA
ATOM      8  S   UNL     1       2.891   5.033  18.556  0.00  0.00    +0.000 S 
ATOM      9  O   UNL     1       1.885   4.559  17.639  0.00  0.00    +0.000 OA
BRANCH   8  10
ATOM     10  C   UNL     1       2.514   6.753  18.837  0.00  0.00    +0.000 A 
ATOM     11  C   UNL     1       2.283   7.577  17.727  0.00  0.00    +0.000 A 
ATOM     12  C   UNL     1       1.733   8.848  17.911  0.00  0.00    +0.000 A 
ATOM     13  C   UNL     1       1.378   9.271  19.191  0.00  0.00    +0.000 A 
ATOM     14  F   UNL     1       0.785  10.466  19.332  0.00  0.00    +0.000 F 
ATOM     15  C   UNL     1       1.613   8.455  20.298  0.00  0.00    +0.000 A 
ATOM     16 CL   UNL     1       1.114   8.959  21.869  0.00  0.00    +0.000 Cl
ATOM     17  C   UNL     1       2.211   7.201  20.131  0.00  0.00    +0.000 A 
ENDBRANCH   8  10
ENDBRANCH   1   8
BRANCH   5  18
ATOM     18  C   UNL     1       7.248   6.410  17.782  0.00  0.00    +0.000 C 
BRANCH  18  19
ATOM     19  C   UNL     1       7.856   7.755  17.942  0.00  0.00    +0.000 A 
ATOM     20  N   UNL     1       8.675   8.181  18.873  0.00  0.00    +0.000 NA
ATOM     21  C   UNL     1       8.692   9.532  18.641  0.00  0.00    +0.000 A 
ATOM     22  N   UNL     1       7.978   9.931  17.580  0.00  0.00    +0.000 NA
ATOM     23  O   UNL     1       7.418   8.741  17.107  0.00  0.00    +0.000 OA
BRANCH  21  24
ATOM     24  C   UNL     1       9.402  10.510  19.562  0.00  0.00    +0.000 C 
ATOM     25  C   UNL     1      10.693  11.138  19.066  0.00  0.00    +0.000 C 
ATOM     26  C   UNL     1       9.461  11.970  19.165  0.00  0.00    +0.000 C 
ENDBRANCH  21  24
ENDBRANCH  18  19
ENDBRANCH   5  18
TORSDOF 5
ENDMDL
MODEL 9
REMARK VINA RESULT:      -7.4      4.352      8.427
REMARK  Name = 
REMARK  5 active torsions:
REMARK  status: ('A' for Active; 'I' for Inactive)
REMARK    1  A    between atoms: S_2  and  C_4
REMARK    2  A    between atoms: S_2  and  N_12
REMARK    3  A    between atoms: C_16  and  C_17
REMARK    4  A    between atoms: C_17  and  C_18
REMARK    5  A    between atoms: C_20  and  C_21
REMARK                            x       y       z     vdW  Elec       q    Type
REMARK                         _______ _______ _______ _____ _____    ______ ____
ROOT
ATOM      1  N   UNL     1       3.126   4.301  19.024  0.00  0.00    +0.000 NA
ATOM      2  C   UNL     1       2.134   3.698  19.970  0.00  0.00    +0.000 C 
ATOM      3  C   UNL     1       0.974   4.683  20.131  0.00  0.00    +0.000 C 
ATOM      4  C   UNL     1       1.479   5.978  20.762  0.00  0.00    +0.000 C 
ATOM      5  C   UNL     1       2.632   6.601  19.950  0.00  0.00    +0.000 C 
ATOM      6  C   UNL     1       3.708   5.548  19.644  0.00  0.00    +0.000 C 
ENDROOT
BRANCH   1   8
ATOM      7  O   UNL     1       3.759   2.064  17.956  0.00  0.00    +0.000 OA
ATOM      8  S   UNL     1       4.396   3.245  18.501  0.00  0.00    +0.000 S 
ATOM      9  O   UNL     1       5.350   3.153  19.579  0.00  0.00    +0.000 OA
BRANCH   8  10
ATOM     10  C   UNL     1       5.247   4.079  17.174  0.00  0.00    +0.000 A 
ATOM     11  C   UNL     1       6.459   4.723  17.457  0.00  0.00    +0.000 A 
ATOM     12  C   UNL     1       7.276   5.154  16.409  0.00  0.00    +0.000 A 
ATOM     13  C   UNL     1       6.901   4.901  15.090  0.00  0.00    +0.000 A 
ATOM     14  F   UNL     1       7.737   5.260  14.104  0.00  0.00    +0.000 F 
ATOM     15  C   UNL     1       5.692   4.265  14.806  0.00  0.00    +0.000 A 
ATOM     16 CL   UNL     1       5.266   3.901  13.176  0.00  0.00    +0.000 Cl
ATOM     17  C   UNL     1       4.842   3.877  15.847  0.00  0.00    +0.000 A 
ENDBRANCH   8  10
ENDBRANCH   1   8
BRANCH   5  18
ATOM     18  C   UNL     1       2.173   7.309  18.655  0.00  0.00    +0.000 C 
BRANCH  18  19
ATOM     19  C   UNL     1       1.618   8.653  18.949  0.00  0.00    +0.000 A 
ATOM     20  N   UNL     1       1.538   9.700  18.162  0.00  0.00    +0.000 NA
ATOM     21  C   UNL     1       1.172  10.687  19.040  0.00  0.00    +0.000 A 
ATOM     22  N   UNL     1       0.966  10.277  20.298  0.00  0.00    +0.000 NA
ATOM     23  O   UNL     1       1.261   8.912  20.240  0.00  0.00    +0.000 OA
BRANCH  21  24
ATOM     24  C   UNL     1       1.085  12.149  18.632  0.00  0.00    +0.000 C 
ATOM     25  C   UNL     1      -0.296  12.738  18.407  0.00  0.00    +0.000 C 
ATOM     26  C   UNL     1       0.487  13.140  19.608  0.00  0.00    +0.000 C 
ENDBRANCH  21  24
ENDBRANCH  18  19
ENDBRANCH   5  18
TORSDOF 5
ENDMDL
