MODEL 1
REMARK VINA RESULT:      -7.8      0.000      0.000
REMARK  Name = 
REMARK  9 active torsions:
REMARK  status: ('A' for Active; 'I' for Inactive)
REMARK    1  A    between atoms: C_1  and  C_2
REMARK    2  A    between atoms: C_2  and  O_3
REMARK    3  A    between atoms: C_2  and  C_21
REMARK    4  A    between atoms: O_3  and  C_4
REMARK    5  A    between atoms: C_6  and  C_7
REMARK    6  A    between atoms: C_17  and  C_18
REMARK    7  A    between atoms: C_24  and  C_25
REMARK    8  A    between atoms: C_25  and  N_26
REMARK    9  A    between atoms: N_26  and  C_27
REMARK                            x       y       z     vdW  Elec       q    Type
REMARK                         _______ _______ _______ _____ _____    ______ ____
ROOT
ATOM      1  C   UNL     1       2.825   5.009  17.957  0.00  0.00    +0.000 A 
ATOM      2  C   UNL     1       3.791   5.528  17.050  0.00  0.00    +0.000 A 
ATOM      3  C   UNL     1       4.645   4.560  16.557  0.00  0.00    +0.000 A 
ATOM      4  S   UNL     1       4.173   3.012  17.094  0.00  0.00    +0.000 S 
ATOM      5  C   UNL     1       2.936   3.636  18.107  0.00  0.00    +0.000 A 
ENDROOT
BRANCH   3   6
ATOM      6  C   UNL     1       5.745   4.800  15.664  0.00  0.00    +0.000 A 
ATOM      7  C   UNL     1       6.932   5.447  15.960  0.00  0.00    +0.000 A 
ATOM      8  N   UNL     1       7.796   5.455  14.901  0.00  0.00    +0.000 NA
ATOM      9  C   UNL     1       7.164   4.812  13.945  0.00  0.00    +0.000 A 
ATOM     10  C   UNL     1       7.583   4.492  12.623  0.00  0.00    +0.000 A 
ATOM     11  C   UNL     1       6.770   3.797  11.807  0.00  0.00    +0.000 A 
ATOM     12  C   UNL     1       5.460   3.351  12.252  0.00  0.00    +0.000 A 
ATOM     13  C   UNL     1       5.059   3.642  13.500  0.00  0.00    +0.000 A 
ATOM     14  N   UNL     1       5.896   4.381  14.349  0.00  0.00    +0.000 N 
ENDBRANCH   3   6
BRANCH   5  15
ATOM     15  C   UNL     1       2.194   2.703  18.942  0.00  0.00    +0.000 C 
ATOM     16  N   UNL     1       0.873   2.538  18.635  0.00  0.00    +0.000 N 
ATOM     17  O   UNL     1       2.658   2.063  19.886  0.00  0.00    +0.000 OA
ATOM     18  H   UNL     1       0.457   3.012  17.845  0.00  0.00    +0.000 HD
ATOM     19  H   UNL     1       0.328   1.890  19.182  0.00  0.00    +0.000 HD
ENDBRANCH   5  15
BRANCH   1  20
ATOM     20  O   UNL     1       1.925   5.704  18.700  0.00  0.00    +0.000 OA
BRANCH  20  22
ATOM     21  C   UNL     1       2.043   5.601  21.132  0.00  0.00    +0.000 C 
ATOM     22  C   UNL     1       2.414   6.385  19.871  0.00  0.00    +0.000 C 
BRANCH  22  23
ATOM     23  C   UNL     1       1.717   7.744  19.898  0.00  0.00    +0.000 A 
ATOM     24  C   UNL     1       0.877   8.070  20.982  0.00  0.00    +0.000 A 
ATOM     25  C   UNL     1       0.148   9.261  21.006  0.00  0.00    +0.000 A 
ATOM     26  C   UNL     1       0.261  10.181  19.962  0.00  0.00    +0.000 A 
ATOM     27  C   UNL     1       1.167   9.915  18.926  0.00  0.00    +0.000 A 
ATOM     28  C   UNL     1       1.882   8.707  18.891  0.00  0.00    +0.000 A 
ATOM     29 CL   UNL     1       2.968   8.470  17.567  0.00  0.00    +0.000 Cl
BRANCH  26  30
ATOM     30  C   UNL     1      -0.573  11.440  19.969  0.00  0.00    +0.000 C 
BRANCH  30  31
ATOM     31  N   UNL     1      -1.902  11.198  19.417  0.00  0.00    +0.000 NA
ATOM     32  H   UNL     1      -2.404  12.084  19.362  0.00  0.00    +0.000 HD
BRANCH  31  33
ATOM     33  C   UNL     1      -1.869  10.548  18.103  0.00  0.00    +0.000 C 
ATOM     34  C   UNL     1      -3.070   9.819  17.566  0.00  0.00    +0.000 C 
ATOM     35  C   UNL     1      -2.699  11.160  17.007  0.00  0.00    +0.000 C 
ENDBRANCH  31  33
ENDBRANCH  30  31
ENDBRANCH  26  30
ENDBRANCH  22  23
ENDBRANCH  20  22
ENDBRANCH   1  20
TORSDOF 8
ENDMDL
MODEL 2
REMARK VINA RESULT:      -7.8      3.659      5.882
REMARK  Name = 
REMARK  9 active torsions:
REMARK  status: ('A' for Active; 'I' for Inactive)
REMARK    1  A    between atoms: C_1  and  C_2
REMARK    2  A    between atoms: C_2  and  O_3
REMARK    3  A    between atoms: C_2  and  C_21
REMARK    4  A    between atoms: O_3  and  C_4
REMARK    5  A    between atoms: C_6  and  C_7
REMARK    6  A    between atoms: C_17  and  C_18
REMARK    7  A    between atoms: C_24  and  C_25
REMARK    8  A    between atoms: C_25  and  N_26
REMARK    9  A    between atoms: N_26  and  C_27
REMARK                            x       y       z     vdW  Elec       q    Type
REMARK                         _______ _______ _______ _____ _____    ______ ____
ROOT
ATOM      1  C   UNL     1       1.323   9.479  20.000  0.00  0.00    +0.000 A 
ATOM      2  C   UNL     1       1.902   8.703  18.958  0.00  0.00    +0.000 A 
ATOM      3  C   UNL     1       2.155   7.397  19.333  0.00  0.00    +0.000 A 
ATOM      4  S   UNL     1       1.558   7.095  20.901  0.00  0.00    +0.000 S 
ATOM      5  C   UNL     1       1.107   8.732  21.147  0.00  0.00    +0.000 A 
ENDROOT
BRANCH   3   6
ATOM      6  C   UNL     1       2.777   6.401  18.504  0.00  0.00    +0.000 A 
ATOM      7  C   UNL     1       3.877   6.571  17.681  0.00  0.00    +0.000 A 
ATOM      8  N   UNL     1       4.255   5.406  17.074  0.00  0.00    +0.000 NA
ATOM      9  C   UNL     1       3.406   4.505  17.514  0.00  0.00    +0.000 A 
ATOM     10  C   UNL     1       3.326   3.110  17.241  0.00  0.00    +0.000 A 
ATOM     11  C   UNL     1       2.374   2.362  17.827  0.00  0.00    +0.000 A 
ATOM     12  C   UNL     1       1.418   2.949  18.751  0.00  0.00    +0.000 A 
ATOM     13  C   UNL     1       1.490   4.263  19.020  0.00  0.00    +0.000 A 
ATOM     14  N   UNL     1       2.470   5.051  18.400  0.00  0.00    +0.000 N 
ENDBRANCH   3   6
BRANCH   5  15
ATOM     15  C   UNL     1       0.576   9.112  22.448  0.00  0.00    +0.000 C 
ATOM     16  N   UNL     1      -0.740   8.820  22.671  0.00  0.00    +0.000 N 
ATOM     17  O   UNL     1       1.211   9.667  23.346  0.00  0.00    +0.000 OA
ATOM     18  H   UNL     1      -1.291   8.331  21.980  0.00  0.00    +0.000 HD
ATOM     19  H   UNL     1      -1.141   9.055  23.566  0.00  0.00    +0.000 HD
ENDBRANCH   5  15
BRANCH   1  20
ATOM     20  O   UNL     1       1.065  10.813  19.997  0.00  0.00    +0.000 OA
BRANCH  20  22
ATOM     21  C   UNL     1       1.330  12.589  18.351  0.00  0.00    +0.000 C 
ATOM     22  C   UNL     1       0.505  11.380  18.798  0.00  0.00    +0.000 C 
BRANCH  22  23
ATOM     23  C   UNL     1      -0.907  11.838  19.159  0.00  0.00    +0.000 A 
ATOM     24  C   UNL     1      -1.079  12.902  20.068  0.00  0.00    +0.000 A 
ATOM     25  C   UNL     1      -2.348  13.294  20.498  0.00  0.00    +0.000 A 
ATOM     26  C   UNL     1      -3.490  12.658  20.006  0.00  0.00    +0.000 A 
ATOM     27  C   UNL     1      -3.338  11.666  19.027  0.00  0.00    +0.000 A 
ATOM     28  C   UNL     1      -2.062  11.256  18.613  0.00  0.00    +0.000 A 
ATOM     29 CL   UNL     1      -1.980  10.020  17.408  0.00  0.00    +0.000 Cl
BRANCH  26  30
ATOM     30  C   UNL     1      -4.855  13.052  20.518  0.00  0.00    +0.000 C 
BRANCH  30  31
ATOM     31  N   UNL     1      -5.177  12.354  21.758  0.00  0.00    +0.000 NA
ATOM     32  H   UNL     1      -4.709  11.448  21.759  0.00  0.00    +0.000 HD
BRANCH  31  33
ATOM     33  C   UNL     1      -4.814  13.115  22.958  0.00  0.00    +0.000 C 
ATOM     34  C   UNL     1      -5.366  12.750  24.308  0.00  0.00    +0.000 C 
ATOM     35  C   UNL     1      -3.940  12.433  23.973  0.00  0.00    +0.000 C 
ENDBRANCH  31  33
ENDBRANCH  30  31
ENDBRANCH  26  30
ENDBRANCH  22  23
ENDBRANCH  20  22
ENDBRANCH   1  20
TORSDOF 8
ENDMDL
MODEL 3
REMARK VINA RESULT:      -7.8      1.282      1.788
REMARK  Name = 
REMARK  9 active torsions:
REMARK  status: ('A' for Active; 'I' for Inactive)
REMARK    1  A    between atoms: C_1  and  C_2
REMARK    2  A    between atoms: C_2  and  O_3
REMARK    3  A    between atoms: C_2  and  C_21
REMARK    4  A    between atoms: O_3  and  C_4
REMARK    5  A    between atoms: C_6  and  C_7
REMARK    6  A    between atoms: C_17  and  C_18
REMARK    7  A    between atoms: C_24  and  C_25
REMARK    8  A    between atoms: C_25  and  N_26
REMARK    9  A    between atoms: N_26  and  C_27
REMARK                            x       y       z     vdW  Elec       q    Type
REMARK                         _______ _______ _______ _____ _____    ______ ____
ROOT
ATOM      1  C   UNL     1       2.903   4.880  17.965  0.00  0.00    +0.000 A 
ATOM      2  C   UNL     1       3.850   5.441  17.063  0.00  0.00    +0.000 A 
ATOM      3  C   UNL     1       4.701   4.499  16.516  0.00  0.00    +0.000 A 
ATOM      4  S   UNL     1       4.248   2.928  17.000  0.00  0.00    +0.000 S 
ATOM      5  C   UNL     1       3.026   3.503  18.059  0.00  0.00    +0.000 A 
ENDROOT
BRANCH   3   6
ATOM      6  C   UNL     1       5.782   4.781  15.613  0.00  0.00    +0.000 A 
ATOM      7  C   UNL     1       6.947   5.474  15.900  0.00  0.00    +0.000 A 
ATOM      8  N   UNL     1       7.800   5.515  14.833  0.00  0.00    +0.000 NA
ATOM      9  C   UNL     1       7.184   4.849  13.881  0.00  0.00    +0.000 A 
ATOM     10  C   UNL     1       7.603   4.547  12.555  0.00  0.00    +0.000 A 
ATOM     11  C   UNL     1       6.810   3.822  11.746  0.00  0.00    +0.000 A 
ATOM     12  C   UNL     1       5.523   3.327  12.202  0.00  0.00    +0.000 A 
ATOM     13  C   UNL     1       5.121   3.601  13.454  0.00  0.00    +0.000 A 
ATOM     14  N   UNL     1       5.937   4.370  14.297  0.00  0.00    +0.000 N 
ENDBRANCH   3   6
BRANCH   5  15
ATOM     15  C   UNL     1       2.305   2.532  18.869  0.00  0.00    +0.000 C 
ATOM     16  N   UNL     1       1.021   2.264  18.488  0.00  0.00    +0.000 N 
ATOM     17  O   UNL     1       2.756   1.946  19.854  0.00  0.00    +0.000 OA
ATOM     18  H   UNL     1       0.620   2.690  17.664  0.00  0.00    +0.000 HD
ATOM     19  H   UNL     1       0.492   1.587  19.016  0.00  0.00    +0.000 HD
ENDBRANCH   5  15
BRANCH   1  20
ATOM     20  O   UNL     1       2.014   5.539  18.752  0.00  0.00    +0.000 OA
BRANCH  20  22
ATOM     21  C   UNL     1       2.231   5.215  21.157  0.00  0.00    +0.000 C 
ATOM     22  C   UNL     1       2.511   6.134  19.966  0.00  0.00    +0.000 C 
BRANCH  22  23
ATOM     23  C   UNL     1       1.744   7.443  20.147  0.00  0.00    +0.000 A 
ATOM     24  C   UNL     1       0.978   7.641  21.313  0.00  0.00    +0.000 A 
ATOM     25  C   UNL     1       0.189   8.780  21.481  0.00  0.00    +0.000 A 
ATOM     26  C   UNL     1       0.166   9.775  20.502  0.00  0.00    +0.000 A 
ATOM     27  C   UNL     1       0.999   9.637  19.382  0.00  0.00    +0.000 A 
ATOM     28  C   UNL     1       1.773   8.481  19.203  0.00  0.00    +0.000 A 
ATOM     29 CL   UNL     1       2.761   8.403  17.786  0.00  0.00    +0.000 Cl
BRANCH  26  30
ATOM     30  C   UNL     1      -0.734  10.978  20.666  0.00  0.00    +0.000 C 
BRANCH  30  31
ATOM     31  N   UNL     1      -1.158  11.137  22.053  0.00  0.00    +0.000 NA
ATOM     32  H   UNL     1      -0.347  11.025  22.662  0.00  0.00    +0.000 HD
BRANCH  31  33
ATOM     33  C   UNL     1      -1.814  12.422  22.310  0.00  0.00    +0.000 C 
ATOM     34  C   UNL     1      -3.268  12.631  21.988  0.00  0.00    +0.000 C 
ATOM     35  C   UNL     1      -2.835  12.471  23.414  0.00  0.00    +0.000 C 
ENDBRANCH  31  33
ENDBRANCH  30  31
ENDBRANCH  26  30
ENDBRANCH  22  23
ENDBRANCH  20  22
ENDBRANCH   1  20
TORSDOF 8
ENDMDL
MODEL 4
REMARK VINA RESULT:      -7.8      1.489      1.859
REMARK  Name = 
REMARK  9 active torsions:
REMARK  status: ('A' for Active; 'I' for Inactive)
REMARK    1  A    between atoms: C_1  and  C_2
REMARK    2  A    between atoms: C_2  and  O_3
REMARK    3  A    between atoms: C_2  and  C_21
REMARK    4  A    between atoms: O_3  and  C_4
REMARK    5  A    between atoms: C_6  and  C_7
REMARK    6  A    between atoms: C_17  and  C_18
REMARK    7  A    between atoms: C_24  and  C_25
REMARK    8  A    between atoms: C_25  and  N_26
REMARK    9  A    between atoms: N_26  and  C_27
REMARK                            x       y       z     vdW  Elec       q    Type
REMARK                         _______ _______ _______ _____ _____    ______ ____
ROOT
ATOM      1  C   UNL     1       2.494   5.804  19.200  0.00  0.00    +0.000 A 
ATOM      2  C   UNL     1       3.545   6.025  18.267  0.00  0.00    +0.000 A 
ATOM      3  C   UNL     1       4.456   4.987  18.222  0.00  0.00    +0.000 A 
ATOM      4  S   UNL     1       3.946   3.697  19.212  0.00  0.00    +0.000 S 
ATOM      5  C   UNL     1       2.603   4.572  19.824  0.00  0.00    +0.000 A 
ENDROOT
BRANCH   3   6
ATOM      6  C   UNL     1       5.642   4.957  17.410  0.00  0.00    +0.000 A 
ATOM      7  C   UNL     1       6.951   5.087  17.843  0.00  0.00    +0.000 A 
ATOM      8  N   UNL     1       7.849   4.952  16.822  0.00  0.00    +0.000 NA
ATOM      9  C   UNL     1       7.116   4.733  15.753  0.00  0.00    +0.000 A 
ATOM     10  C   UNL     1       7.507   4.495  14.406  0.00  0.00    +0.000 A 
ATOM     11  C   UNL     1       6.575   4.270  13.462  0.00  0.00    +0.000 A 
ATOM     12  C   UNL     1       5.160   4.255  13.792  0.00  0.00    +0.000 A 
ATOM     13  C   UNL     1       4.781   4.471  15.062  0.00  0.00    +0.000 A 
ATOM     14  N   UNL     1       5.748   4.723  16.047  0.00  0.00    +0.000 N 
ENDBRANCH   3   6
BRANCH   5  15
ATOM     15  C   UNL     1       1.786   3.948  20.855  0.00  0.00    +0.000 C 
ATOM     16  N   UNL     1       0.487   3.688  20.520  0.00  0.00    +0.000 N 
ATOM     17  O   UNL     1       2.170   3.642  21.984  0.00  0.00    +0.000 OA
ATOM     18  H   UNL     1       0.137   3.886  19.593  0.00  0.00    +0.000 HD
ATOM     19  H   UNL     1      -0.107   3.244  21.203  0.00  0.00    +0.000 HD
ENDBRANCH   5  15
BRANCH   1  20
ATOM     20  O   UNL     1       1.514   6.669  19.568  0.00  0.00    +0.000 OA
BRANCH  20  22
ATOM     21  C   UNL     1       1.596   7.617  21.812  0.00  0.00    +0.000 C 
ATOM     22  C   UNL     1       1.902   7.830  20.327  0.00  0.00    +0.000 C 
BRANCH  22  23
ATOM     23  C   UNL     1       1.056   8.989  19.800  0.00  0.00    +0.000 A 
ATOM     24  C   UNL     1       0.072   9.562  20.630  0.00  0.00    +0.000 A 
ATOM     25  C   UNL     1      -0.785  10.560  20.161  0.00  0.00    +0.000 A 
ATOM     26  C   UNL     1      -0.663  11.041  18.856  0.00  0.00    +0.000 A 
ATOM     27  C   UNL     1       0.376  10.550  18.052  0.00  0.00    +0.000 A 
ATOM     28  C   UNL     1       1.221   9.531  18.516  0.00  0.00    +0.000 A 
ATOM     29 CL   UNL     1       2.466   8.988  17.446  0.00  0.00    +0.000 Cl
BRANCH  26  30
ATOM     30  C   UNL     1      -1.629  12.081  18.339  0.00  0.00    +0.000 C 
BRANCH  30  31
ATOM     31  N   UNL     1      -1.938  11.863  16.930  0.00  0.00    +0.000 NA
ATOM     32  H   UNL     1      -1.079  11.621  16.437  0.00  0.00    +0.000 HD
BRANCH  31  33
ATOM     33  C   UNL     1      -2.955  10.829  16.717  0.00  0.00    +0.000 C 
ATOM     34  C   UNL     1      -3.782  10.798  15.461  0.00  0.00    +0.000 C 
ATOM     35  C   UNL     1      -2.684   9.797  15.657  0.00  0.00    +0.000 C 
ENDBRANCH  31  33
ENDBRANCH  30  31
ENDBRANCH  26  30
ENDBRANCH  22  23
ENDBRANCH  20  22
ENDBRANCH   1  20
TORSDOF 8
ENDMDL
MODEL 5
REMARK VINA RESULT:      -7.7      3.351      8.190
REMARK  Name = 
REMARK  9 active torsions:
REMARK  status: ('A' for Active; 'I' for Inactive)
REMARK    1  A    between atoms: C_1  and  C_2
REMARK    2  A    between atoms: C_2  and  O_3
REMARK    3  A    between atoms: C_2  and  C_21
REMARK    4  A    between atoms: O_3  and  C_4
REMARK    5  A    between atoms: C_6  and  C_7
REMARK    6  A    between atoms: C_17  and  C_18
REMARK    7  A    between atoms: C_24  and  C_25
REMARK    8  A    between atoms: C_25  and  N_26
REMARK    9  A    between atoms: N_26  and  C_27
REMARK                            x       y       z     vdW  Elec       q    Type
REMARK                         _______ _______ _______ _____ _____    ______ ____
ROOT
ATOM      1  C   UNL     1       3.513   4.957  19.286  0.00  0.00    +0.000 A 
ATOM      2  C   UNL     1       3.306   6.353  19.104  0.00  0.00    +0.000 A 
ATOM      3  C   UNL     1       2.179   6.822  19.752  0.00  0.00    +0.000 A 
ATOM      4  S   UNL     1       1.465   5.587  20.687  0.00  0.00    +0.000 S 
ATOM      5  C   UNL     1       2.552   4.391  20.110  0.00  0.00    +0.000 A 
ENDROOT
BRANCH   3   6
ATOM      6  C   UNL     1       1.697   8.175  19.706  0.00  0.00    +0.000 A 
ATOM      7  C   UNL     1       1.709   9.027  18.615  0.00  0.00    +0.000 A 
ATOM      8  N   UNL     1       1.120  10.229  18.889  0.00  0.00    +0.000 NA
ATOM      9  C   UNL     1       0.732  10.137  20.142  0.00  0.00    +0.000 A 
ATOM     10  C   UNL     1       0.042  11.076  20.959  0.00  0.00    +0.000 A 
ATOM     11  C   UNL     1      -0.278  10.759  22.226  0.00  0.00    +0.000 A 
ATOM     12  C   UNL     1       0.061   9.462  22.786  0.00  0.00    +0.000 A 
ATOM     13  C   UNL     1       0.706   8.567  22.021  0.00  0.00    +0.000 A 
ATOM     14  N   UNL     1       1.057   8.898  20.703  0.00  0.00    +0.000 N 
ENDBRANCH   3   6
BRANCH   5  15
ATOM     15  C   UNL     1       2.352   3.015  20.538  0.00  0.00    +0.000 C 
ATOM     16  N   UNL     1       2.469   2.777  21.878  0.00  0.00    +0.000 N 
ATOM     17  O   UNL     1       2.091   2.066  19.797  0.00  0.00    +0.000 OA
ATOM     18  H   UNL     1       2.644   3.529  22.530  0.00  0.00    +0.000 HD
ATOM     19  H   UNL     1       2.324   1.837  22.216  0.00  0.00    +0.000 HD
ENDBRANCH   5  15
BRANCH   1  20
ATOM     20  O   UNL     1       4.449   4.172  18.694  0.00  0.00    +0.000 OA
BRANCH  20  22
ATOM     21  C   UNL     1       5.540   3.358  16.673  0.00  0.00    +0.000 C 
ATOM     22  C   UNL     1       4.912   4.558  17.386  0.00  0.00    +0.000 C 
BRANCH  22  23
ATOM     23  C   UNL     1       5.979   5.628  17.608  0.00  0.00    +0.000 A 
ATOM     24  C   UNL     1       6.956   5.436  18.605  0.00  0.00    +0.000 A 
ATOM     25  C   UNL     1       7.894   6.426  18.906  0.00  0.00    +0.000 A 
ATOM     26  C   UNL     1       7.908   7.627  18.195  0.00  0.00    +0.000 A 
ATOM     27  C   UNL     1       7.005   7.792  17.135  0.00  0.00    +0.000 A 
ATOM     28  C   UNL     1       6.048   6.807  16.849  0.00  0.00    +0.000 A 
ATOM     29 CL   UNL     1       4.975   7.107  15.527  0.00  0.00    +0.000 Cl
BRANCH  26  30
ATOM     30  C   UNL     1       8.890   8.714  18.564  0.00  0.00    +0.000 C 
BRANCH  30  31
ATOM     31  N   UNL     1       8.483  10.004  18.017  0.00  0.00    +0.000 NA
ATOM     32  H   UNL     1       7.470  10.093  18.096  0.00  0.00    +0.000 HD
BRANCH  31  33
ATOM     33  C   UNL     1       9.146  11.139  18.666  0.00  0.00    +0.000 C 
ATOM     34  C   UNL     1      10.621  11.377  18.498  0.00  0.00    +0.000 C 
ATOM     35  C   UNL     1       9.638  12.252  17.782  0.00  0.00    +0.000 C 
ENDBRANCH  31  33
ENDBRANCH  30  31
ENDBRANCH  26  30
ENDBRANCH  22  23
ENDBRANCH  20  22
ENDBRANCH   1  20
TORSDOF 8
ENDMDL
MODEL 6
REMARK VINA RESULT:      -7.6      1.369      2.060
REMARK  Name = 
REMARK  9 active torsions:
REMARK  status: ('A' for Active; 'I' for Inactive)
REMARK    1  A    between atoms: C_1  and  C_2
REMARK    2  A    between atoms: C_2  and  O_3
REMARK    3  A    between atoms: C_2  and  C_21
REMARK    4  A    between atoms: O_3  and  C_4
REMARK    5  A    between atoms: C_6  and  C_7
REMARK    6  A    between atoms: C_17  and  C_18
REMARK    7  A    between atoms: C_24  and  C_25
REMARK    8  A    between atoms: C_25  and  N_26
REMARK    9  A    between atoms: N_26  and  C_27
REMARK                            x       y       z     vdW  Elec       q    Type
REMARK                         _______ _______ _______ _____ _____    ______ ____
ROOT
ATOM      1  C   UNL     1       2.752   5.114  17.933  0.00  0.00    +0.000 A 
ATOM      2  C   UNL     1       3.784   5.627  17.099  0.00  0.00    +0.000 A 
ATOM      3  C   UNL     1       4.557   4.637  16.523  0.00  0.00    +0.000 A 
ATOM      4  S   UNL     1       3.930   3.095  16.891  0.00  0.00    +0.000 S 
ATOM      5  C   UNL     1       2.732   3.728  17.944  0.00  0.00    +0.000 A 
ENDROOT
BRANCH   3   6
ATOM      6  C   UNL     1       5.695   4.860  15.675  0.00  0.00    +0.000 A 
ATOM      7  C   UNL     1       6.878   5.492  16.018  0.00  0.00    +0.000 A 
ATOM      8  N   UNL     1       7.785   5.485  14.996  0.00  0.00    +0.000 NA
ATOM      9  C   UNL     1       7.184   4.848  14.016  0.00  0.00    +0.000 A 
ATOM     10  C   UNL     1       7.653   4.519  12.713  0.00  0.00    +0.000 A 
ATOM     11  C   UNL     1       6.865   3.833  11.866  0.00  0.00    +0.000 A 
ATOM     12  C   UNL     1       5.532   3.407  12.257  0.00  0.00    +0.000 A 
ATOM     13  C   UNL     1       5.083   3.706  13.487  0.00  0.00    +0.000 A 
ATOM     14  N   UNL     1       5.895   4.435  14.368  0.00  0.00    +0.000 N 
ENDBRANCH   3   6
BRANCH   5  15
ATOM     15  C   UNL     1       1.886   2.791  18.668  0.00  0.00    +0.000 C 
ATOM     16  N   UNL     1       2.457   2.164  19.738  0.00  0.00    +0.000 N 
ATOM     17  O   UNL     1       0.715   2.525  18.393  0.00  0.00    +0.000 OA
ATOM     18  H   UNL     1       3.402   2.379  20.026  0.00  0.00    +0.000 HD
ATOM     19  H   UNL     1       1.899   1.518  20.274  0.00  0.00    +0.000 HD
ENDBRANCH   5  15
BRANCH   1  20
ATOM     20  O   UNL     1       1.903   5.813  18.731  0.00  0.00    +0.000 OA
BRANCH  20  22
ATOM     21  C   UNL     1       2.291   5.543  21.121  0.00  0.00    +0.000 C 
ATOM     22  C   UNL     1       2.458   6.449  19.898  0.00  0.00    +0.000 C 
BRANCH  22  23
ATOM     23  C   UNL     1       1.656   7.733  20.108  0.00  0.00    +0.000 A 
ATOM     24  C   UNL     1       0.951   7.919  21.314  0.00  0.00    +0.000 A 
ATOM     25  C   UNL     1       0.133   9.033  21.514  0.00  0.00    +0.000 A 
ATOM     26  C   UNL     1       0.020  10.014  20.527  0.00  0.00    +0.000 A 
ATOM     27  C   UNL     1       0.793   9.890  19.363  0.00  0.00    +0.000 A 
ATOM     28  C   UNL     1       1.596   8.759  19.154  0.00  0.00    +0.000 A 
ATOM     29 CL   UNL     1       2.504   8.697  17.684  0.00  0.00    +0.000 Cl
BRANCH  26  30
ATOM     30  C   UNL     1      -0.910  11.187  20.729  0.00  0.00    +0.000 C 
BRANCH  30  31
ATOM     31  N   UNL     1      -0.272  12.442  20.345  0.00  0.00    +0.000 NA
ATOM     32  H   UNL     1      -0.988  13.091  20.018  0.00  0.00    +0.000 HD
BRANCH  31  33
ATOM     33  C   UNL     1       0.507  13.046  21.430  0.00  0.00    +0.000 C 
ATOM     34  C   UNL     1       1.561  14.081  21.148  0.00  0.00    +0.000 C 
ATOM     35  C   UNL     1       0.250  14.494  21.744  0.00  0.00    +0.000 C 
ENDBRANCH  31  33
ENDBRANCH  30  31
ENDBRANCH  26  30
ENDBRANCH  22  23
ENDBRANCH  20  22
ENDBRANCH   1  20
TORSDOF 8
ENDMDL
MODEL 7
REMARK VINA RESULT:      -7.6      4.696     11.568
REMARK  Name = 
REMARK  9 active torsions:
REMARK  status: ('A' for Active; 'I' for Inactive)
REMARK    1  A    between atoms: C_1  and  C_2
REMARK    2  A    between atoms: C_2  and  O_3
REMARK    3  A    between atoms: C_2  and  C_21
REMARK    4  A    between atoms: O_3  and  C_4
REMARK    5  A    between atoms: C_6  and  C_7
REMARK    6  A    between atoms: C_17  and  C_18
REMARK    7  A    between atoms: C_24  and  C_25
REMARK    8  A    between atoms: C_25  and  N_26
REMARK    9  A    between atoms: N_26  and  C_27
REMARK                            x       y       z     vdW  Elec       q    Type
REMARK                         _______ _______ _______ _____ _____    ______ ____
ROOT
ATOM      1  C   UNL     1      -1.828  11.649  19.088  0.00  0.00    +0.000 A 
ATOM      2  C   UNL     1      -2.219  12.244  20.319  0.00  0.00    +0.000 A 
ATOM      3  C   UNL     1      -3.550  12.615  20.342  0.00  0.00    +0.000 A 
ATOM      4  S   UNL     1      -4.340  12.109  18.919  0.00  0.00    +0.000 S 
ATOM      5  C   UNL     1      -2.888  11.540  18.202  0.00  0.00    +0.000 A 
ENDROOT
BRANCH   3   6
ATOM      6  C   UNL     1      -4.208  13.280  21.434  0.00  0.00    +0.000 A 
ATOM      7  C   UNL     1      -3.708  14.320  22.198  0.00  0.00    +0.000 A 
ATOM      8  N   UNL     1      -4.613  14.767  23.120  0.00  0.00    +0.000 NA
ATOM      9  C   UNL     1      -5.679  14.020  22.936  0.00  0.00    +0.000 A 
ATOM     10  C   UNL     1      -6.941  14.046  23.594  0.00  0.00    +0.000 A 
ATOM     11  C   UNL     1      -7.911  13.191  23.225  0.00  0.00    +0.000 A 
ATOM     12  C   UNL     1      -7.702  12.234  22.152  0.00  0.00    +0.000 A 
ATOM     13  C   UNL     1      -6.517  12.206  21.521  0.00  0.00    +0.000 A 
ATOM     14  N   UNL     1      -5.496  13.085  21.912  0.00  0.00    +0.000 N 
ENDBRANCH   3   6
BRANCH   5  15
ATOM     15  C   UNL     1      -2.945  11.035  16.838  0.00  0.00    +0.000 C 
ATOM     16  N   UNL     1      -1.938  10.191  16.465  0.00  0.00    +0.000 N 
ATOM     17  O   UNL     1      -3.817  11.306  16.011  0.00  0.00    +0.000 OA
ATOM     18  H   UNL     1      -1.222   9.908  17.120  0.00  0.00    +0.000 HD
ATOM     19  H   UNL     1      -1.950   9.808  15.532  0.00  0.00    +0.000 HD
ENDBRANCH   5  15
BRANCH   1  20
ATOM     20  O   UNL     1      -0.577  11.285  18.700  0.00  0.00    +0.000 OA
BRANCH  20  22
ATOM     21  C   UNL     1       1.399  12.256  19.744  0.00  0.00    +0.000 C 
ATOM     22  C   UNL     1       0.408  11.089  19.732  0.00  0.00    +0.000 C 
BRANCH  22  23
ATOM     23  C   UNL     1       1.150   9.801  19.376  0.00  0.00    +0.000 A 
ATOM     24  C   UNL     1       1.665   9.636  18.075  0.00  0.00    +0.000 A 
ATOM     25  C   UNL     1       2.269   8.441  17.678  0.00  0.00    +0.000 A 
ATOM     26  C   UNL     1       2.408   7.384  18.579  0.00  0.00    +0.000 A 
ATOM     27  C   UNL     1       1.989   7.571  19.904  0.00  0.00    +0.000 A 
ATOM     28  C   UNL     1       1.361   8.763  20.296  0.00  0.00    +0.000 A 
ATOM     29 CL   UNL     1       0.874   8.893  21.950  0.00  0.00    +0.000 Cl
BRANCH  26  30
ATOM     30  C   UNL     1       3.011   6.076  18.125  0.00  0.00    +0.000 C 
BRANCH  30  31
ATOM     31  N   UNL     1       4.165   6.298  17.260  0.00  0.00    +0.000 NA
ATOM     32  H   UNL     1       4.094   7.226  16.843  0.00  0.00    +0.000 HD
BRANCH  31  33
ATOM     33  C   UNL     1       5.445   6.152  17.960  0.00  0.00    +0.000 C 
ATOM     34  C   UNL     1       6.549   5.303  17.393  0.00  0.00    +0.000 C 
ATOM     35  C   UNL     1       6.653   6.797  17.337  0.00  0.00    +0.000 C 
ENDBRANCH  31  33
ENDBRANCH  30  31
ENDBRANCH  26  30
ENDBRANCH  22  23
ENDBRANCH  20  22
ENDBRANCH   1  20
TORSDOF 8
ENDMDL
MODEL 8
REMARK VINA RESULT:      -7.5      4.180      5.727
REMARK  Name = 
REMARK  9 active torsions:
REMARK  status: ('A' for Active; 'I' for Inactive)
REMARK    1  A    between atoms: C_1  and  C_2
REMARK    2  A    between atoms: C_2  and  O_3
REMARK    3  A    between atoms: C_2  and  C_21
REMARK    4  A    between atoms: O_3  and  C_4
REMARK    5  A    between atoms: C_6  and  C_7
REMARK    6  A    between atoms: C_17  and  C_18
REMARK    7  A    between atoms: C_24  and  C_25
REMARK    8  A    between atoms: C_25  and  N_26
REMARK    9  A    between atoms: N_26  and  C_27
REMARK                            x       y       z     vdW  Elec       q    Type
REMARK                         _______ _______ _______ _____ _____    ______ ____
ROOT
ATOM      1  C   UNL     1       1.080   8.618  20.194  0.00  0.00    +0.000 A 
ATOM      2  C   UNL     1       1.716   7.361  20.391  0.00  0.00    +0.000 A 
ATOM      3  C   UNL     1       2.474   6.962  19.307  0.00  0.00    +0.000 A 
ATOM      4  S   UNL     1       2.514   8.184  18.119  0.00  0.00    +0.000 S 
ATOM      5  C   UNL     1       1.400   9.177  18.967  0.00  0.00    +0.000 A 
ENDROOT
BRANCH   3   6
ATOM      6  C   UNL     1       3.188   5.719  19.205  0.00  0.00    +0.000 A 
ATOM      7  C   UNL     1       4.548   5.524  19.371  0.00  0.00    +0.000 A 
ATOM      8  N   UNL     1       4.899   4.207  19.268  0.00  0.00    +0.000 NA
ATOM      9  C   UNL     1       3.770   3.573  19.044  0.00  0.00    +0.000 A 
ATOM     10  C   UNL     1       3.517   2.183  18.874  0.00  0.00    +0.000 A 
ATOM     11  C   UNL     1       2.261   1.745  18.674  0.00  0.00    +0.000 A 
ATOM     12  C   UNL     1       1.140   2.669  18.635  0.00  0.00    +0.000 A 
ATOM     13  C   UNL     1       1.368   3.982  18.802  0.00  0.00    +0.000 A 
ATOM     14  N   UNL     1       2.677   4.445  18.995  0.00  0.00    +0.000 N 
ENDBRANCH   3   6
BRANCH   5  15
ATOM     15  C   UNL     1       0.962  10.414  18.337  0.00  0.00    +0.000 C 
ATOM     16  N   UNL     1       1.937  11.175  17.759  0.00  0.00    +0.000 N 
ATOM     17  O   UNL     1      -0.201  10.819  18.289  0.00  0.00    +0.000 OA
ATOM     18  H   UNL     1       2.900  10.865  17.740  0.00  0.00    +0.000 HD
ATOM     19  H   UNL     1       1.672  12.033  17.300  0.00  0.00    +0.000 HD
ENDBRANCH   5  15
BRANCH   1  20
ATOM     20  O   UNL     1       0.181   9.232  21.008  0.00  0.00    +0.000 OA
BRANCH  20  22
ATOM     21  C   UNL     1       0.838   9.266  23.354  0.00  0.00    +0.000 C 
ATOM     22  C   UNL     1       0.699  10.070  22.059  0.00  0.00    +0.000 C 
BRANCH  22  23
ATOM     23  C   UNL     1      -0.328  11.183  22.263  0.00  0.00    +0.000 A 
ATOM     24  C   UNL     1      -1.447  10.950  23.088  0.00  0.00    +0.000 A 
ATOM     25  C   UNL     1      -2.456  11.904  23.231  0.00  0.00    +0.000 A 
ATOM     26  C   UNL     1      -2.363  13.136  22.581  0.00  0.00    +0.000 A 
ATOM     27  C   UNL     1      -1.209  13.419  21.837  0.00  0.00    +0.000 A 
ATOM     28  C   UNL     1      -0.206  12.451  21.674  0.00  0.00    +0.000 A 
ATOM     29 CL   UNL     1       1.174  12.893  20.732  0.00  0.00    +0.000 Cl
BRANCH  26  30
ATOM     30  C   UNL     1      -3.486  14.139  22.697  0.00  0.00    +0.000 C 
BRANCH  30  31
ATOM     31  N   UNL     1      -4.344  14.114  21.517  0.00  0.00    +0.000 NA
ATOM     32  H   UNL     1      -3.854  14.562  20.742  0.00  0.00    +0.000 HD
BRANCH  31  33
ATOM     33  C   UNL     1      -4.763  12.761  21.139  0.00  0.00    +0.000 C 
ATOM     34  C   UNL     1      -6.072  12.518  20.440  0.00  0.00    +0.000 C 
ATOM     35  C   UNL     1      -4.788  12.426  19.673  0.00  0.00    +0.000 C 
ENDBRANCH  31  33
ENDBRANCH  30  31
ENDBRANCH  26  30
ENDBRANCH  22  23
ENDBRANCH  20  22
ENDBRANCH   1  20
TORSDOF 8
ENDMDL
MODEL 9
REMARK VINA RESULT:      -7.5      3.652     10.662
REMARK  Name = 
REMARK  9 active torsions:
REMARK  status: ('A' for Active; 'I' for Inactive)
REMARK    1  A    between atoms: C_1  and  C_2
REMARK    2  A    between atoms: C_2  and  O_3
REMARK    3  A    between atoms: C_2  and  C_21
REMARK    4  A    between atoms: O_3  and  C_4
REMARK    5  A    between atoms: C_6  and  C_7
REMARK    6  A    between atoms: C_17  and  C_18
REMARK    7  A    between atoms: C_24  and  C_25
REMARK    8  A    between atoms: C_25  and  N_26
REMARK    9  A    between atoms: N_26  and  C_27
REMARK                            x       y       z     vdW  Elec       q    Type
REMARK                         _______ _______ _______ _____ _____    ______ ____
ROOT
ATOM      1  C   UNL     1       0.170  10.647  18.460  0.00  0.00    +0.000 A 
ATOM      2  C   UNL     1      -1.244  10.566  18.594  0.00  0.00    +0.000 A 
ATOM      3  C   UNL     1      -1.825  11.771  18.939  0.00  0.00    +0.000 A 
ATOM      4  S   UNL     1      -0.661  13.016  18.959  0.00  0.00    +0.000 S 
ATOM      5  C   UNL     1       0.639  11.935  18.668  0.00  0.00    +0.000 A 
ENDROOT
BRANCH   3   6
ATOM      6  C   UNL     1      -3.226  11.976  19.187  0.00  0.00    +0.000 A 
ATOM      7  C   UNL     1      -4.267  11.776  18.297  0.00  0.00    +0.000 A 
ATOM      8  N   UNL     1      -5.488  12.006  18.868  0.00  0.00    +0.000 NA
ATOM      9  C   UNL     1      -5.222  12.341  20.111  0.00  0.00    +0.000 A 
ATOM     10  C   UNL     1      -6.102  12.669  21.180  0.00  0.00    +0.000 A 
ATOM     11  C   UNL     1      -5.606  12.966  22.395  0.00  0.00    +0.000 A 
ATOM     12  C   UNL     1      -4.175  12.951  22.647  0.00  0.00    +0.000 A 
ATOM     13  C   UNL     1      -3.336  12.636  21.646  0.00  0.00    +0.000 A 
ATOM     14  N   UNL     1      -3.848  12.342  20.373  0.00  0.00    +0.000 N 
ENDBRANCH   3   6
BRANCH   5  15
ATOM     15  C   UNL     1       1.993  12.470  18.666  0.00  0.00    +0.000 C 
ATOM     16  N   UNL     1       2.773  12.135  17.596  0.00  0.00    +0.000 N 
ATOM     17  O   UNL     1       2.479  13.190  19.540  0.00  0.00    +0.000 OA
ATOM     18  H   UNL     1       2.405  11.579  16.835  0.00  0.00    +0.000 HD
ATOM     19  H   UNL     1       3.712  12.497  17.551  0.00  0.00    +0.000 HD
ENDBRANCH   5  15
BRANCH   1  20
ATOM     20  O   UNL     1       1.045   9.630  18.248  0.00  0.00    +0.000 OA
BRANCH  20  22
ATOM     21  C   UNL     1       1.382   9.161  20.615  0.00  0.00    +0.000 C 
ATOM     22  C   UNL     1       1.093   8.578  19.230  0.00  0.00    +0.000 C 
BRANCH  22  23
ATOM     23  C   UNL     1       2.243   7.660  18.819  0.00  0.00    +0.000 A 
ATOM     24  C   UNL     1       3.111   8.059  17.783  0.00  0.00    +0.000 A 
ATOM     25  C   UNL     1       4.118   7.214  17.312  0.00  0.00    +0.000 A 
ATOM     26  C   UNL     1       4.312   5.956  17.884  0.00  0.00    +0.000 A 
ATOM     27  C   UNL     1       3.520   5.586  18.981  0.00  0.00    +0.000 A 
ATOM     28  C   UNL     1       2.493   6.425  19.438  0.00  0.00    +0.000 A 
ATOM     29 CL   UNL     1       1.567   5.876  20.791  0.00  0.00    +0.000 Cl
BRANCH  26  30
ATOM     30  C   UNL     1       5.368   5.027  17.331  0.00  0.00    +0.000 C 
BRANCH  30  31
ATOM     31  N   UNL     1       4.917   4.386  16.101  0.00  0.00    +0.000 NA
ATOM     32  H   UNL     1       4.387   5.062  15.550  0.00  0.00    +0.000 HD
BRANCH  31  33
ATOM     33  C   UNL     1       6.016   3.832  15.305  0.00  0.00    +0.000 C 
ATOM     34  C   UNL     1       6.009   3.914  13.804  0.00  0.00    +0.000 C 
ATOM     35  C   UNL     1       6.917   4.805  14.595  0.00  0.00    +0.000 C 
ENDBRANCH  31  33
ENDBRANCH  30  31
ENDBRANCH  26  30
ENDBRANCH  22  23
ENDBRANCH  20  22
ENDBRANCH   1  20
TORSDOF 8
ENDMDL
