MODEL 1
REMARK VINA RESULT:      -9.3      0.000      0.000
REMARK  Name = 
REMARK  8 active torsions:
REMARK  status: ('A' for Active; 'I' for Inactive)
REMARK    1  A    between atoms: C_1  and  N_2
REMARK    2  A    between atoms: N_5  and  C_6
REMARK    3  A    between atoms: C_9  and  O_10
REMARK    4  A    between atoms: O_10  and  C_11
REMARK    5  A    between atoms: C_11  and  C_12
REMARK    6  A    between atoms: C_12  and  C_13
REMARK    7  A    between atoms: C_13  and  C_14
REMARK    8  A    between atoms: C_20  and  C_21
REMARK                            x       y       z     vdW  Elec       q    Type
REMARK                         _______ _______ _______ _____ _____    ______ ____
ROOT
ATOM      1  C   UNL     1       4.016   4.266  17.945  0.00  0.00    +0.000 A 
ATOM      2  C   UNL     1       4.698   5.055  18.855  0.00  0.00    +0.000 A 
ATOM      3  C   UNL     1       5.842   5.738  18.472  0.00  0.00    +0.000 A 
ATOM      4  C   UNL     1       6.367   5.662  17.162  0.00  0.00    +0.000 A 
ATOM      5  C   UNL     1       5.713   4.846  16.205  0.00  0.00    +0.000 A 
ATOM      6  C   UNL     1       4.528   4.177  16.640  0.00  0.00    +0.000 A 
ENDROOT
BRANCH   1  11
ATOM      7  C   UNL     1       1.052   3.153  20.506  0.00  0.00    +0.000 C 
ATOM      8  N   UNL     1       1.809   2.094  19.855  0.00  0.00    +0.000 NA
ATOM      9  C   UNL     1       2.630   2.419  18.917  0.00  0.00    +0.000 C 
ATOM     10  N   UNL     1       3.278   1.408  18.290  0.00  0.00    +0.000 N 
ATOM     11  N   UNL     1       2.829   3.658  18.387  0.00  0.00    +0.000 N 
ATOM     12  H   UNL     1       3.253   0.537  18.800  0.00  0.00    +0.000 HD
ATOM     13  H   UNL     1       4.139   1.611  17.809  0.00  0.00    +0.000 HD
ATOM     14  H   UNL     1       2.129   4.346  18.631  0.00  0.00    +0.000 HD
ENDBRANCH   1  11
BRANCH   5  15
ATOM     15  C   UNL     1       6.172   4.627  14.794  0.00  0.00    +0.000 A 
ATOM     16  C   UNL     1       7.298   5.311  14.277  0.00  0.00    +0.000 A 
ATOM     17  C   UNL     1       7.759   5.116  12.968  0.00  0.00    +0.000 A 
ATOM     18  C   UNL     1       7.097   4.236  12.124  0.00  0.00    +0.000 A 
ATOM     19  C   UNL     1       5.994   3.535  12.604  0.00  0.00    +0.000 A 
ATOM     20  C   UNL     1       5.548   3.722  13.923  0.00  0.00    +0.000 A 
ENDBRANCH   5  15
BRANCH   4  21
ATOM     21  O   UNL     1       7.518   6.369  16.816  0.00  0.00    +0.000 OA
BRANCH  21  22
ATOM     22  C   UNL     1       7.408   7.781  17.054  0.00  0.00    +0.000 C 
BRANCH  22  23
ATOM     23  C   UNL     1       8.322   8.353  18.131  0.00  0.00    +0.000 C 
BRANCH  23  24
ATOM     24  C   UNL     1       8.172   9.884  18.063  0.00  0.00    +0.000 C 
BRANCH  24  25
ATOM     25  C   UNL     1       9.324  10.639  18.657  0.00  0.00    +0.000 A 
ATOM     26  C   UNL     1      10.377  11.075  17.842  0.00  0.00    +0.000 A 
ATOM     27  C   UNL     1      11.451  11.773  18.396  0.00  0.00    +0.000 A 
ATOM     28  C   UNL     1      11.477  12.040  19.763  0.00  0.00    +0.000 A 
ATOM     29  C   UNL     1      10.428  11.620  20.578  0.00  0.00    +0.000 A 
ATOM     30  C   UNL     1       9.354  10.922  20.027  0.00  0.00    +0.000 A 
ENDBRANCH  24  25
ENDBRANCH  23  24
ENDBRANCH  22  23
ENDBRANCH  21  22
ENDBRANCH   4  21
TORSDOF 7
ENDMDL
MODEL 2
REMARK VINA RESULT:      -9.3      0.785      1.217
REMARK  Name = 
REMARK  8 active torsions:
REMARK  status: ('A' for Active; 'I' for Inactive)
REMARK    1  A    between atoms: C_1  and  N_2
REMARK    2  A    between atoms: N_5  and  C_6
REMARK    3  A    between atoms: C_9  and  O_10
REMARK    4  A    between atoms: O_10  and  C_11
REMARK    5  A    between atoms: C_11  and  C_12
REMARK    6  A    between atoms: C_12  and  C_13
REMARK    7  A    between atoms: C_13  and  C_14
REMARK    8  A    between atoms: C_20  and  C_21
REMARK                            x       y       z     vdW  Elec       q    Type
REMARK                         _______ _______ _______ _____ _____    ______ ____
ROOT
ATOM      1  C   UNL     1       3.816   4.192  17.528  0.00  0.00    +0.000 A 
ATOM      2  C   UNL     1       4.235   5.188  18.394  0.00  0.00    +0.000 A 
ATOM      3  C   UNL     1       5.258   6.048  18.030  0.00  0.00    +0.000 A 
ATOM      4  C   UNL     1       5.921   5.955  16.785  0.00  0.00    +0.000 A 
ATOM      5  C   UNL     1       5.540   4.935  15.879  0.00  0.00    +0.000 A 
ATOM      6  C   UNL     1       4.468   4.084  16.289  0.00  0.00    +0.000 A 
ENDROOT
BRANCH   1  11
ATOM      7  C   UNL     1       0.804   2.825  19.903  0.00  0.00    +0.000 C 
ATOM      8  N   UNL     1       1.853   1.884  19.542  0.00  0.00    +0.000 NA
ATOM      9  C   UNL     1       2.717   2.244  18.657  0.00  0.00    +0.000 C 
ATOM     10  N   UNL     1       3.647   1.327  18.297  0.00  0.00    +0.000 N 
ATOM     11  N   UNL     1       2.730   3.401  17.938  0.00  0.00    +0.000 N 
ATOM     12  H   UNL     1       3.729   0.560  18.950  0.00  0.00    +0.000 HD
ATOM     13  H   UNL     1       4.509   1.647  17.886  0.00  0.00    +0.000 HD
ATOM     14  H   UNL     1       1.874   3.937  17.975  0.00  0.00    +0.000 HD
ENDBRANCH   1  11
BRANCH   5  15
ATOM     15  C   UNL     1       6.175   4.679  14.545  0.00  0.00    +0.000 A 
ATOM     16  C   UNL     1       5.606   3.763  13.628  0.00  0.00    +0.000 A 
ATOM     17  C   UNL     1       6.170   3.513  12.368  0.00  0.00    +0.000 A 
ATOM     18  C   UNL     1       7.334   4.166  11.988  0.00  0.00    +0.000 A 
ATOM     19  C   UNL     1       7.912   5.084  12.859  0.00  0.00    +0.000 A 
ATOM     20  C   UNL     1       7.333   5.343  14.113  0.00  0.00    +0.000 A 
ENDBRANCH   5  15
BRANCH   4  21
ATOM     21  O   UNL     1       6.942   6.845  16.456  0.00  0.00    +0.000 OA
BRANCH  21  22
ATOM     22  C   UNL     1       7.682   7.307  17.596  0.00  0.00    +0.000 C 
BRANCH  22  23
ATOM     23  C   UNL     1       7.916   8.811  17.681  0.00  0.00    +0.000 C 
BRANCH  23  24
ATOM     24  C   UNL     1       8.904   9.034  18.841  0.00  0.00    +0.000 C 
BRANCH  24  25
ATOM     25  C   UNL     1       9.251  10.474  19.080  0.00  0.00    +0.000 A 
ATOM     26  C   UNL     1       9.427  11.346  17.999  0.00  0.00    +0.000 A 
ATOM     27  C   UNL     1       9.754  12.684  18.222  0.00  0.00    +0.000 A 
ATOM     28  C   UNL     1       9.905  13.156  19.524  0.00  0.00    +0.000 A 
ATOM     29  C   UNL     1       9.719  12.297  20.606  0.00  0.00    +0.000 A 
ATOM     30  C   UNL     1       9.393  10.960  20.385  0.00  0.00    +0.000 A 
ENDBRANCH  24  25
ENDBRANCH  23  24
ENDBRANCH  22  23
ENDBRANCH  21  22
ENDBRANCH   4  21
TORSDOF 7
ENDMDL
MODEL 3
REMARK VINA RESULT:      -9.1      0.689      1.158
REMARK  Name = 
REMARK  8 active torsions:
REMARK  status: ('A' for Active; 'I' for Inactive)
REMARK    1  A    between atoms: C_1  and  N_2
REMARK    2  A    between atoms: N_5  and  C_6
REMARK    3  A    between atoms: C_9  and  O_10
REMARK    4  A    between atoms: O_10  and  C_11
REMARK    5  A    between atoms: C_11  and  C_12
REMARK    6  A    between atoms: C_12  and  C_13
REMARK    7  A    between atoms: C_13  and  C_14
REMARK    8  A    between atoms: C_20  and  C_21
REMARK                            x       y       z     vdW  Elec       q    Type
REMARK                         _______ _______ _______ _____ _____    ______ ____
ROOT
ATOM      1  C   UNL     1       3.705   4.337  17.703  0.00  0.00    +0.000 A 
ATOM      2  C   UNL     1       4.122   5.392  18.495  0.00  0.00    +0.000 A 
ATOM      3  C   UNL     1       5.116   6.251  18.054  0.00  0.00    +0.000 A 
ATOM      4  C   UNL     1       5.748   6.097  16.799  0.00  0.00    +0.000 A 
ATOM      5  C   UNL     1       5.368   5.016  15.966  0.00  0.00    +0.000 A 
ATOM      6  C   UNL     1       4.327   4.168  16.455  0.00  0.00    +0.000 A 
ENDROOT
BRANCH   1  11
ATOM      7  C   UNL     1       0.923   2.920  20.317  0.00  0.00    +0.000 C 
ATOM      8  N   UNL     1       1.905   1.976  19.805  0.00  0.00    +0.000 NA
ATOM      9  C   UNL     1       2.681   2.360  18.851  0.00  0.00    +0.000 C 
ATOM     10  N   UNL     1       3.546   1.443  18.356  0.00  0.00    +0.000 N 
ATOM     11  N   UNL     1       2.648   3.549  18.188  0.00  0.00    +0.000 N 
ATOM     12  H   UNL     1       3.676   0.644  18.961  0.00  0.00    +0.000 HD
ATOM     13  H   UNL     1       4.368   1.765  17.871  0.00  0.00    +0.000 HD
ATOM     14  H   UNL     1       1.813   4.100  18.340  0.00  0.00    +0.000 HD
ENDBRANCH   1  11
BRANCH   5  15
ATOM     15  C   UNL     1       5.975   4.693  14.633  0.00  0.00    +0.000 A 
ATOM     16  C   UNL     1       7.195   5.282  14.224  0.00  0.00    +0.000 A 
ATOM     17  C   UNL     1       7.794   4.989  12.991  0.00  0.00    +0.000 A 
ATOM     18  C   UNL     1       7.182   4.102  12.116  0.00  0.00    +0.000 A 
ATOM     19  C   UNL     1       5.989   3.493  12.493  0.00  0.00    +0.000 A 
ATOM     20  C   UNL     1       5.402   3.777  13.737  0.00  0.00    +0.000 A 
ENDBRANCH   5  15
BRANCH   4  21
ATOM     21  O   UNL     1       6.740   6.987  16.390  0.00  0.00    +0.000 OA
BRANCH  21  22
ATOM     22  C   UNL     1       7.651   7.343  17.441  0.00  0.00    +0.000 C 
BRANCH  22  23
ATOM     23  C   UNL     1       7.844   8.836  17.684  0.00  0.00    +0.000 C 
BRANCH  23  24
ATOM     24  C   UNL     1       8.835   8.962  18.856  0.00  0.00    +0.000 C 
BRANCH  24  25
ATOM     25  C   UNL     1       9.315  10.362  19.103  0.00  0.00    +0.000 A 
ATOM     26  C   UNL     1       9.283  10.901  20.395  0.00  0.00    +0.000 A 
ATOM     27  C   UNL     1       9.724  12.204  20.624  0.00  0.00    +0.000 A 
ATOM     28  C   UNL     1      10.201  12.974  19.566  0.00  0.00    +0.000 A 
ATOM     29  C   UNL     1      10.248  12.441  18.279  0.00  0.00    +0.000 A 
ATOM     30  C   UNL     1       9.807  11.138  18.047  0.00  0.00    +0.000 A 
ENDBRANCH  24  25
ENDBRANCH  23  24
ENDBRANCH  22  23
ENDBRANCH  21  22
ENDBRANCH   4  21
TORSDOF 7
ENDMDL
MODEL 4
REMARK VINA RESULT:      -8.8      5.551      8.913
REMARK  Name = 
REMARK  8 active torsions:
REMARK  status: ('A' for Active; 'I' for Inactive)
REMARK    1  A    between atoms: C_1  and  N_2
REMARK    2  A    between atoms: N_5  and  C_6
REMARK    3  A    between atoms: C_9  and  O_10
REMARK    4  A    between atoms: O_10  and  C_11
REMARK    5  A    between atoms: C_11  and  C_12
REMARK    6  A    between atoms: C_12  and  C_13
REMARK    7  A    between atoms: C_13  and  C_14
REMARK    8  A    between atoms: C_20  and  C_21
REMARK                            x       y       z     vdW  Elec       q    Type
REMARK                         _______ _______ _______ _____ _____    ______ ____
ROOT
ATOM      1  C   UNL     1       4.473   6.663  16.994  0.00  0.00    +0.000 A 
ATOM      2  C   UNL     1       3.985   7.958  17.034  0.00  0.00    +0.000 A 
ATOM      3  C   UNL     1       2.961   8.295  17.903  0.00  0.00    +0.000 A 
ATOM      4  C   UNL     1       2.366   7.354  18.775  0.00  0.00    +0.000 A 
ATOM      5  C   UNL     1       2.820   6.012  18.750  0.00  0.00    +0.000 A 
ATOM      6  C   UNL     1       3.890   5.716  17.851  0.00  0.00    +0.000 A 
ENDROOT
BRANCH   1  11
ATOM      7  C   UNL     1       6.859   4.630  14.395  0.00  0.00    +0.000 C 
ATOM      8  N   UNL     1       7.454   5.070  15.648  0.00  0.00    +0.000 NA
ATOM      9  C   UNL     1       6.771   5.859  16.403  0.00  0.00    +0.000 C 
ATOM     10  N   UNL     1       7.372   6.298  17.535  0.00  0.00    +0.000 N 
ATOM     11  N   UNL     1       5.556   6.413  16.135  0.00  0.00    +0.000 N 
ATOM     12  H   UNL     1       8.180   5.753  17.799  0.00  0.00    +0.000 HD
ATOM     13  H   UNL     1       6.795   6.624  18.293  0.00  0.00    +0.000 HD
ATOM     14  H   UNL     1       5.257   6.340  15.171  0.00  0.00    +0.000 HD
ENDBRANCH   1  11
BRANCH   5  15
ATOM     15  C   UNL     1       2.262   4.892  19.577  0.00  0.00    +0.000 A 
ATOM     16  C   UNL     1       1.349   3.962  19.026  0.00  0.00    +0.000 A 
ATOM     17  C   UNL     1       0.821   2.897  19.770  0.00  0.00    +0.000 A 
ATOM     18  C   UNL     1       1.182   2.735  21.100  0.00  0.00    +0.000 A 
ATOM     19  C   UNL     1       2.089   3.623  21.670  0.00  0.00    +0.000 A 
ATOM     20  C   UNL     1       2.628   4.678  20.914  0.00  0.00    +0.000 A 
ENDBRANCH   5  15
BRANCH   4  21
ATOM     21  O   UNL     1       1.341   7.735  19.640  0.00  0.00    +0.000 OA
BRANCH  21  22
ATOM     22  C   UNL     1       1.301   9.150  19.882  0.00  0.00    +0.000 C 
BRANCH  22  23
ATOM     23  C   UNL     1      -0.048   9.828  19.672  0.00  0.00    +0.000 C 
BRANCH  23  24
ATOM     24  C   UNL     1      -0.293   9.852  18.152  0.00  0.00    +0.000 C 
BRANCH  24  25
ATOM     25  C   UNL     1      -1.656  10.341  17.760  0.00  0.00    +0.000 A 
ATOM     26  C   UNL     1      -2.394  11.149  18.633  0.00  0.00    +0.000 A 
ATOM     27  C   UNL     1      -3.664  11.600  18.270  0.00  0.00    +0.000 A 
ATOM     28  C   UNL     1      -4.200  11.248  17.033  0.00  0.00    +0.000 A 
ATOM     29  C   UNL     1      -3.467  10.454  16.153  0.00  0.00    +0.000 A 
ATOM     30  C   UNL     1      -2.198  10.002  16.514  0.00  0.00    +0.000 A 
ENDBRANCH  24  25
ENDBRANCH  23  24
ENDBRANCH  22  23
ENDBRANCH  21  22
ENDBRANCH   4  21
TORSDOF 7
ENDMDL
MODEL 5
REMARK VINA RESULT:      -8.7      0.862      1.256
REMARK  Name = 
REMARK  8 active torsions:
REMARK  status: ('A' for Active; 'I' for Inactive)
REMARK    1  A    between atoms: C_1  and  N_2
REMARK    2  A    between atoms: N_5  and  C_6
REMARK    3  A    between atoms: C_9  and  O_10
REMARK    4  A    between atoms: O_10  and  C_11
REMARK    5  A    between atoms: C_11  and  C_12
REMARK    6  A    between atoms: C_12  and  C_13
REMARK    7  A    between atoms: C_13  and  C_14
REMARK    8  A    between atoms: C_20  and  C_21
REMARK                            x       y       z     vdW  Elec       q    Type
REMARK                         _______ _______ _______ _____ _____    ______ ____
ROOT
ATOM      1  C   UNL     1       4.705   3.980  18.340  0.00  0.00    +0.000 A 
ATOM      2  C   UNL     1       5.298   4.942  19.139  0.00  0.00    +0.000 A 
ATOM      3  C   UNL     1       6.212   5.834  18.601  0.00  0.00    +0.000 A 
ATOM      4  C   UNL     1       6.586   5.807  17.238  0.00  0.00    +0.000 A 
ATOM      5  C   UNL     1       6.020   4.823  16.390  0.00  0.00    +0.000 A 
ATOM      6  C   UNL     1       5.069   3.939  16.984  0.00  0.00    +0.000 A 
ENDROOT
BRANCH   1  11
ATOM      7  C   UNL     1       1.519   2.933  20.650  0.00  0.00    +0.000 C 
ATOM      8  N   UNL     1       2.799   2.311  20.952  0.00  0.00    +0.000 NA
ATOM      9  C   UNL     1       3.775   2.495  20.131  0.00  0.00    +0.000 C 
ATOM     10  N   UNL     1       4.938   1.858  20.406  0.00  0.00    +0.000 N 
ATOM     11  N   UNL     1       3.739   3.155  18.940  0.00  0.00    +0.000 N 
ATOM     12  H   UNL     1       5.000   1.527  21.358  0.00  0.00    +0.000 HD
ATOM     13  H   UNL     1       5.792   2.216  20.009  0.00  0.00    +0.000 HD
ATOM     14  H   UNL     1       2.811   3.354  18.589  0.00  0.00    +0.000 HD
ENDBRANCH   1  11
BRANCH   5  15
ATOM     15  C   UNL     1       6.348   4.637  14.938  0.00  0.00    +0.000 A 
ATOM     16  C   UNL     1       7.426   5.332  14.338  0.00  0.00    +0.000 A 
ATOM     17  C   UNL     1       7.766   5.167  12.988  0.00  0.00    +0.000 A 
ATOM     18  C   UNL     1       7.027   4.309  12.187  0.00  0.00    +0.000 A 
ATOM     19  C   UNL     1       5.970   3.599  12.748  0.00  0.00    +0.000 A 
ATOM     20  C   UNL     1       5.645   3.754  14.106  0.00  0.00    +0.000 A 
ENDBRANCH   5  15
BRANCH   4  21
ATOM     21  O   UNL     1       7.505   6.727  16.736  0.00  0.00    +0.000 OA
BRANCH  21  22
ATOM     22  C   UNL     1       7.379   8.032  17.319  0.00  0.00    +0.000 C 
BRANCH  22  23
ATOM     23  C   UNL     1       8.665   8.842  17.438  0.00  0.00    +0.000 C 
BRANCH  23  24
ATOM     24  C   UNL     1       8.599   9.568  18.794  0.00  0.00    +0.000 C 
BRANCH  24  25
ATOM     25  C   UNL     1       9.661  10.612  18.982  0.00  0.00    +0.000 A 
ATOM     26  C   UNL     1       9.947  11.104  20.261  0.00  0.00    +0.000 A 
ATOM     27  C   UNL     1      10.931  12.078  20.434  0.00  0.00    +0.000 A 
ATOM     28  C   UNL     1      11.634  12.562  19.333  0.00  0.00    +0.000 A 
ATOM     29  C   UNL     1      11.363  12.067  18.058  0.00  0.00    +0.000 A 
ATOM     30  C   UNL     1      10.380  11.095  17.882  0.00  0.00    +0.000 A 
ENDBRANCH  24  25
ENDBRANCH  23  24
ENDBRANCH  22  23
ENDBRANCH  21  22
ENDBRANCH   4  21
TORSDOF 7
ENDMDL
MODEL 6
REMARK VINA RESULT:      -8.6      0.837      1.396
REMARK  Name = 
REMARK  8 active torsions:
REMARK  status: ('A' for Active; 'I' for Inactive)
REMARK    1  A    between atoms: C_1  and  N_2
REMARK    2  A    between atoms: N_5  and  C_6
REMARK    3  A    between atoms: C_9  and  O_10
REMARK    4  A    between atoms: O_10  and  C_11
REMARK    5  A    between atoms: C_11  and  C_12
REMARK    6  A    between atoms: C_12  and  C_13
REMARK    7  A    between atoms: C_13  and  C_14
REMARK    8  A    between atoms: C_20  and  C_21
REMARK                            x       y       z     vdW  Elec       q    Type
REMARK                         _______ _______ _______ _____ _____    ______ ____
ROOT
ATOM      1  C   UNL     1       4.217   4.454  18.171  0.00  0.00    +0.000 A 
ATOM      2  C   UNL     1       4.902   5.315  19.011  0.00  0.00    +0.000 A 
ATOM      3  C   UNL     1       6.007   6.013  18.549  0.00  0.00    +0.000 A 
ATOM      4  C   UNL     1       6.487   5.883  17.226  0.00  0.00    +0.000 A 
ATOM      5  C   UNL     1       5.828   4.995  16.340  0.00  0.00    +0.000 A 
ATOM      6  C   UNL     1       4.684   4.312  16.854  0.00  0.00    +0.000 A 
ENDROOT
BRANCH   1  11
ATOM      7  C   UNL     1       1.502   1.507  18.897  0.00  0.00    +0.000 C 
ATOM      8  N   UNL     1       1.023   2.712  18.237  0.00  0.00    +0.000 NA
ATOM      9  C   UNL     1       1.821   3.720  18.154  0.00  0.00    +0.000 C 
ATOM     10  N   UNL     1       1.330   4.848  17.587  0.00  0.00    +0.000 N 
ATOM     11  N   UNL     1       3.069   3.832  18.689  0.00  0.00    +0.000 N 
ATOM     12  H   UNL     1       0.487   4.695  17.051  0.00  0.00    +0.000 HD
ATOM     13  H   UNL     1       1.977   5.519  17.205  0.00  0.00    +0.000 HD
ATOM     14  H   UNL     1       3.306   3.124  19.371  0.00  0.00    +0.000 HD
ENDBRANCH   1  11
BRANCH   5  15
ATOM     15  C   UNL     1       6.243   4.715  14.926  0.00  0.00    +0.000 A 
ATOM     16  C   UNL     1       5.493   3.840  14.104  0.00  0.00    +0.000 A 
ATOM     17  C   UNL     1       5.847   3.571  12.775  0.00  0.00    +0.000 A 
ATOM     18  C   UNL     1       6.977   4.160  12.225  0.00  0.00    +0.000 A 
ATOM     19  C   UNL     1       7.729   5.038  13.001  0.00  0.00    +0.000 A 
ATOM     20  C   UNL     1       7.359   5.317  14.327  0.00  0.00    +0.000 A 
ENDBRANCH   5  15
BRANCH   4  21
ATOM     21  O   UNL     1       7.598   6.609  16.799  0.00  0.00    +0.000 OA
BRANCH  21  22
ATOM     22  C   UNL     1       7.514   8.009  17.107  0.00  0.00    +0.000 C 
BRANCH  22  23
ATOM     23  C   UNL     1       8.489   8.525  18.159  0.00  0.00    +0.000 C 
BRANCH  23  24
ATOM     24  C   UNL     1       8.330  10.056  18.189  0.00  0.00    +0.000 C 
BRANCH  24  25
ATOM     25  C   UNL     1       9.517  10.785  18.745  0.00  0.00    +0.000 A 
ATOM     26  C   UNL     1      10.561  11.181  17.900  0.00  0.00    +0.000 A 
ATOM     27  C   UNL     1      11.667  11.854  18.418  0.00  0.00    +0.000 A 
ATOM     28  C   UNL     1      11.736  12.136  19.781  0.00  0.00    +0.000 A 
ATOM     29  C   UNL     1      10.695  11.756  20.627  0.00  0.00    +0.000 A 
ATOM     30  C   UNL     1       9.588  11.083  20.111  0.00  0.00    +0.000 A 
ENDBRANCH  24  25
ENDBRANCH  23  24
ENDBRANCH  22  23
ENDBRANCH  21  22
ENDBRANCH   4  21
TORSDOF 7
ENDMDL
MODEL 7
REMARK VINA RESULT:      -8.6      1.048      1.604
REMARK  Name = 
REMARK  8 active torsions:
REMARK  status: ('A' for Active; 'I' for Inactive)
REMARK    1  A    between atoms: C_1  and  N_2
REMARK    2  A    between atoms: N_5  and  C_6
REMARK    3  A    between atoms: C_9  and  O_10
REMARK    4  A    between atoms: O_10  and  C_11
REMARK    5  A    between atoms: C_11  and  C_12
REMARK    6  A    between atoms: C_12  and  C_13
REMARK    7  A    between atoms: C_13  and  C_14
REMARK    8  A    between atoms: C_20  and  C_21
REMARK                            x       y       z     vdW  Elec       q    Type
REMARK                         _______ _______ _______ _____ _____    ______ ____
ROOT
ATOM      1  C   UNL     1       4.817   4.159  18.220  0.00  0.00    +0.000 A 
ATOM      2  C   UNL     1       5.408   5.113  19.030  0.00  0.00    +0.000 A 
ATOM      3  C   UNL     1       6.353   5.984  18.513  0.00  0.00    +0.000 A 
ATOM      4  C   UNL     1       6.760   5.945  17.159  0.00  0.00    +0.000 A 
ATOM      5  C   UNL     1       6.196   4.968  16.301  0.00  0.00    +0.000 A 
ATOM      6  C   UNL     1       5.214   4.105  16.874  0.00  0.00    +0.000 A 
ENDROOT
BRANCH   1  11
ATOM      7  C   UNL     1       1.674   3.141  20.601  0.00  0.00    +0.000 C 
ATOM      8  N   UNL     1       2.917   2.405  20.780  0.00  0.00    +0.000 NA
ATOM      9  C   UNL     1       3.864   2.591  19.926  0.00  0.00    +0.000 C 
ATOM     10  N   UNL     1       4.986   1.850  20.083  0.00  0.00    +0.000 N 
ATOM     11  N   UNL     1       3.821   3.354  18.799  0.00  0.00    +0.000 N 
ATOM     12  H   UNL     1       5.068   1.432  20.999  0.00  0.00    +0.000 HD
ATOM     13  H   UNL     1       5.845   2.180  19.673  0.00  0.00    +0.000 HD
ATOM     14  H   UNL     1       2.895   3.650  18.517  0.00  0.00    +0.000 HD
ENDBRANCH   1  11
BRANCH   5  15
ATOM     15  C   UNL     1       6.557   4.770  14.859  0.00  0.00    +0.000 A 
ATOM     16  C   UNL     1       5.848   3.853  14.047  0.00  0.00    +0.000 A 
ATOM     17  C   UNL     1       6.152   3.657  12.693  0.00  0.00    +0.000 A 
ATOM     18  C   UNL     1       7.191   4.366  12.106  0.00  0.00    +0.000 A 
ATOM     19  C   UNL     1       7.899   5.288  12.871  0.00  0.00    +0.000 A 
ATOM     20  C   UNL     1       7.578   5.493  14.223  0.00  0.00    +0.000 A 
ENDBRANCH   5  15
BRANCH   4  21
ATOM     21  O   UNL     1       7.709   6.844  16.677  0.00  0.00    +0.000 OA
BRANCH  21  22
ATOM     22  C   UNL     1       7.587   8.157  17.245  0.00  0.00    +0.000 C 
BRANCH  22  23
ATOM     23  C   UNL     1       8.671   8.563  18.236  0.00  0.00    +0.000 C 
BRANCH  23  24
ATOM     24  C   UNL     1       8.313   9.982  18.717  0.00  0.00    +0.000 C 
BRANCH  24  25
ATOM     25  C   UNL     1       9.276  11.041  18.268  0.00  0.00    +0.000 A 
ATOM     26  C   UNL     1       8.802  12.241  17.726  0.00  0.00    +0.000 A 
ATOM     27  C   UNL     1       9.697  13.225  17.304  0.00  0.00    +0.000 A 
ATOM     28  C   UNL     1      11.070  13.014  17.423  0.00  0.00    +0.000 A 
ATOM     29  C   UNL     1      11.550  11.827  17.973  0.00  0.00    +0.000 A 
ATOM     30  C   UNL     1      10.656  10.843  18.395  0.00  0.00    +0.000 A 
ENDBRANCH  24  25
ENDBRANCH  23  24
ENDBRANCH  22  23
ENDBRANCH  21  22
ENDBRANCH   4  21
TORSDOF 7
ENDMDL
MODEL 8
REMARK VINA RESULT:      -8.6      5.456      8.751
REMARK  Name = 
REMARK  8 active torsions:
REMARK  status: ('A' for Active; 'I' for Inactive)
REMARK    1  A    between atoms: C_1  and  N_2
REMARK    2  A    between atoms: N_5  and  C_6
REMARK    3  A    between atoms: C_9  and  O_10
REMARK    4  A    between atoms: O_10  and  C_11
REMARK    5  A    between atoms: C_11  and  C_12
REMARK    6  A    between atoms: C_12  and  C_13
REMARK    7  A    between atoms: C_13  and  C_14
REMARK    8  A    between atoms: C_20  and  C_21
REMARK                            x       y       z     vdW  Elec       q    Type
REMARK                         _______ _______ _______ _____ _____    ______ ____
ROOT
ATOM      1  C   UNL     1       4.480   6.383  16.674  0.00  0.00    +0.000 A 
ATOM      2  C   UNL     1       4.145   7.720  16.798  0.00  0.00    +0.000 A 
ATOM      3  C   UNL     1       3.252   8.131  17.774  0.00  0.00    +0.000 A 
ATOM      4  C   UNL     1       2.643   7.227  18.675  0.00  0.00    +0.000 A 
ATOM      5  C   UNL     1       2.942   5.846  18.567  0.00  0.00    +0.000 A 
ATOM      6  C   UNL     1       3.881   5.472  17.558  0.00  0.00    +0.000 A 
ENDROOT
BRANCH   1  11
ATOM      7  C   UNL     1       6.621   4.072  14.094  0.00  0.00    +0.000 C 
ATOM      8  N   UNL     1       7.355   4.759  15.145  0.00  0.00    +0.000 NA
ATOM      9  C   UNL     1       6.727   5.627  15.862  0.00  0.00    +0.000 C 
ATOM     10  N   UNL     1       7.448   6.292  16.794  0.00  0.00    +0.000 N 
ATOM     11  N   UNL     1       5.442   6.051  15.705  0.00  0.00    +0.000 N 
ATOM     12  H   UNL     1       8.330   5.851  17.011  0.00  0.00    +0.000 HD
ATOM     13  H   UNL     1       6.964   6.711  17.572  0.00  0.00    +0.000 HD
ATOM     14  H   UNL     1       5.010   5.793  14.827  0.00  0.00    +0.000 HD
ENDBRANCH   1  11
BRANCH   5  15
ATOM     15  C   UNL     1       2.345   4.762  19.414  0.00  0.00    +0.000 A 
ATOM     16  C   UNL     1       1.419   3.838  18.873  0.00  0.00    +0.000 A 
ATOM     17  C   UNL     1       0.855   2.805  19.636  0.00  0.00    +0.000 A 
ATOM     18  C   UNL     1       1.192   2.670  20.976  0.00  0.00    +0.000 A 
ATOM     19  C   UNL     1       2.111   3.552  21.537  0.00  0.00    +0.000 A 
ATOM     20  C   UNL     1       2.685   4.574  20.762  0.00  0.00    +0.000 A 
ENDBRANCH   5  15
BRANCH   4  21
ATOM     21  O   UNL     1       1.754   7.682  19.647  0.00  0.00    +0.000 OA
BRANCH  21  22
ATOM     22  C   UNL     1       1.447   9.079  19.525  0.00  0.00    +0.000 C 
BRANCH  22  23
ATOM     23  C   UNL     1       0.680   9.491  18.273  0.00  0.00    +0.000 C 
BRANCH  23  24
ATOM     24  C   UNL     1      -0.106  10.762  18.642  0.00  0.00    +0.000 C 
BRANCH  24  25
ATOM     25  C   UNL     1      -1.525  10.768  18.154  0.00  0.00    +0.000 A 
ATOM     26  C   UNL     1      -1.911   9.931  17.100  0.00  0.00    +0.000 A 
ATOM     27  C   UNL     1      -3.229   9.939  16.643  0.00  0.00    +0.000 A 
ATOM     28  C   UNL     1      -4.167  10.781  17.237  0.00  0.00    +0.000 A 
ATOM     29  C   UNL     1      -3.793  11.608  18.295  0.00  0.00    +0.000 A 
ATOM     30  C   UNL     1      -2.476  11.601  18.753  0.00  0.00    +0.000 A 
ENDBRANCH  24  25
ENDBRANCH  23  24
ENDBRANCH  22  23
ENDBRANCH  21  22
ENDBRANCH   4  21
TORSDOF 7
ENDMDL
MODEL 9
REMARK VINA RESULT:      -8.6      4.438      8.600
REMARK  Name = 
REMARK  8 active torsions:
REMARK  status: ('A' for Active; 'I' for Inactive)
REMARK    1  A    between atoms: C_1  and  N_2
REMARK    2  A    between atoms: N_5  and  C_6
REMARK    3  A    between atoms: C_9  and  O_10
REMARK    4  A    between atoms: O_10  and  C_11
REMARK    5  A    between atoms: C_11  and  C_12
REMARK    6  A    between atoms: C_12  and  C_13
REMARK    7  A    between atoms: C_13  and  C_14
REMARK    8  A    between atoms: C_20  and  C_21
REMARK                            x       y       z     vdW  Elec       q    Type
REMARK                         _______ _______ _______ _____ _____    ______ ____
ROOT
ATOM      1  C   UNL     1       4.777   6.084  17.292  0.00  0.00    +0.000 A 
ATOM      2  C   UNL     1       5.048   5.135  18.263  0.00  0.00    +0.000 A 
ATOM      3  C   UNL     1       4.322   5.112  19.443  0.00  0.00    +0.000 A 
ATOM      4  C   UNL     1       3.291   6.039  19.717  0.00  0.00    +0.000 A 
ATOM      5  C   UNL     1       2.996   7.042  18.760  0.00  0.00    +0.000 A 
ATOM      6  C   UNL     1       3.757   7.014  17.552  0.00  0.00    +0.000 A 
ENDROOT
BRANCH   1  11
ATOM      7  C   UNL     1       6.659   4.386  14.105  0.00  0.00    +0.000 C 
ATOM      8  N   UNL     1       7.459   5.217  14.992  0.00  0.00    +0.000 NA
ATOM      9  C   UNL     1       6.852   5.899  15.901  0.00  0.00    +0.000 C 
ATOM     10  N   UNL     1       7.615   6.708  16.675  0.00  0.00    +0.000 N 
ATOM     11  N   UNL     1       5.508   6.004  16.095  0.00  0.00    +0.000 N 
ATOM     12  H   UNL     1       8.601   6.489  16.636  0.00  0.00    +0.000 HD
ATOM     13  H   UNL     1       7.263   6.989  17.576  0.00  0.00    +0.000 HD
ATOM     14  H   UNL     1       4.938   5.660  15.334  0.00  0.00    +0.000 HD
ENDBRANCH   1  11
BRANCH   5  15
ATOM     15  C   UNL     1       1.967   8.120  18.923  0.00  0.00    +0.000 A 
ATOM     16  C   UNL     1       1.488   8.486  20.204  0.00  0.00    +0.000 A 
ATOM     17  C   UNL     1       0.538   9.500  20.389  0.00  0.00    +0.000 A 
ATOM     18  C   UNL     1       0.022  10.175  19.292  0.00  0.00    +0.000 A 
ATOM     19  C   UNL     1       0.481   9.851  18.019  0.00  0.00    +0.000 A 
ATOM     20  C   UNL     1       1.447   8.846  17.841  0.00  0.00    +0.000 A 
ENDBRANCH   5  15
BRANCH   4  21
ATOM     21  O   UNL     1       2.580   5.978  20.915  0.00  0.00    +0.000 OA
BRANCH  21  22
ATOM     22  C   UNL     1       1.486   5.049  20.878  0.00  0.00    +0.000 C 
BRANCH  22  23
ATOM     23  C   UNL     1       1.722   3.706  21.561  0.00  0.00    +0.000 C 
BRANCH  23  24
ATOM     24  C   UNL     1       1.185   2.628  20.602  0.00  0.00    +0.000 C 
BRANCH  24  25
ATOM     25  C   UNL     1       1.874   2.597  19.269  0.00  0.00    +0.000 A 
ATOM     26  C   UNL     1       2.974   1.756  19.064  0.00  0.00    +0.000 A 
ATOM     27  C   UNL     1       3.618   1.731  17.826  0.00  0.00    +0.000 A 
ATOM     28  C   UNL     1       3.163   2.542  16.788  0.00  0.00    +0.000 A 
ATOM     29  C   UNL     1       2.061   3.372  16.981  0.00  0.00    +0.000 A 
ATOM     30  C   UNL     1       1.417   3.400  18.218  0.00  0.00    +0.000 A 
ENDBRANCH  24  25
ENDBRANCH  23  24
ENDBRANCH  22  23
ENDBRANCH  21  22
ENDBRANCH   4  21
TORSDOF 7
ENDMDL
