MODEL 1
REMARK VINA RESULT:      -8.2      0.000      0.000
REMARK  Name = 
REMARK  9 active torsions:
REMARK  status: ('A' for Active; 'I' for Inactive)
REMARK    1  A    between atoms: C_1  and  S_2
REMARK    2  A    between atoms: S_2  and  C_5
REMARK    3  A    between atoms: C_5  and  C_6
REMARK    4  A    between atoms: C_5  and  C_15
REMARK    5  A    between atoms: N_8  and  C_9
REMARK    6  A    between atoms: C_9  and  C_10
REMARK    7  A    between atoms: C_10  and  S_11
REMARK    8  A    between atoms: S_11  and  N_12
REMARK    9  A    between atoms: C_20  and  C_21
REMARK                            x       y       z     vdW  Elec       q    Type
REMARK                         _______ _______ _______ _____ _____    ______ ____
ROOT
ATOM      1  C   UNL     1       3.474   4.479  19.052  0.00  0.00    +0.000 C 
ENDROOT
BRANCH   1   2
ATOM      2  C   UNL     1       2.839   5.837  19.154  0.00  0.00    +0.000 A 
ATOM      3  N   UNL     1       2.883   6.730  18.184  0.00  0.00    +0.000 NA
ATOM      4  C   UNL     1       2.255   7.904  18.574  0.00  0.00    +0.000 A 
ATOM      5  C   UNL     1       2.138   9.082  17.817  0.00  0.00    +0.000 A 
ATOM      6  C   UNL     1       1.474  10.193  18.363  0.00  0.00    +0.000 A 
ATOM      7  C   UNL     1       0.897  10.166  19.645  0.00  0.00    +0.000 A 
ATOM      8  C   UNL     1       1.017   8.982  20.393  0.00  0.00    +0.000 A 
ATOM      9  C   UNL     1       1.696   7.882  19.846  0.00  0.00    +0.000 A 
ATOM     10  S   UNL     1       1.975   6.354  20.555  0.00  0.00    +0.000 S 
BRANCH   7  11
ATOM     11  C   UNL     1       0.164  11.334  20.191  0.00  0.00    +0.000 A 
ATOM     12  C   UNL     1       0.827  12.353  20.907  0.00  0.00    +0.000 A 
ATOM     13  C   UNL     1       0.131  13.441  21.444  0.00  0.00    +0.000 A 
ATOM     14  C   UNL     1      -1.244  13.543  21.264  0.00  0.00    +0.000 A 
ATOM     15  C   UNL     1      -1.917  12.553  20.556  0.00  0.00    +0.000 A 
ATOM     16 CL   UNL     1      -3.617  12.675  20.322  0.00  0.00    +0.000 Cl
ATOM     17  C   UNL     1      -1.225  11.459  20.033  0.00  0.00    +0.000 A 
ENDBRANCH   7  11
ENDBRANCH   1   2
BRANCH   1  19
ATOM     18  C   UNL     1       2.848   1.860  18.244  0.00  0.00    +0.000 C 
ATOM     19  S   UNL     1       2.704   3.557  17.743  0.00  0.00    +0.000 S 
ATOM     20  O   UNL     1       3.501   3.688  16.531  0.00  0.00    +0.000 OA
ATOM     21  O   UNL     1       1.286   3.863  17.720  0.00  0.00    +0.000 OA
ENDBRANCH   1  19
BRANCH   1  22
ATOM     22  C   UNL     1       4.968   4.553  18.863  0.00  0.00    +0.000 C 
ATOM     23  O   UNL     1       5.731   3.879  19.555  0.00  0.00    +0.000 OA
ATOM     24  N   UNL     1       5.446   5.399  17.883  0.00  0.00    +0.000 N 
ATOM     25  H   UNL     1       4.780   5.794  17.215  0.00  0.00    +0.000 HD
BRANCH  24  26
ATOM     26  C   UNL     1       6.868   5.567  17.629  0.00  0.00    +0.000 C 
BRANCH  26  27
ATOM     27  C   UNL     1       7.355   4.580  16.589  0.00  0.00    +0.000 C 
BRANCH  27  28
ATOM     28  S   UNL     1       6.808   5.067  14.970  0.00  0.00    +0.000 S 
ATOM     29  O   UNL     1       5.604   5.858  15.079  0.00  0.00    +0.000 OA
ATOM     30  O   UNL     1       7.942   5.478  14.178  0.00  0.00    +0.000 OA
BRANCH  28  31
ATOM     31  N   UNL     1       6.324   3.593  14.337  0.00  0.00    +0.000 NA
ATOM     32  H   UNL     1       6.779   3.426  13.438  0.00  0.00    +0.000 HD
ATOM     33  H   UNL     1       6.476   2.846  15.018  0.00  0.00    +0.000 HD
ENDBRANCH  28  31
ENDBRANCH  27  28
ENDBRANCH  26  27
ENDBRANCH  24  26
ENDBRANCH   1  22
TORSDOF 8
ENDMDL
MODEL 2
REMARK VINA RESULT:      -8.2      2.165      2.593
REMARK  Name = 
REMARK  9 active torsions:
REMARK  status: ('A' for Active; 'I' for Inactive)
REMARK    1  A    between atoms: C_1  and  S_2
REMARK    2  A    between atoms: S_2  and  C_5
REMARK    3  A    between atoms: C_5  and  C_6
REMARK    4  A    between atoms: C_5  and  C_15
REMARK    5  A    between atoms: N_8  and  C_9
REMARK    6  A    between atoms: C_9  and  C_10
REMARK    7  A    between atoms: C_10  and  S_11
REMARK    8  A    between atoms: S_11  and  N_12
REMARK    9  A    between atoms: C_20  and  C_21
REMARK                            x       y       z     vdW  Elec       q    Type
REMARK                         _______ _______ _______ _____ _____    ______ ____
ROOT
ATOM      1  C   UNL     1       3.359   4.089  19.433  0.00  0.00    +0.000 C 
ENDROOT
BRANCH   1   2
ATOM      2  C   UNL     1       2.808   5.484  19.520  0.00  0.00    +0.000 A 
ATOM      3  N   UNL     1       2.159   5.941  20.574  0.00  0.00    +0.000 NA
ATOM      4  C   UNL     1       1.727   7.240  20.355  0.00  0.00    +0.000 A 
ATOM      5  C   UNL     1       0.976   8.033  21.239  0.00  0.00    +0.000 A 
ATOM      6  C   UNL     1       0.610   9.336  20.861  0.00  0.00    +0.000 A 
ATOM      7  C   UNL     1       0.987   9.892  19.626  0.00  0.00    +0.000 A 
ATOM      8  C   UNL     1       1.740   9.091  18.750  0.00  0.00    +0.000 A 
ATOM      9  C   UNL     1       2.088   7.785  19.129  0.00  0.00    +0.000 A 
ATOM     10  S   UNL     1       2.983   6.631  18.243  0.00  0.00    +0.000 S 
BRANCH   7  11
ATOM     11  C   UNL     1       0.627  11.282  19.258  0.00  0.00    +0.000 A 
ATOM     12  C   UNL     1      -0.718  11.707  19.202  0.00  0.00    +0.000 A 
ATOM     13  C   UNL     1      -1.057  13.012  18.830  0.00  0.00    +0.000 A 
ATOM     14  C   UNL     1      -0.058  13.928  18.519  0.00  0.00    +0.000 A 
ATOM     15  C   UNL     1       1.274  13.533  18.574  0.00  0.00    +0.000 A 
ATOM     16 CL   UNL     1       2.517  14.662  18.199  0.00  0.00    +0.000 Cl
ATOM     17  C   UNL     1       1.613  12.227  18.931  0.00  0.00    +0.000 A 
ENDBRANCH   7  11
ENDBRANCH   1   2
BRANCH   1  19
ATOM     18  C   UNL     1       1.076   2.806  20.457  0.00  0.00    +0.000 C 
ATOM     19  S   UNL     1       2.061   2.961  18.988  0.00  0.00    +0.000 S 
ATOM     20  O   UNL     1       2.632   1.643  18.745  0.00  0.00    +0.000 OA
ATOM     21  O   UNL     1       1.216   3.585  17.987  0.00  0.00    +0.000 OA
ENDBRANCH   1  19
BRANCH   1  22
ATOM     22  C   UNL     1       4.522   3.987  18.479  0.00  0.00    +0.000 C 
ATOM     23  O   UNL     1       5.682   4.097  18.877  0.00  0.00    +0.000 OA
ATOM     24  N   UNL     1       4.238   3.759  17.148  0.00  0.00    +0.000 N 
ATOM     25  H   UNL     1       3.285   3.491  16.893  0.00  0.00    +0.000 HD
BRANCH  24  26
ATOM     26  C   UNL     1       5.280   3.665  16.138  0.00  0.00    +0.000 C 
BRANCH  26  27
ATOM     27  C   UNL     1       5.559   5.017  15.517  0.00  0.00    +0.000 C 
BRANCH  27  28
ATOM     28  S   UNL     1       7.264   5.462  15.743  0.00  0.00    +0.000 S 
ATOM     29  O   UNL     1       7.971   5.339  14.489  0.00  0.00    +0.000 OA
ATOM     30  O   UNL     1       7.353   6.636  16.576  0.00  0.00    +0.000 OA
BRANCH  28  31
ATOM     31  N   UNL     1       7.805   4.191  16.693  0.00  0.00    +0.000 NA
ATOM     32  H   UNL     1       7.018   3.615  16.997  0.00  0.00    +0.000 HD
ATOM     33  H   UNL     1       8.531   3.665  16.202  0.00  0.00    +0.000 HD
ENDBRANCH  28  31
ENDBRANCH  27  28
ENDBRANCH  26  27
ENDBRANCH  24  26
ENDBRANCH   1  22
TORSDOF 8
ENDMDL
MODEL 3
REMARK VINA RESULT:      -8.1      1.641      1.711
REMARK  Name = 
REMARK  9 active torsions:
REMARK  status: ('A' for Active; 'I' for Inactive)
REMARK    1  A    between atoms: C_1  and  S_2
REMARK    2  A    between atoms: S_2  and  C_5
REMARK    3  A    between atoms: C_5  and  C_6
REMARK    4  A    between atoms: C_5  and  C_15
REMARK    5  A    between atoms: N_8  and  C_9
REMARK    6  A    between atoms: C_9  and  C_10
REMARK    7  A    between atoms: C_10  and  S_11
REMARK    8  A    between atoms: S_11  and  N_12
REMARK    9  A    between atoms: C_20  and  C_21
REMARK                            x       y       z     vdW  Elec       q    Type
REMARK                         _______ _______ _______ _____ _____    ______ ____
ROOT
ATOM      1  C   UNL     1       3.353   4.279  19.818  0.00  0.00    +0.000 C 
ENDROOT
BRANCH   1   2
ATOM      2  C   UNL     1       2.775   5.653  19.639  0.00  0.00    +0.000 A 
ATOM      3  N   UNL     1       2.931   6.365  18.539  0.00  0.00    +0.000 NA
ATOM      4  C   UNL     1       2.330   7.608  18.674  0.00  0.00    +0.000 A 
ATOM      5  C   UNL     1       2.323   8.642  17.722  0.00  0.00    +0.000 A 
ATOM      6  C   UNL     1       1.672   9.852  18.018  0.00  0.00    +0.000 A 
ATOM      7  C   UNL     1       1.003  10.064  19.237  0.00  0.00    +0.000 A 
ATOM      8  C   UNL     1       1.015   9.023  20.181  0.00  0.00    +0.000 A 
ATOM      9  C   UNL     1       1.681   7.824  19.883  0.00  0.00    +0.000 A 
ATOM     10  S   UNL     1       1.837   6.432  20.860  0.00  0.00    +0.000 S 
BRANCH   7  11
ATOM     11  C   UNL     1       0.287  11.332  19.519  0.00  0.00    +0.000 A 
ATOM     12  C   UNL     1       0.504  12.491  18.744  0.00  0.00    +0.000 A 
ATOM     13  C   UNL     1      -0.153  13.693  19.027  0.00  0.00    +0.000 A 
ATOM     14  C   UNL     1      -1.055  13.760  20.084  0.00  0.00    +0.000 A 
ATOM     15  C   UNL     1      -1.289  12.628  20.856  0.00  0.00    +0.000 A 
ATOM     16 CL   UNL     1      -2.408  12.699  22.160  0.00  0.00    +0.000 Cl
ATOM     17  C   UNL     1      -0.622  11.432  20.584  0.00  0.00    +0.000 A 
ENDBRANCH   7  11
ENDBRANCH   1   2
BRANCH   1  19
ATOM     18  C   UNL     1       1.567   2.751  21.363  0.00  0.00    +0.000 C 
ATOM     19  S   UNL     1       2.061   3.066  19.686  0.00  0.00    +0.000 S 
ATOM     20  O   UNL     1       2.622   1.818  19.190  0.00  0.00    +0.000 OA
ATOM     21  O   UNL     1       0.917   3.666  19.025  0.00  0.00    +0.000 OA
ENDBRANCH   1  19
BRANCH   1  22
ATOM     22  C   UNL     1       4.472   3.991  18.849  0.00  0.00    +0.000 C 
ATOM     23  O   UNL     1       5.638   3.900  19.232  0.00  0.00    +0.000 OA
ATOM     24  N   UNL     1       4.138   3.830  17.519  0.00  0.00    +0.000 N 
ATOM     25  H   UNL     1       3.151   3.730  17.274  0.00  0.00    +0.000 HD
BRANCH  24  26
ATOM     26  C   UNL     1       5.138   3.573  16.495  0.00  0.00    +0.000 C 
BRANCH  26  27
ATOM     27  C   UNL     1       5.427   4.822  15.691  0.00  0.00    +0.000 C 
BRANCH  27  28
ATOM     28  S   UNL     1       7.070   5.408  16.027  0.00  0.00    +0.000 S 
ATOM     29  O   UNL     1       7.017   6.775  16.490  0.00  0.00    +0.000 OA
ATOM     30  O   UNL     1       7.821   4.382  16.710  0.00  0.00    +0.000 OA
BRANCH  28  31
ATOM     31  N   UNL     1       7.709   5.481  14.479  0.00  0.00    +0.000 NA
ATOM     32  H   UNL     1       7.961   4.546  14.154  0.00  0.00    +0.000 HD
ATOM     33  H   UNL     1       7.068   5.973  13.853  0.00  0.00    +0.000 HD
ENDBRANCH  28  31
ENDBRANCH  27  28
ENDBRANCH  26  27
ENDBRANCH  24  26
ENDBRANCH   1  22
TORSDOF 8
ENDMDL
MODEL 4
REMARK VINA RESULT:      -8.1      1.687      1.960
REMARK  Name = 
REMARK  9 active torsions:
REMARK  status: ('A' for Active; 'I' for Inactive)
REMARK    1  A    between atoms: C_1  and  S_2
REMARK    2  A    between atoms: S_2  and  C_5
REMARK    3  A    between atoms: C_5  and  C_6
REMARK    4  A    between atoms: C_5  and  C_15
REMARK    5  A    between atoms: N_8  and  C_9
REMARK    6  A    between atoms: C_9  and  C_10
REMARK    7  A    between atoms: C_10  and  S_11
REMARK    8  A    between atoms: S_11  and  N_12
REMARK    9  A    between atoms: C_20  and  C_21
REMARK                            x       y       z     vdW  Elec       q    Type
REMARK                         _______ _______ _______ _____ _____    ______ ____
ROOT
ATOM      1  C   UNL     1       3.743   4.021  19.634  0.00  0.00    +0.000 C 
ENDROOT
BRANCH   1   2
ATOM      2  C   UNL     1       3.077   5.364  19.539  0.00  0.00    +0.000 A 
ATOM      3  N   UNL     1       3.158   6.138  18.473  0.00  0.00    +0.000 NA
ATOM      4  C   UNL     1       2.486   7.332  18.686  0.00  0.00    +0.000 A 
ATOM      5  C   UNL     1       2.389   8.409  17.789  0.00  0.00    +0.000 A 
ATOM      6  C   UNL     1       1.674   9.560  18.163  0.00  0.00    +0.000 A 
ATOM      7  C   UNL     1       1.028   9.670  19.407  0.00  0.00    +0.000 A 
ATOM      8  C   UNL     1       1.130   8.587  20.296  0.00  0.00    +0.000 A 
ATOM      9  C   UNL     1       1.859   7.447  19.921  0.00  0.00    +0.000 A 
ATOM     10  S   UNL     1       2.128   6.021  20.822  0.00  0.00    +0.000 S 
BRANCH   7  11
ATOM     11  C   UNL     1       0.244  10.875  19.771  0.00  0.00    +0.000 A 
ATOM     12  C   UNL     1      -0.035  11.888  18.829  0.00  0.00    +0.000 A 
ATOM     13  C   UNL     1      -0.752  13.036  19.180  0.00  0.00    +0.000 A 
ATOM     14  C   UNL     1      -1.222  13.191  20.480  0.00  0.00    +0.000 A 
ATOM     15  C   UNL     1      -0.965  12.202  21.423  0.00  0.00    +0.000 A 
ATOM     16 CL   UNL     1      -1.548  12.382  23.031  0.00  0.00    +0.000 Cl
ATOM     17  C   UNL     1      -0.236  11.063  21.077  0.00  0.00    +0.000 A 
ENDBRANCH   7  11
ENDBRANCH   1   2
BRANCH   1  19
ATOM     18  C   UNL     1       1.268   3.415  18.445  0.00  0.00    +0.000 C 
ATOM     19  S   UNL     1       2.520   2.739  19.507  0.00  0.00    +0.000 S 
ATOM     20  O   UNL     1       1.888   2.547  20.804  0.00  0.00    +0.000 OA
ATOM     21  O   UNL     1       3.094   1.608  18.801  0.00  0.00    +0.000 OA
ENDBRANCH   1  19
BRANCH   1  22
ATOM     22  C   UNL     1       4.831   3.842  18.605  0.00  0.00    +0.000 C 
ATOM     23  O   UNL     1       6.018   3.945  18.911  0.00  0.00    +0.000 OA
ATOM     24  N   UNL     1       4.445   3.553  17.312  0.00  0.00    +0.000 N 
ATOM     25  H   UNL     1       3.470   3.295  17.142  0.00  0.00    +0.000 HD
BRANCH  24  26
ATOM     26  C   UNL     1       5.407   3.383  16.235  0.00  0.00    +0.000 C 
BRANCH  26  27
ATOM     27  C   UNL     1       5.559   4.659  15.435  0.00  0.00    +0.000 C 
BRANCH  27  28
ATOM     28  S   UNL     1       7.129   5.418  15.774  0.00  0.00    +0.000 S 
ATOM     29  O   UNL     1       7.928   5.447  14.570  0.00  0.00    +0.000 OA
ATOM     30  O   UNL     1       6.936   6.579  16.609  0.00  0.00    +0.000 OA
BRANCH  28  31
ATOM     31  N   UNL     1       7.840   4.264  16.760  0.00  0.00    +0.000 NA
ATOM     32  H   UNL     1       7.538   4.389  17.727  0.00  0.00    +0.000 HD
ATOM     33  H   UNL     1       7.662   3.326  16.393  0.00  0.00    +0.000 HD
ENDBRANCH  28  31
ENDBRANCH  27  28
ENDBRANCH  26  27
ENDBRANCH  24  26
ENDBRANCH   1  22
TORSDOF 8
ENDMDL
MODEL 5
REMARK VINA RESULT:      -8.1      1.200      1.366
REMARK  Name = 
REMARK  9 active torsions:
REMARK  status: ('A' for Active; 'I' for Inactive)
REMARK    1  A    between atoms: C_1  and  S_2
REMARK    2  A    between atoms: S_2  and  C_5
REMARK    3  A    between atoms: C_5  and  C_6
REMARK    4  A    between atoms: C_5  and  C_15
REMARK    5  A    between atoms: N_8  and  C_9
REMARK    6  A    between atoms: C_9  and  C_10
REMARK    7  A    between atoms: C_10  and  S_11
REMARK    8  A    between atoms: S_11  and  N_12
REMARK    9  A    between atoms: C_20  and  C_21
REMARK                            x       y       z     vdW  Elec       q    Type
REMARK                         _______ _______ _______ _____ _____    ______ ____
ROOT
ATOM      1  C   UNL     1       3.238   4.237  19.229  0.00  0.00    +0.000 C 
ENDROOT
BRANCH   1   2
ATOM      2  C   UNL     1       2.703   5.640  19.232  0.00  0.00    +0.000 A 
ATOM      3  N   UNL     1       2.814   6.459  18.203  0.00  0.00    +0.000 NA
ATOM      4  C   UNL     1       2.272   7.698  18.506  0.00  0.00    +0.000 A 
ATOM      5  C   UNL     1       2.243   8.826  17.668  0.00  0.00    +0.000 A 
ATOM      6  C   UNL     1       1.660  10.018  18.131  0.00  0.00    +0.000 A 
ATOM      7  C   UNL     1       1.080  10.123  19.407  0.00  0.00    +0.000 A 
ATOM      8  C   UNL     1       1.112   8.988  20.236  0.00  0.00    +0.000 A 
ATOM      9  C   UNL     1       1.711   7.806  19.772  0.00  0.00    +0.000 A 
ATOM     10  S   UNL     1       1.876   6.314  20.587  0.00  0.00    +0.000 S 
BRANCH   7  11
ATOM     11  C   UNL     1       0.433  11.375  19.866  0.00  0.00    +0.000 A 
ATOM     12  C   UNL     1      -0.673  11.358  20.742  0.00  0.00    +0.000 A 
ATOM     13  C   UNL     1      -1.299  12.539  21.154  0.00  0.00    +0.000 A 
ATOM     14  C   UNL     1      -0.823  13.768  20.710  0.00  0.00    +0.000 A 
ATOM     15  C   UNL     1       0.270  13.810  19.852  0.00  0.00    +0.000 A 
ATOM     16 CL   UNL     1       0.871  15.326  19.304  0.00  0.00    +0.000 Cl
ATOM     17  C   UNL     1       0.886  12.630  19.428  0.00  0.00    +0.000 A 
ENDBRANCH   7  11
ENDBRANCH   1   2
BRANCH   1  19
ATOM     18  C   UNL     1       2.686   1.627  18.337  0.00  0.00    +0.000 C 
ATOM     19  S   UNL     1       2.537   3.333  17.869  0.00  0.00    +0.000 S 
ATOM     20  O   UNL     1       3.379   3.504  16.693  0.00  0.00    +0.000 OA
ATOM     21  O   UNL     1       1.116   3.619  17.795  0.00  0.00    +0.000 OA
ENDBRANCH   1  19
BRANCH   1  22
ATOM     22  C   UNL     1       4.744   4.193  19.194  0.00  0.00    +0.000 C 
ATOM     23  O   UNL     1       5.369   3.307  19.779  0.00  0.00    +0.000 OA
ATOM     24  N   UNL     1       5.395   5.178  18.480  0.00  0.00    +0.000 N 
ATOM     25  H   UNL     1       4.842   5.777  17.863  0.00  0.00    +0.000 HD
BRANCH  24  26
ATOM     26  C   UNL     1       6.845   5.246  18.398  0.00  0.00    +0.000 C 
BRANCH  26  27
ATOM     27  C   UNL     1       7.352   4.569  17.143  0.00  0.00    +0.000 C 
BRANCH  27  28
ATOM     28  S   UNL     1       6.749   5.411  15.699  0.00  0.00    +0.000 S 
ATOM     29  O   UNL     1       6.040   6.607  16.091  0.00  0.00    +0.000 OA
ATOM     30  O   UNL     1       7.766   5.408  14.675  0.00  0.00    +0.000 OA
BRANCH  28  31
ATOM     31  N   UNL     1       5.572   4.341  15.170  0.00  0.00    +0.000 NA
ATOM     32  H   UNL     1       6.001   3.474  14.843  0.00  0.00    +0.000 HD
ATOM     33  H   UNL     1       4.868   4.200  15.897  0.00  0.00    +0.000 HD
ENDBRANCH  28  31
ENDBRANCH  27  28
ENDBRANCH  26  27
ENDBRANCH  24  26
ENDBRANCH   1  22
TORSDOF 8
ENDMDL
MODEL 6
REMARK VINA RESULT:      -8.1      1.786      2.142
REMARK  Name = 
REMARK  9 active torsions:
REMARK  status: ('A' for Active; 'I' for Inactive)
REMARK    1  A    between atoms: C_1  and  S_2
REMARK    2  A    between atoms: S_2  and  C_5
REMARK    3  A    between atoms: C_5  and  C_6
REMARK    4  A    between atoms: C_5  and  C_15
REMARK    5  A    between atoms: N_8  and  C_9
REMARK    6  A    between atoms: C_9  and  C_10
REMARK    7  A    between atoms: C_10  and  S_11
REMARK    8  A    between atoms: S_11  and  N_12
REMARK    9  A    between atoms: C_20  and  C_21
REMARK                            x       y       z     vdW  Elec       q    Type
REMARK                         _______ _______ _______ _____ _____    ______ ____
ROOT
ATOM      1  C   UNL     1       3.566   3.677  19.141  0.00  0.00    +0.000 C 
ENDROOT
BRANCH   1   2
ATOM      2  C   UNL     1       2.903   4.993  19.429  0.00  0.00    +0.000 A 
ATOM      3  N   UNL     1       2.875   5.993  18.568  0.00  0.00    +0.000 NA
ATOM      4  C   UNL     1       2.239   7.094  19.120  0.00  0.00    +0.000 A 
ATOM      5  C   UNL     1       2.054   8.347  18.511  0.00  0.00    +0.000 A 
ATOM      6  C   UNL     1       1.391   9.368  19.213  0.00  0.00    +0.000 A 
ATOM      7  C   UNL     1       0.881   9.177  20.509  0.00  0.00    +0.000 A 
ATOM      8  C   UNL     1       1.069   7.919  21.109  0.00  0.00    +0.000 A 
ATOM      9  C   UNL     1       1.747   6.910  20.407  0.00  0.00    +0.000 A 
ATOM     10  S   UNL     1       2.099   5.320  20.920  0.00  0.00    +0.000 S 
BRANCH   7  11
ATOM     11  C   UNL     1       0.148  10.251  21.221  0.00  0.00    +0.000 A 
ATOM     12  C   UNL     1      -0.516  10.009  22.443  0.00  0.00    +0.000 A 
ATOM     13  C   UNL     1      -1.229  11.017  23.101  0.00  0.00    +0.000 A 
ATOM     14  C   UNL     1      -1.281  12.297  22.559  0.00  0.00    +0.000 A 
ATOM     15  C   UNL     1      -0.628  12.560  21.360  0.00  0.00    +0.000 A 
ATOM     16 CL   UNL     1      -0.681  14.142  20.687  0.00  0.00    +0.000 Cl
ATOM     17  C   UNL     1       0.070  11.551  20.695  0.00  0.00    +0.000 A 
ENDBRANCH   7  11
ENDBRANCH   1   2
BRANCH   1  19
ATOM     18  C   UNL     1       1.073   2.404  18.868  0.00  0.00    +0.000 C 
ATOM     19  S   UNL     1       2.578   2.750  17.991  0.00  0.00    +0.000 S 
ATOM     20  O   UNL     1       3.207   1.460  17.747  0.00  0.00    +0.000 OA
ATOM     21  O   UNL     1       2.219   3.609  16.878  0.00  0.00    +0.000 OA
ENDBRANCH   1  19
BRANCH   1  22
ATOM     22  C   UNL     1       4.978   3.839  18.639  0.00  0.00    +0.000 C 
ATOM     23  O   UNL     1       5.930   3.876  19.419  0.00  0.00    +0.000 OA
ATOM     24  N   UNL     1       5.164   3.938  17.275  0.00  0.00    +0.000 N 
ATOM     25  H   UNL     1       4.377   3.719  16.660  0.00  0.00    +0.000 HD
BRANCH  24  26
ATOM     26  C   UNL     1       6.479   4.120  16.682  0.00  0.00    +0.000 C 
BRANCH  26  27
ATOM     27  C   UNL     1       6.597   5.479  16.026  0.00  0.00    +0.000 C 
BRANCH  27  28
ATOM     28  S   UNL     1       6.867   6.737  17.252  0.00  0.00    +0.000 S 
ATOM     29  O   UNL     1       7.820   7.704  16.759  0.00  0.00    +0.000 OA
ATOM     30  O   UNL     1       5.606   7.117  17.843  0.00  0.00    +0.000 OA
BRANCH  28  31
ATOM     31  N   UNL     1       7.677   5.867  18.434  0.00  0.00    +0.000 NA
ATOM     32  H   UNL     1       8.138   6.501  19.088  0.00  0.00    +0.000 HD
ATOM     33  H   UNL     1       7.043   5.204  18.885  0.00  0.00    +0.000 HD
ENDBRANCH  28  31
ENDBRANCH  27  28
ENDBRANCH  26  27
ENDBRANCH  24  26
ENDBRANCH   1  22
TORSDOF 8
ENDMDL
MODEL 7
REMARK VINA RESULT:      -8.0      1.599      1.828
REMARK  Name = 
REMARK  9 active torsions:
REMARK  status: ('A' for Active; 'I' for Inactive)
REMARK    1  A    between atoms: C_1  and  S_2
REMARK    2  A    between atoms: S_2  and  C_5
REMARK    3  A    between atoms: C_5  and  C_6
REMARK    4  A    between atoms: C_5  and  C_15
REMARK    5  A    between atoms: N_8  and  C_9
REMARK    6  A    between atoms: C_9  and  C_10
REMARK    7  A    between atoms: C_10  and  S_11
REMARK    8  A    between atoms: S_11  and  N_12
REMARK    9  A    between atoms: C_20  and  C_21
REMARK                            x       y       z     vdW  Elec       q    Type
REMARK                         _______ _______ _______ _____ _____    ______ ____
ROOT
ATOM      1  C   UNL     1       3.185   4.359  19.494  0.00  0.00    +0.000 C 
ENDROOT
BRANCH   1   2
ATOM      2  C   UNL     1       2.629   5.753  19.449  0.00  0.00    +0.000 A 
ATOM      3  N   UNL     1       2.761   6.551  18.407  0.00  0.00    +0.000 NA
ATOM      4  C   UNL     1       2.189   7.788  18.664  0.00  0.00    +0.000 A 
ATOM      5  C   UNL     1       2.171   8.897  17.802  0.00  0.00    +0.000 A 
ATOM      6  C   UNL     1       1.553  10.089  18.219  0.00  0.00    +0.000 A 
ATOM      7  C   UNL     1       0.929  10.210  19.473  0.00  0.00    +0.000 A 
ATOM      8  C   UNL     1       0.951   9.094  20.327  0.00  0.00    +0.000 A 
ATOM      9  C   UNL     1       1.584   7.913  19.909  0.00  0.00    +0.000 A 
ATOM     10  S   UNL     1       1.745   6.442  20.762  0.00  0.00    +0.000 S 
BRANCH   7  11
ATOM     11  C   UNL     1       0.247  11.461  19.883  0.00  0.00    +0.000 A 
ATOM     12  C   UNL     1      -0.667  11.488  20.958  0.00  0.00    +0.000 A 
ATOM     13  C   UNL     1      -1.329  12.663  21.327  0.00  0.00    +0.000 A 
ATOM     14  C   UNL     1      -1.081  13.845  20.638  0.00  0.00    +0.000 A 
ATOM     15  C   UNL     1      -0.180  13.845  19.579  0.00  0.00    +0.000 A 
ATOM     16 CL   UNL     1       0.138  15.304  18.726  0.00  0.00    +0.000 Cl
ATOM     17  C   UNL     1       0.470  12.668  19.201  0.00  0.00    +0.000 A 
ENDBRANCH   7  11
ENDBRANCH   1   2
BRANCH   1  19
ATOM     18  C   UNL     1       2.724   1.644  18.924  0.00  0.00    +0.000 C 
ATOM     19  S   UNL     1       1.886   3.186  19.190  0.00  0.00    +0.000 S 
ATOM     20  O   UNL     1       1.230   3.511  17.931  0.00  0.00    +0.000 OA
ATOM     21  O   UNL     1       1.101   3.027  20.400  0.00  0.00    +0.000 OA
ENDBRANCH   1  19
BRANCH   1  22
ATOM     22  C   UNL     1       4.332   4.164  18.535  0.00  0.00    +0.000 C 
ATOM     23  O   UNL     1       5.483   4.006  18.943  0.00  0.00    +0.000 OA
ATOM     24  N   UNL     1       4.042   4.163  17.186  0.00  0.00    +0.000 N 
ATOM     25  H   UNL     1       3.062   4.112  16.899  0.00  0.00    +0.000 HD
BRANCH  24  26
ATOM     26  C   UNL     1       5.072   4.007  16.171  0.00  0.00    +0.000 C 
BRANCH  26  27
ATOM     27  C   UNL     1       5.512   5.350  15.631  0.00  0.00    +0.000 C 
BRANCH  27  28
ATOM     28  S   UNL     1       7.270   5.542  15.806  0.00  0.00    +0.000 S 
ATOM     29  O   UNL     1       7.913   5.343  14.528  0.00  0.00    +0.000 OA
ATOM     30  O   UNL     1       7.553   6.675  16.653  0.00  0.00    +0.000 OA
BRANCH  28  31
ATOM     31  N   UNL     1       7.652   4.188  16.719  0.00  0.00    +0.000 NA
ATOM     32  H   UNL     1       8.311   3.594  16.213  0.00  0.00    +0.000 HD
ATOM     33  H   UNL     1       7.981   4.466  17.646  0.00  0.00    +0.000 HD
ENDBRANCH  28  31
ENDBRANCH  27  28
ENDBRANCH  26  27
ENDBRANCH  24  26
ENDBRANCH   1  22
TORSDOF 8
ENDMDL
MODEL 8
REMARK VINA RESULT:      -7.8      1.582      1.802
REMARK  Name = 
REMARK  9 active torsions:
REMARK  status: ('A' for Active; 'I' for Inactive)
REMARK    1  A    between atoms: C_1  and  S_2
REMARK    2  A    between atoms: S_2  and  C_5
REMARK    3  A    between atoms: C_5  and  C_6
REMARK    4  A    between atoms: C_5  and  C_15
REMARK    5  A    between atoms: N_8  and  C_9
REMARK    6  A    between atoms: C_9  and  C_10
REMARK    7  A    between atoms: C_10  and  S_11
REMARK    8  A    between atoms: S_11  and  N_12
REMARK    9  A    between atoms: C_20  and  C_21
REMARK                            x       y       z     vdW  Elec       q    Type
REMARK                         _______ _______ _______ _____ _____    ______ ____
ROOT
ATOM      1  C   UNL     1       3.324   4.225  19.901  0.00  0.00    +0.000 C 
ENDROOT
BRANCH   1   2
ATOM      2  C   UNL     1       2.788   5.607  19.659  0.00  0.00    +0.000 A 
ATOM      3  N   UNL     1       3.017   6.288  18.553  0.00  0.00    +0.000 NA
ATOM      4  C   UNL     1       2.439   7.547  18.627  0.00  0.00    +0.000 A 
ATOM      5  C   UNL     1       2.505   8.556  17.652  0.00  0.00    +0.000 A 
ATOM      6  C   UNL     1       1.869   9.787  17.885  0.00  0.00    +0.000 A 
ATOM      7  C   UNL     1       1.142  10.045  19.061  0.00  0.00    +0.000 A 
ATOM      8  C   UNL     1       1.081   9.027  20.029  0.00  0.00    +0.000 A 
ATOM      9  C   UNL     1       1.733   7.806  19.795  0.00  0.00    +0.000 A 
ATOM     10  S   UNL     1       1.806   6.435  20.811  0.00  0.00    +0.000 S 
BRANCH   7  11
ATOM     11  C   UNL     1       0.443  11.334  19.275  0.00  0.00    +0.000 A 
ATOM     12  C   UNL     1       0.991  12.556  18.832  0.00  0.00    +0.000 A 
ATOM     13  C   UNL     1       0.342  13.774  19.057  0.00  0.00    +0.000 A 
ATOM     14  C   UNL     1      -0.880  13.798  19.719  0.00  0.00    +0.000 A 
ATOM     15  C   UNL     1      -1.444  12.605  20.159  0.00  0.00    +0.000 A 
ATOM     16 CL   UNL     1      -2.959  12.623  20.972  0.00  0.00    +0.000 Cl
ATOM     17  C   UNL     1      -0.789  11.390  19.948  0.00  0.00    +0.000 A 
ENDBRANCH   7  11
ENDBRANCH   1   2
BRANCH   1  19
ATOM     18  C   UNL     1       1.433   2.715  21.335  0.00  0.00    +0.000 C 
ATOM     19  S   UNL     1       2.021   3.034  19.690  0.00  0.00    +0.000 S 
ATOM     20  O   UNL     1       2.589   1.781  19.214  0.00  0.00    +0.000 OA
ATOM     21  O   UNL     1       0.925   3.658  18.973  0.00  0.00    +0.000 OA
ENDBRANCH   1  19
BRANCH   1  22
ATOM     22  C   UNL     1       4.506   3.902  19.022  0.00  0.00    +0.000 C 
ATOM     23  O   UNL     1       5.634   3.768  19.497  0.00  0.00    +0.000 OA
ATOM     24  N   UNL     1       4.274   3.756  17.670  0.00  0.00    +0.000 N 
ATOM     25  H   UNL     1       3.307   3.691  17.346  0.00  0.00    +0.000 HD
BRANCH  24  26
ATOM     26  C   UNL     1       5.343   3.467  16.727  0.00  0.00    +0.000 C 
BRANCH  26  27
ATOM     27  C   UNL     1       5.198   4.297  15.470  0.00  0.00    +0.000 C 
BRANCH  27  28
ATOM     28  S   UNL     1       6.048   5.847  15.651  0.00  0.00    +0.000 S 
ATOM     29  O   UNL     1       7.430   5.696  15.258  0.00  0.00    +0.000 OA
ATOM     30  O   UNL     1       5.212   6.918  15.164  0.00  0.00    +0.000 OA
BRANCH  28  31
ATOM     31  N   UNL     1       6.068   6.011  17.319  0.00  0.00    +0.000 NA
ATOM     32  H   UNL     1       6.087   5.093  17.765  0.00  0.00    +0.000 HD
ATOM     33  H   UNL     1       6.835   6.622  17.607  0.00  0.00    +0.000 HD
ENDBRANCH  28  31
ENDBRANCH  27  28
ENDBRANCH  26  27
ENDBRANCH  24  26
ENDBRANCH   1  22
TORSDOF 8
ENDMDL
MODEL 9
REMARK VINA RESULT:      -7.8      1.214      1.410
REMARK  Name = 
REMARK  9 active torsions:
REMARK  status: ('A' for Active; 'I' for Inactive)
REMARK    1  A    between atoms: C_1  and  S_2
REMARK    2  A    between atoms: S_2  and  C_5
REMARK    3  A    between atoms: C_5  and  C_6
REMARK    4  A    between atoms: C_5  and  C_15
REMARK    5  A    between atoms: N_8  and  C_9
REMARK    6  A    between atoms: C_9  and  C_10
REMARK    7  A    between atoms: C_10  and  S_11
REMARK    8  A    between atoms: S_11  and  N_12
REMARK    9  A    between atoms: C_20  and  C_21
REMARK                            x       y       z     vdW  Elec       q    Type
REMARK                         _______ _______ _______ _____ _____    ______ ____
ROOT
ATOM      1  C   UNL     1       3.576   4.715  19.423  0.00  0.00    +0.000 C 
ENDROOT
BRANCH   1   2
ATOM      2  C   UNL     1       2.885   6.048  19.390  0.00  0.00    +0.000 A 
ATOM      3  N   UNL     1       2.936   6.863  18.354  0.00  0.00    +0.000 NA
ATOM      4  C   UNL     1       2.247   8.036  18.623  0.00  0.00    +0.000 A 
ATOM      5  C   UNL     1       2.117   9.145  17.770  0.00  0.00    +0.000 A 
ATOM      6  C   UNL     1       1.388  10.267  18.197  0.00  0.00    +0.000 A 
ATOM      7  C   UNL     1       0.757  10.317  19.453  0.00  0.00    +0.000 A 
ATOM      8  C   UNL     1       0.891   9.202  20.298  0.00  0.00    +0.000 A 
ATOM      9  C   UNL     1       1.635   8.091  19.869  0.00  0.00    +0.000 A 
ATOM     10  S   UNL     1       1.942   6.637  20.710  0.00  0.00    +0.000 S 
BRANCH   7  11
ATOM     11  C   UNL     1      -0.043  11.492  19.874  0.00  0.00    +0.000 A 
ATOM     12  C   UNL     1      -1.023  11.396  20.885  0.00  0.00    +0.000 A 
ATOM     13  C   UNL     1      -1.795  12.499  21.263  0.00  0.00    +0.000 A 
ATOM     14  C   UNL     1      -1.595  13.730  20.649  0.00  0.00    +0.000 A 
ATOM     15  C   UNL     1      -0.630  13.850  19.654  0.00  0.00    +0.000 A 
ATOM     16 CL   UNL     1      -0.370  15.371  18.894  0.00  0.00    +0.000 Cl
ATOM     17  C   UNL     1       0.130  12.746  19.266  0.00  0.00    +0.000 A 
ENDBRANCH   7  11
ENDBRANCH   1   2
BRANCH   1  19
ATOM     18  C   UNL     1       3.352   1.981  18.801  0.00  0.00    +0.000 C 
ATOM     19  S   UNL     1       2.742   3.583  18.337  0.00  0.00    +0.000 S 
ATOM     20  O   UNL     1       3.194   3.806  16.971  0.00  0.00    +0.000 OA
ATOM     21  O   UNL     1       1.324   3.590  18.646  0.00  0.00    +0.000 OA
ENDBRANCH   1  19
BRANCH   1  22
ATOM     22  C   UNL     1       5.042   4.815  19.086  0.00  0.00    +0.000 C 
ATOM     23  O   UNL     1       5.904   4.417  19.869  0.00  0.00    +0.000 OA
ATOM     24  N   UNL     1       5.379   5.365  17.866  0.00  0.00    +0.000 N 
ATOM     25  H   UNL     1       4.638   5.509  17.176  0.00  0.00    +0.000 HD
BRANCH  24  26
ATOM     26  C   UNL     1       6.761   5.532  17.446  0.00  0.00    +0.000 C 
BRANCH  26  27
ATOM     27  C   UNL     1       7.152   4.481  16.429  0.00  0.00    +0.000 C 
BRANCH  27  28
ATOM     28  S   UNL     1       6.513   4.904  14.826  0.00  0.00    +0.000 S 
ATOM     29  O   UNL     1       6.147   3.701  14.113  0.00  0.00    +0.000 OA
ATOM     30  O   UNL     1       5.631   6.041  14.939  0.00  0.00    +0.000 OA
BRANCH  28  31
ATOM     31  N   UNL     1       7.894   5.475  14.068  0.00  0.00    +0.000 NA
ATOM     32  H   UNL     1       7.651   5.944  13.194  0.00  0.00    +0.000 HD
ATOM     33  H   UNL     1       8.436   6.059  14.709  0.00  0.00    +0.000 HD
ENDBRANCH  28  31
ENDBRANCH  27  28
ENDBRANCH  26  27
ENDBRANCH  24  26
ENDBRANCH   1  22
TORSDOF 8
ENDMDL
