MODEL 1
REMARK VINA RESULT:      -6.6      0.000      0.000
REMARK  Name = 
REMARK  12 active torsions:
REMARK  status: ('A' for Active; 'I' for Inactive)
REMARK    1  A    between atoms: C_1  and  O_2
REMARK    2  A    between atoms: O_2  and  C_3
REMARK    3  A    between atoms: C_7  and  O_8
REMARK    4  A    between atoms: O_8  and  C_9
REMARK    5  A    between atoms: C_9  and  C_10
REMARK    6  A    between atoms: C_10  and  O_11
REMARK    7  A    between atoms: O_11  and  C_12
REMARK    8  A    between atoms: C_12  and  C_13
REMARK    9  A    between atoms: C_13  and  O_14
REMARK   10  A    between atoms: O_14  and  C_15
REMARK   11  A    between atoms: C_18  and  C_19
REMARK   12  A    between atoms: C_21  and  N_22
REMARK                            x       y       z     vdW  Elec       q    Type
REMARK                         _______ _______ _______ _____ _____    ______ ____
ROOT
ATOM      1  C   UNL     1       2.651   3.519  18.237  0.00  0.00    +0.000 C 
ENDROOT
BRANCH   1   2
ATOM      2  O   UNL     1       2.182   3.198  19.553  0.00  0.00    +0.000 OA
BRANCH   2   3
ATOM      3  C   UNL     1       1.215   4.085  20.125  0.00  0.00    +0.000 C 
BRANCH   3   4
ATOM      4  C   UNL     1       1.858   5.229  20.903  0.00  0.00    +0.000 C 
BRANCH   4   5
ATOM      5  O   UNL     1       2.758   5.957  20.071  0.00  0.00    +0.000 OA
BRANCH   5  10
ATOM      6  C   UNL     1       1.125   9.289  19.806  0.00  0.00    +0.000 A 
ATOM      7  C   UNL     1       1.452   9.574  18.483  0.00  0.00    +0.000 A 
ATOM      8  C   UNL     1       2.193   8.666  17.724  0.00  0.00    +0.000 A 
ATOM      9  C   UNL     1       2.606   7.464  18.292  0.00  0.00    +0.000 A 
ATOM     10  C   UNL     1       2.293   7.167  19.620  0.00  0.00    +0.000 A 
ATOM     11  C   UNL     1       1.553   8.088  20.374  0.00  0.00    +0.000 A 
BRANCH   6  13
ATOM     12  C   UNL     1      -0.112  11.322  19.640  0.00  0.00    +0.000 C 
ATOM     13  O   UNL     1       0.382  10.252  20.438  0.00  0.00    +0.000 OA
ENDBRANCH   6  13
ENDBRANCH   5  10
ENDBRANCH   4   5
ENDBRANCH   3   4
ENDBRANCH   2   3
ENDBRANCH   1   2
BRANCH   1  14
ATOM     14  C   UNL     1       4.097   3.103  17.972  0.00  0.00    +0.000 C 
BRANCH  14  15
ATOM     15  O   UNL     1       4.906   4.279  17.855  0.00  0.00    +0.000 OA
BRANCH  15  16
ATOM     16  C   UNL     1       5.554   4.420  16.660  0.00  0.00    +0.000 A 
ATOM     17  C   UNL     1       4.950   4.110  15.439  0.00  0.00    +0.000 A 
ATOM     18  C   UNL     1       5.636   4.295  14.236  0.00  0.00    +0.000 A 
ATOM     19  C   UNL     1       6.933   4.820  14.222  0.00  0.00    +0.000 A 
ATOM     20  C   UNL     1       7.662   5.003  12.924  0.00  0.00    +0.000 C 
ATOM     21  C   UNL     1       7.529   5.187  15.433  0.00  0.00    +0.000 A 
ATOM     22  C   UNL     1       6.833   4.980  16.634  0.00  0.00    +0.000 A 
BRANCH  22  23
ATOM     23  N   UNL     1       7.498   5.342  17.869  0.00  0.00    +0.000 N 
ATOM     24  O   UNL     1       7.414   6.522  18.240  0.00  0.00    +0.000 OA
ATOM     25  O   UNL     1       8.039   4.423  18.507  0.00  0.00    +0.000 OA
ENDBRANCH  22  23
ENDBRANCH  15  16
ENDBRANCH  14  15
ENDBRANCH   1  14
TORSDOF 10
ENDMDL
MODEL 2
REMARK VINA RESULT:      -6.6      5.391      7.643
REMARK  Name = 
REMARK  12 active torsions:
REMARK  status: ('A' for Active; 'I' for Inactive)
REMARK    1  A    between atoms: C_1  and  O_2
REMARK    2  A    between atoms: O_2  and  C_3
REMARK    3  A    between atoms: C_7  and  O_8
REMARK    4  A    between atoms: O_8  and  C_9
REMARK    5  A    between atoms: C_9  and  C_10
REMARK    6  A    between atoms: C_10  and  O_11
REMARK    7  A    between atoms: O_11  and  C_12
REMARK    8  A    between atoms: C_12  and  C_13
REMARK    9  A    between atoms: C_13  and  O_14
REMARK   10  A    between atoms: O_14  and  C_15
REMARK   11  A    between atoms: C_18  and  C_19
REMARK   12  A    between atoms: C_21  and  N_22
REMARK                            x       y       z     vdW  Elec       q    Type
REMARK                         _______ _______ _______ _____ _____    ______ ____
ROOT
ATOM      1  C   UNL     1       7.158   5.850  17.098  0.00  0.00    +0.000 C 
ENDROOT
BRANCH   1   2
ATOM      2  O   UNL     1       7.692   6.841  17.986  0.00  0.00    +0.000 OA
BRANCH   2   3
ATOM      3  C   UNL     1       7.673   8.196  17.524  0.00  0.00    +0.000 C 
BRANCH   3   4
ATOM      4  C   UNL     1       8.474   9.132  18.423  0.00  0.00    +0.000 C 
BRANCH   4   5
ATOM      5  O   UNL     1       8.686  10.386  17.780  0.00  0.00    +0.000 OA
BRANCH   5  10
ATOM      6  C   UNL     1      11.066  13.129  18.587  0.00  0.00    +0.000 A 
ATOM      7  C   UNL     1      11.289  12.821  19.926  0.00  0.00    +0.000 A 
ATOM      8  C   UNL     1      10.655  11.726  20.517  0.00  0.00    +0.000 A 
ATOM      9  C   UNL     1       9.795  10.933  19.761  0.00  0.00    +0.000 A 
ATOM     10  C   UNL     1       9.555  11.234  18.419  0.00  0.00    +0.000 A 
ATOM     11  C   UNL     1      10.193  12.338  17.837  0.00  0.00    +0.000 A 
BRANCH   6  13
ATOM     12  C   UNL     1      11.242  14.874  16.969  0.00  0.00    +0.000 C 
ATOM     13  O   UNL     1      11.759  14.216  18.120  0.00  0.00    +0.000 OA
ENDBRANCH   6  13
ENDBRANCH   5  10
ENDBRANCH   4   5
ENDBRANCH   3   4
ENDBRANCH   2   3
ENDBRANCH   1   2
BRANCH   1  14
ATOM     14  C   UNL     1       5.728   6.130  16.638  0.00  0.00    +0.000 C 
BRANCH  14  15
ATOM     15  O   UNL     1       4.893   6.297  17.789  0.00  0.00    +0.000 OA
BRANCH  15  16
ATOM     16  C   UNL     1       3.939   5.332  17.958  0.00  0.00    +0.000 A 
ATOM     17  C   UNL     1       4.183   3.982  17.695  0.00  0.00    +0.000 A 
ATOM     18  C   UNL     1       3.190   3.022  17.906  0.00  0.00    +0.000 A 
ATOM     19  C   UNL     1       1.938   3.385  18.413  0.00  0.00    +0.000 A 
ATOM     20  C   UNL     1       0.877   2.346  18.625  0.00  0.00    +0.000 C 
ATOM     21  C   UNL     1       1.697   4.725  18.734  0.00  0.00    +0.000 A 
ATOM     22  C   UNL     1       2.699   5.679  18.500  0.00  0.00    +0.000 A 
BRANCH  22  23
ATOM     23  N   UNL     1       2.400   7.061  18.814  0.00  0.00    +0.000 N 
ATOM     24  O   UNL     1       2.209   7.836  17.864  0.00  0.00    +0.000 OA
ATOM     25  O   UNL     1       2.280   7.352  20.015  0.00  0.00    +0.000 OA
ENDBRANCH  22  23
ENDBRANCH  15  16
ENDBRANCH  14  15
ENDBRANCH   1  14
TORSDOF 10
ENDMDL
MODEL 3
REMARK VINA RESULT:      -6.5      2.493      7.253
REMARK  Name = 
REMARK  12 active torsions:
REMARK  status: ('A' for Active; 'I' for Inactive)
REMARK    1  A    between atoms: C_1  and  O_2
REMARK    2  A    between atoms: O_2  and  C_3
REMARK    3  A    between atoms: C_7  and  O_8
REMARK    4  A    between atoms: O_8  and  C_9
REMARK    5  A    between atoms: C_9  and  C_10
REMARK    6  A    between atoms: C_10  and  O_11
REMARK    7  A    between atoms: O_11  and  C_12
REMARK    8  A    between atoms: C_12  and  C_13
REMARK    9  A    between atoms: C_13  and  O_14
REMARK   10  A    between atoms: O_14  and  C_15
REMARK   11  A    between atoms: C_18  and  C_19
REMARK   12  A    between atoms: C_21  and  N_22
REMARK                            x       y       z     vdW  Elec       q    Type
REMARK                         _______ _______ _______ _____ _____    ______ ____
ROOT
ATOM      1  C   UNL     1       1.881   5.499  20.593  0.00  0.00    +0.000 C 
ENDROOT
BRANCH   1   2
ATOM      2  O   UNL     1       1.298   4.435  19.827  0.00  0.00    +0.000 OA
BRANCH   2   3
ATOM      3  C   UNL     1       1.880   4.171  18.546  0.00  0.00    +0.000 C 
BRANCH   3   4
ATOM      4  C   UNL     1       2.989   3.126  18.613  0.00  0.00    +0.000 C 
BRANCH   4   5
ATOM      5  O   UNL     1       4.241   3.742  18.904  0.00  0.00    +0.000 OA
BRANCH   5  10
ATOM      6  C   UNL     1       6.016   6.259  16.817  0.00  0.00    +0.000 A 
ATOM      7  C   UNL     1       5.921   5.612  15.588  0.00  0.00    +0.000 A 
ATOM      8  C   UNL     1       5.279   4.376  15.485  0.00  0.00    +0.000 A 
ATOM      9  C   UNL     1       4.725   3.787  16.619  0.00  0.00    +0.000 A 
ATOM     10  C   UNL     1       4.819   4.421  17.860  0.00  0.00    +0.000 A 
ATOM     11  C   UNL     1       5.470   5.658  17.953  0.00  0.00    +0.000 A 
BRANCH   6  13
ATOM     12  C   UNL     1       7.759   7.651  17.663  0.00  0.00    +0.000 C 
ATOM     13  O   UNL     1       6.655   7.472  16.783  0.00  0.00    +0.000 OA
ENDBRANCH   6  13
ENDBRANCH   5  10
ENDBRANCH   4   5
ENDBRANCH   3   4
ENDBRANCH   2   3
ENDBRANCH   1   2
BRANCH   1  14
ATOM     14  C   UNL     1       2.253   6.730  19.768  0.00  0.00    +0.000 C 
BRANCH  14  15
ATOM     15  O   UNL     1       1.996   7.905  20.545  0.00  0.00    +0.000 OA
BRANCH  15  16
ATOM     16  C   UNL     1       1.222   8.849  19.931  0.00  0.00    +0.000 A 
ATOM     17  C   UNL     1       1.349   9.155  18.573  0.00  0.00    +0.000 A 
ATOM     18  C   UNL     1       0.520  10.107  17.975  0.00  0.00    +0.000 A 
ATOM     19  C   UNL     1      -0.476  10.756  18.712  0.00  0.00    +0.000 A 
ATOM     20  C   UNL     1      -1.352  11.784  18.059  0.00  0.00    +0.000 C 
ATOM     21  C   UNL     1      -0.651  10.420  20.059  0.00  0.00    +0.000 A 
ATOM     22  C   UNL     1       0.200   9.475  20.649  0.00  0.00    +0.000 A 
BRANCH  22  23
ATOM     23  N   UNL     1       0.008   9.178  22.054  0.00  0.00    +0.000 N 
ATOM     24  O   UNL     1      -0.799   8.283  22.345  0.00  0.00    +0.000 OA
ATOM     25  O   UNL     1       0.725   9.792  22.861  0.00  0.00    +0.000 OA
ENDBRANCH  22  23
ENDBRANCH  15  16
ENDBRANCH  14  15
ENDBRANCH   1  14
TORSDOF 10
ENDMDL
MODEL 4
REMARK VINA RESULT:      -6.4      2.568      4.538
REMARK  Name = 
REMARK  12 active torsions:
REMARK  status: ('A' for Active; 'I' for Inactive)
REMARK    1  A    between atoms: C_1  and  O_2
REMARK    2  A    between atoms: O_2  and  C_3
REMARK    3  A    between atoms: C_7  and  O_8
REMARK    4  A    between atoms: O_8  and  C_9
REMARK    5  A    between atoms: C_9  and  C_10
REMARK    6  A    between atoms: C_10  and  O_11
REMARK    7  A    between atoms: O_11  and  C_12
REMARK    8  A    between atoms: C_12  and  C_13
REMARK    9  A    between atoms: C_13  and  O_14
REMARK   10  A    between atoms: O_14  and  C_15
REMARK   11  A    between atoms: C_18  and  C_19
REMARK   12  A    between atoms: C_21  and  N_22
REMARK                            x       y       z     vdW  Elec       q    Type
REMARK                         _______ _______ _______ _____ _____    ______ ____
ROOT
ATOM      1  C   UNL     1       1.957   7.762  19.693  0.00  0.00    +0.000 C 
ENDROOT
BRANCH   1   2
ATOM      2  O   UNL     1       1.738   8.335  20.989  0.00  0.00    +0.000 OA
BRANCH   2   3
ATOM      3  C   UNL     1       0.378   8.572  21.367  0.00  0.00    +0.000 C 
BRANCH   3   4
ATOM      4  C   UNL     1       0.012  10.052  21.341  0.00  0.00    +0.000 C 
BRANCH   4   5
ATOM      5  O   UNL     1       0.297  10.617  20.063  0.00  0.00    +0.000 OA
BRANCH   5  10
ATOM      6  C   UNL     1      -2.135  10.322  17.264  0.00  0.00    +0.000 A 
ATOM      7  C   UNL     1      -3.075  11.248  17.709  0.00  0.00    +0.000 A 
ATOM      8  C   UNL     1      -2.879  11.937  18.908  0.00  0.00    +0.000 A 
ATOM      9  C   UNL     1      -1.733  11.700  19.663  0.00  0.00    +0.000 A 
ATOM     10  C   UNL     1      -0.786  10.769  19.234  0.00  0.00    +0.000 A 
ATOM     11  C   UNL     1      -0.995  10.079  18.032  0.00  0.00    +0.000 A 
BRANCH   6  13
ATOM     12  C   UNL     1      -3.050  10.534  15.071  0.00  0.00    +0.000 C 
ATOM     13  O   UNL     1      -2.434   9.725  16.066  0.00  0.00    +0.000 OA
ENDBRANCH   6  13
ENDBRANCH   5  10
ENDBRANCH   4   5
ENDBRANCH   3   4
ENDBRANCH   2   3
ENDBRANCH   1   2
BRANCH   1  14
ATOM     14  C   UNL     1       2.704   6.430  19.718  0.00  0.00    +0.000 C 
BRANCH  14  15
ATOM     15  O   UNL     1       2.394   5.700  18.526  0.00  0.00    +0.000 OA
BRANCH  15  16
ATOM     16  C   UNL     1       3.436   5.543  17.655  0.00  0.00    +0.000 A 
ATOM     17  C   UNL     1       4.179   6.623  17.172  0.00  0.00    +0.000 A 
ATOM     18  C   UNL     1       5.255   6.419  16.305  0.00  0.00    +0.000 A 
ATOM     19  C   UNL     1       5.633   5.128  15.922  0.00  0.00    +0.000 A 
ATOM     20  C   UNL     1       6.784   4.924  14.981  0.00  0.00    +0.000 C 
ATOM     21  C   UNL     1       4.934   4.033  16.441  0.00  0.00    +0.000 A 
ATOM     22  C   UNL     1       3.845   4.256  17.298  0.00  0.00    +0.000 A 
BRANCH  22  23
ATOM     23  N   UNL     1       3.126   3.098  17.788  0.00  0.00    +0.000 N 
ATOM     24  O   UNL     1       3.522   2.583  18.844  0.00  0.00    +0.000 OA
ATOM     25  O   UNL     1       2.115   2.753  17.154  0.00  0.00    +0.000 OA
ENDBRANCH  22  23
ENDBRANCH  15  16
ENDBRANCH  14  15
ENDBRANCH   1  14
TORSDOF 10
ENDMDL
MODEL 5
REMARK VINA RESULT:      -6.4      2.922      4.799
REMARK  Name = 
REMARK  12 active torsions:
REMARK  status: ('A' for Active; 'I' for Inactive)
REMARK    1  A    between atoms: C_1  and  O_2
REMARK    2  A    between atoms: O_2  and  C_3
REMARK    3  A    between atoms: C_7  and  O_8
REMARK    4  A    between atoms: O_8  and  C_9
REMARK    5  A    between atoms: C_9  and  C_10
REMARK    6  A    between atoms: C_10  and  O_11
REMARK    7  A    between atoms: O_11  and  C_12
REMARK    8  A    between atoms: C_12  and  C_13
REMARK    9  A    between atoms: C_13  and  O_14
REMARK   10  A    between atoms: O_14  and  C_15
REMARK   11  A    between atoms: C_18  and  C_19
REMARK   12  A    between atoms: C_21  and  N_22
REMARK                            x       y       z     vdW  Elec       q    Type
REMARK                         _______ _______ _______ _____ _____    ______ ____
ROOT
ATOM      1  C   UNL     1       2.016   7.491  20.423  0.00  0.00    +0.000 C 
ENDROOT
BRANCH   1   2
ATOM      2  O   UNL     1       1.436   8.799  20.328  0.00  0.00    +0.000 OA
BRANCH   2   3
ATOM      3  C   UNL     1       1.238   9.320  19.010  0.00  0.00    +0.000 C 
BRANCH   3   4
ATOM      4  C   UNL     1       0.627  10.718  19.019  0.00  0.00    +0.000 C 
BRANCH   4   5
ATOM      5  O   UNL     1      -0.728  10.670  19.461  0.00  0.00    +0.000 OA
BRANCH   5  10
ATOM      6  C   UNL     1      -2.578  10.350  16.249  0.00  0.00    +0.000 A 
ATOM      7  C   UNL     1      -3.736  11.033  16.610  0.00  0.00    +0.000 A 
ATOM      8  C   UNL     1      -3.870  11.576  17.889  0.00  0.00    +0.000 A 
ATOM      9  C   UNL     1      -2.837  11.437  18.812  0.00  0.00    +0.000 A 
ATOM     10  C   UNL     1      -1.672  10.747  18.468  0.00  0.00    +0.000 A 
ATOM     11  C   UNL     1      -1.550  10.202  17.183  0.00  0.00    +0.000 A 
BRANCH   6  13
ATOM     12  C   UNL     1      -3.749  10.037  14.195  0.00  0.00    +0.000 C 
ATOM     13  O   UNL     1      -2.561   9.879  14.962  0.00  0.00    +0.000 OA
ENDBRANCH   6  13
ENDBRANCH   5  10
ENDBRANCH   4   5
ENDBRANCH   3   4
ENDBRANCH   2   3
ENDBRANCH   1   2
BRANCH   1  14
ATOM     14  C   UNL     1       2.365   6.864  19.074  0.00  0.00    +0.000 C 
BRANCH  14  15
ATOM     15  O   UNL     1       3.615   6.174  19.191  0.00  0.00    +0.000 OA
BRANCH  15  16
ATOM     16  C   UNL     1       4.166   5.769  18.008  0.00  0.00    +0.000 A 
ATOM     17  C   UNL     1       4.536   6.670  17.006  0.00  0.00    +0.000 A 
ATOM     18  C   UNL     1       5.123   6.219  15.821  0.00  0.00    +0.000 A 
ATOM     19  C   UNL     1       5.381   4.859  15.620  0.00  0.00    +0.000 A 
ATOM     20  C   UNL     1       6.002   4.387  14.339  0.00  0.00    +0.000 C 
ATOM     21  C   UNL     1       5.067   3.951  16.638  0.00  0.00    +0.000 A 
ATOM     22  C   UNL     1       4.464   4.418  17.815  0.00  0.00    +0.000 A 
BRANCH  22  23
ATOM     23  N   UNL     1       4.124   3.443  18.831  0.00  0.00    +0.000 N 
ATOM     24  O   UNL     1       4.976   3.198  19.698  0.00  0.00    +0.000 OA
ATOM     25  O   UNL     1       2.971   2.980  18.803  0.00  0.00    +0.000 OA
ENDBRANCH  22  23
ENDBRANCH  15  16
ENDBRANCH  14  15
ENDBRANCH   1  14
TORSDOF 10
ENDMDL
MODEL 6
REMARK VINA RESULT:      -6.3      5.298      7.218
REMARK  Name = 
REMARK  12 active torsions:
REMARK  status: ('A' for Active; 'I' for Inactive)
REMARK    1  A    between atoms: C_1  and  O_2
REMARK    2  A    between atoms: O_2  and  C_3
REMARK    3  A    between atoms: C_7  and  O_8
REMARK    4  A    between atoms: O_8  and  C_9
REMARK    5  A    between atoms: C_9  and  C_10
REMARK    6  A    between atoms: C_10  and  O_11
REMARK    7  A    between atoms: O_11  and  C_12
REMARK    8  A    between atoms: C_12  and  C_13
REMARK    9  A    between atoms: C_13  and  O_14
REMARK   10  A    between atoms: O_14  and  C_15
REMARK   11  A    between atoms: C_18  and  C_19
REMARK   12  A    between atoms: C_21  and  N_22
REMARK                            x       y       z     vdW  Elec       q    Type
REMARK                         _______ _______ _______ _____ _____    ______ ____
ROOT
ATOM      1  C   UNL     1       7.128   6.338  17.096  0.00  0.00    +0.000 C 
ENDROOT
BRANCH   1   2
ATOM      2  O   UNL     1       7.504   7.716  16.965  0.00  0.00    +0.000 OA
BRANCH   2   3
ATOM      3  C   UNL     1       8.233   8.290  18.055  0.00  0.00    +0.000 C 
BRANCH   3   4
ATOM      4  C   UNL     1       8.245   9.815  18.012  0.00  0.00    +0.000 C 
BRANCH   4   5
ATOM      5  O   UNL     1       9.580  10.308  18.085  0.00  0.00    +0.000 OA
BRANCH   5  10
ATOM      6  C   UNL     1       9.601  12.191  21.293  0.00  0.00    +0.000 A 
ATOM      7  C   UNL     1      10.416  13.250  20.906  0.00  0.00    +0.000 A 
ATOM      8  C   UNL     1      10.930  13.312  19.609  0.00  0.00    +0.000 A 
ATOM      9  C   UNL     1      10.620  12.309  18.693  0.00  0.00    +0.000 A 
ATOM     10  C   UNL     1       9.810  11.237  19.070  0.00  0.00    +0.000 A 
ATOM     11  C   UNL     1       9.305  11.181  20.375  0.00  0.00    +0.000 A 
BRANCH   6  13
ATOM     12  C   UNL     1       7.798  11.867  22.823  0.00  0.00    +0.000 C 
ATOM     13  O   UNL     1       9.148  12.253  22.586  0.00  0.00    +0.000 OA
ENDBRANCH   6  13
ENDBRANCH   5  10
ENDBRANCH   4   5
ENDBRANCH   3   4
ENDBRANCH   2   3
ENDBRANCH   1   2
BRANCH   1  14
ATOM     14  C   UNL     1       5.860   6.113  17.918  0.00  0.00    +0.000 C 
BRANCH  14  15
ATOM     15  O   UNL     1       4.742   6.009  17.029  0.00  0.00    +0.000 OA
BRANCH  15  16
ATOM     16  C   UNL     1       3.799   5.087  17.390  0.00  0.00    +0.000 A 
ATOM     17  C   UNL     1       3.925   3.729  17.089  0.00  0.00    +0.000 A 
ATOM     18  C   UNL     1       2.953   2.813  17.499  0.00  0.00    +0.000 A 
ATOM     19  C   UNL     1       1.845   3.228  18.246  0.00  0.00    +0.000 A 
ATOM     20  C   UNL     1       0.804   2.237  18.671  0.00  0.00    +0.000 C 
ATOM     21  C   UNL     1       1.734   4.577  18.603  0.00  0.00    +0.000 A 
ATOM     22  C   UNL     1       2.710   5.486  18.169  0.00  0.00    +0.000 A 
BRANCH  22  23
ATOM     23  N   UNL     1       2.542   6.879  18.530  0.00  0.00    +0.000 N 
ATOM     24  O   UNL     1       2.199   7.665  17.635  0.00  0.00    +0.000 OA
ATOM     25  O   UNL     1       2.680   7.169  19.730  0.00  0.00    +0.000 OA
ENDBRANCH  22  23
ENDBRANCH  15  16
ENDBRANCH  14  15
ENDBRANCH   1  14
TORSDOF 10
ENDMDL
MODEL 7
REMARK VINA RESULT:      -6.2      2.506      7.303
REMARK  Name = 
REMARK  12 active torsions:
REMARK  status: ('A' for Active; 'I' for Inactive)
REMARK    1  A    between atoms: C_1  and  O_2
REMARK    2  A    between atoms: O_2  and  C_3
REMARK    3  A    between atoms: C_7  and  O_8
REMARK    4  A    between atoms: O_8  and  C_9
REMARK    5  A    between atoms: C_9  and  C_10
REMARK    6  A    between atoms: C_10  and  O_11
REMARK    7  A    between atoms: O_11  and  C_12
REMARK    8  A    between atoms: C_12  and  C_13
REMARK    9  A    between atoms: C_13  and  O_14
REMARK   10  A    between atoms: O_14  and  C_15
REMARK   11  A    between atoms: C_18  and  C_19
REMARK   12  A    between atoms: C_21  and  N_22
REMARK                            x       y       z     vdW  Elec       q    Type
REMARK                         _______ _______ _______ _____ _____    ______ ____
ROOT
ATOM      1  C   UNL     1       1.365   5.361  20.529  0.00  0.00    +0.000 C 
ENDROOT
BRANCH   1   2
ATOM      2  O   UNL     1       2.010   4.135  20.899  0.00  0.00    +0.000 OA
BRANCH   2   3
ATOM      3  C   UNL     1       1.782   3.006  20.048  0.00  0.00    +0.000 C 
BRANCH   3   4
ATOM      4  C   UNL     1       2.789   2.922  18.906  0.00  0.00    +0.000 C 
BRANCH   4   5
ATOM      5  O   UNL     1       4.080   3.342  19.343  0.00  0.00    +0.000 OA
BRANCH   5  10
ATOM      6  C   UNL     1       5.546   4.694  16.203  0.00  0.00    +0.000 A 
ATOM      7  C   UNL     1       6.369   5.668  16.763  0.00  0.00    +0.000 A 
ATOM      8  C   UNL     1       6.416   5.846  18.147  0.00  0.00    +0.000 A 
ATOM      9  C   UNL     1       5.638   5.042  18.976  0.00  0.00    +0.000 A 
ATOM     10  C   UNL     1       4.802   4.067  18.429  0.00  0.00    +0.000 A 
ATOM     11  C   UNL     1       4.758   3.900  17.038  0.00  0.00    +0.000 A 
BRANCH   6  13
ATOM     12  C   UNL     1       6.862   4.838  14.219  0.00  0.00    +0.000 C 
ATOM     13  O   UNL     1       5.601   4.607  14.836  0.00  0.00    +0.000 OA
ENDBRANCH   6  13
ENDBRANCH   5  10
ENDBRANCH   4   5
ENDBRANCH   3   4
ENDBRANCH   2   3
ENDBRANCH   1   2
BRANCH   1  14
ATOM     14  C   UNL     1       2.294   6.381  19.873  0.00  0.00    +0.000 C 
BRANCH  14  15
ATOM     15  O   UNL     1       2.175   7.631  20.562  0.00  0.00    +0.000 OA
BRANCH  15  16
ATOM     16  C   UNL     1       1.414   8.572  19.927  0.00  0.00    +0.000 A 
ATOM     17  C   UNL     1       1.524   8.826  18.558  0.00  0.00    +0.000 A 
ATOM     18  C   UNL     1       0.709   9.778  17.940  0.00  0.00    +0.000 A 
ATOM     19  C   UNL     1      -0.257  10.478  18.670  0.00  0.00    +0.000 A 
ATOM     20  C   UNL     1      -1.119  11.504  17.996  0.00  0.00    +0.000 C 
ATOM     21  C   UNL     1      -0.417  10.195  20.031  0.00  0.00    +0.000 A 
ATOM     22  C   UNL     1       0.421   9.249  20.640  0.00  0.00    +0.000 A 
BRANCH  22  23
ATOM     23  N   UNL     1       0.246   9.007  22.058  0.00  0.00    +0.000 N 
ATOM     24  O   UNL     1       0.989   9.621  22.839  0.00  0.00    +0.000 OA
ATOM     25  O   UNL     1      -0.689   8.260  22.390  0.00  0.00    +0.000 OA
ENDBRANCH  22  23
ENDBRANCH  15  16
ENDBRANCH  14  15
ENDBRANCH   1  14
TORSDOF 10
ENDMDL
MODEL 8
REMARK VINA RESULT:      -6.2      1.223      1.396
REMARK  Name = 
REMARK  12 active torsions:
REMARK  status: ('A' for Active; 'I' for Inactive)
REMARK    1  A    between atoms: C_1  and  O_2
REMARK    2  A    between atoms: O_2  and  C_3
REMARK    3  A    between atoms: C_7  and  O_8
REMARK    4  A    between atoms: O_8  and  C_9
REMARK    5  A    between atoms: C_9  and  C_10
REMARK    6  A    between atoms: C_10  and  O_11
REMARK    7  A    between atoms: O_11  and  C_12
REMARK    8  A    between atoms: C_12  and  C_13
REMARK    9  A    between atoms: C_13  and  O_14
REMARK   10  A    between atoms: O_14  and  C_15
REMARK   11  A    between atoms: C_18  and  C_19
REMARK   12  A    between atoms: C_21  and  N_22
REMARK                            x       y       z     vdW  Elec       q    Type
REMARK                         _______ _______ _______ _____ _____    ______ ____
ROOT
ATOM      1  C   UNL     1       2.463   2.070  19.274  0.00  0.00    +0.000 C 
ENDROOT
BRANCH   1   2
ATOM      2  O   UNL     1       1.426   2.818  19.924  0.00  0.00    +0.000 OA
BRANCH   2   3
ATOM      3  C   UNL     1       1.816   3.617  21.046  0.00  0.00    +0.000 C 
BRANCH   3   4
ATOM      4  C   UNL     1       1.504   5.097  20.846  0.00  0.00    +0.000 C 
BRANCH   4   5
ATOM      5  O   UNL     1       2.595   5.758  20.210  0.00  0.00    +0.000 OA
BRANCH   5  10
ATOM      6  C   UNL     1       1.325   9.197  19.583  0.00  0.00    +0.000 A 
ATOM      7  C   UNL     1       1.812   9.365  18.290  0.00  0.00    +0.000 A 
ATOM      8  C   UNL     1       2.539   8.347  17.668  0.00  0.00    +0.000 A 
ATOM      9  C   UNL     1       2.773   7.152  18.344  0.00  0.00    +0.000 A 
ATOM     10  C   UNL     1       2.297   6.972  19.644  0.00  0.00    +0.000 A 
ATOM     11  C   UNL     1       1.574   8.003  20.261  0.00  0.00    +0.000 A 
BRANCH   6  13
ATOM     12  C   UNL     1      -0.777  10.310  19.779  0.00  0.00    +0.000 C 
ATOM     13  O   UNL     1       0.614  10.262  20.075  0.00  0.00    +0.000 OA
ENDBRANCH   6  13
ENDBRANCH   5  10
ENDBRANCH   4   5
ENDBRANCH   3   4
ENDBRANCH   2   3
ENDBRANCH   1   2
BRANCH   1  14
ATOM     14  C   UNL     1       2.721   2.489  17.828  0.00  0.00    +0.000 C 
BRANCH  14  15
ATOM     15  O   UNL     1       3.168   3.850  17.810  0.00  0.00    +0.000 OA
BRANCH  15  16
ATOM     16  C   UNL     1       4.271   4.087  17.037  0.00  0.00    +0.000 A 
ATOM     17  C   UNL     1       4.224   4.079  15.641  0.00  0.00    +0.000 A 
ATOM     18  C   UNL     1       5.367   4.354  14.886  0.00  0.00    +0.000 A 
ATOM     19  C   UNL     1       6.578   4.673  15.508  0.00  0.00    +0.000 A 
ATOM     20  C   UNL     1       7.800   4.956  14.686  0.00  0.00    +0.000 C 
ATOM     21  C   UNL     1       6.627   4.740  16.905  0.00  0.00    +0.000 A 
ATOM     22  C   UNL     1       5.475   4.445  17.649  0.00  0.00    +0.000 A 
BRANCH  22  23
ATOM     23  N   UNL     1       5.575   4.493  19.093  0.00  0.00    +0.000 N 
ATOM     24  O   UNL     1       5.763   5.600  19.618  0.00  0.00    +0.000 OA
ATOM     25  O   UNL     1       5.386   3.428  19.706  0.00  0.00    +0.000 OA
ENDBRANCH  22  23
ENDBRANCH  15  16
ENDBRANCH  14  15
ENDBRANCH   1  14
TORSDOF 10
ENDMDL
MODEL 9
REMARK VINA RESULT:      -6.2      5.839      7.482
REMARK  Name = 
REMARK  12 active torsions:
REMARK  status: ('A' for Active; 'I' for Inactive)
REMARK    1  A    between atoms: C_1  and  O_2
REMARK    2  A    between atoms: O_2  and  C_3
REMARK    3  A    between atoms: C_7  and  O_8
REMARK    4  A    between atoms: O_8  and  C_9
REMARK    5  A    between atoms: C_9  and  C_10
REMARK    6  A    between atoms: C_10  and  O_11
REMARK    7  A    between atoms: O_11  and  C_12
REMARK    8  A    between atoms: C_12  and  C_13
REMARK    9  A    between atoms: C_13  and  O_14
REMARK   10  A    between atoms: O_14  and  C_15
REMARK   11  A    between atoms: C_18  and  C_19
REMARK   12  A    between atoms: C_21  and  N_22
REMARK                            x       y       z     vdW  Elec       q    Type
REMARK                         _______ _______ _______ _____ _____    ______ ____
ROOT
ATOM      1  C   UNL     1       6.877   7.183  17.304  0.00  0.00    +0.000 C 
ENDROOT
BRANCH   1   2
ATOM      2  O   UNL     1       7.610   8.416  17.302  0.00  0.00    +0.000 OA
BRANCH   2   3
ATOM      3  C   UNL     1       8.484   8.647  18.411  0.00  0.00    +0.000 C 
BRANCH   3   4
ATOM      4  C   UNL     1       8.944  10.098  18.501  0.00  0.00    +0.000 C 
BRANCH   4   5
ATOM      5  O   UNL     1       9.473  10.377  19.795  0.00  0.00    +0.000 OA
BRANCH   5  10
ATOM      6  C   UNL     1      10.576  13.808  20.720  0.00  0.00    +0.000 A 
ATOM      7  C   UNL     1      11.743  13.860  19.964  0.00  0.00    +0.000 A 
ATOM      8  C   UNL     1      12.128  12.772  19.177  0.00  0.00    +0.000 A 
ATOM      9  C   UNL     1      11.336  11.627  19.144  0.00  0.00    +0.000 A 
ATOM     10  C   UNL     1      10.167  11.557  19.903  0.00  0.00    +0.000 A 
ATOM     11  C   UNL     1       9.792  12.652  20.694  0.00  0.00    +0.000 A 
BRANCH   6  13
ATOM     12  C   UNL     1       8.958  15.420  21.411  0.00  0.00    +0.000 C 
ATOM     13  O   UNL     1      10.299  14.944  21.436  0.00  0.00    +0.000 OA
ENDBRANCH   6  13
ENDBRANCH   5  10
ENDBRANCH   4   5
ENDBRANCH   3   4
ENDBRANCH   2   3
ENDBRANCH   1   2
BRANCH   1  14
ATOM     14  C   UNL     1       7.421   6.137  18.276  0.00  0.00    +0.000 C 
BRANCH  14  15
ATOM     15  O   UNL     1       7.044   4.834  17.816  0.00  0.00    +0.000 OA
BRANCH  15  16
ATOM     16  C   UNL     1       5.726   4.515  17.993  0.00  0.00    +0.000 A 
ATOM     17  C   UNL     1       5.123   4.494  19.253  0.00  0.00    +0.000 A 
ATOM     18  C   UNL     1       3.766   4.191  19.390  0.00  0.00    +0.000 A 
ATOM     19  C   UNL     1       2.972   3.929  18.268  0.00  0.00    +0.000 A 
ATOM     20  C   UNL     1       1.519   3.594  18.431  0.00  0.00    +0.000 C 
ATOM     21  C   UNL     1       3.550   4.001  16.996  0.00  0.00    +0.000 A 
ATOM     22  C   UNL     1       4.917   4.291  16.877  0.00  0.00    +0.000 A 
BRANCH  22  23
ATOM     23  N   UNL     1       5.486   4.323  15.545  0.00  0.00    +0.000 N 
ATOM     24  O   UNL     1       5.362   5.372  14.895  0.00  0.00    +0.000 OA
ATOM     25  O   UNL     1       6.124   3.322  15.181  0.00  0.00    +0.000 OA
ENDBRANCH  22  23
ENDBRANCH  15  16
ENDBRANCH  14  15
ENDBRANCH   1  14
TORSDOF 10
ENDMDL
