MODEL 1
REMARK VINA RESULT:      -7.6      0.000      0.000
REMARK  Name = 
REMARK  6 active torsions:
REMARK  status: ('A' for Active; 'I' for Inactive)
REMARK    1  A    between atoms: C_1  and  O_2
REMARK    2  A    between atoms: O_2  and  C_3
REMARK    3  A    between atoms: C_7  and  N_8
REMARK    4  A    between atoms: C_12  and  C_14
REMARK    5  A    between atoms: C_14  and  C_15
REMARK    6  A    between atoms: C_15  and  C_16
REMARK                            x       y       z     vdW  Elec       q    Type
REMARK                         _______ _______ _______ _____ _____    ______ ____
ROOT
ATOM      1  N   UNL     1       2.061   7.485  19.585  0.00  0.00    +0.000 N 
ATOM      2  C   UNL     1       2.557   7.635  18.210  0.00  0.00    +0.000 C 
ATOM      3  C   UNL     1       3.945   6.985  18.130  0.00  0.00    +0.000 C 
ATOM      4  N   UNL     1       3.895   5.578  18.548  0.00  0.00    +0.000 N 
ATOM      5  C   UNL     1       4.315   4.493  17.806  0.00  0.00    +0.000 C 
ATOM      6  O   UNL     1       4.259   3.337  18.229  0.00  0.00    +0.000 OA
ATOM      7  C   UNL     1       3.311   5.374  19.889  0.00  0.00    +0.000 C 
ATOM      8  C   UNL     1       1.951   6.089  20.047  0.00  0.00    +0.000 C 
ENDROOT
BRANCH   1  13
ATOM      9  C   UNL     1       0.345  10.732  20.183  0.00  0.00    +0.000 A 
ATOM     10  C   UNL     1       0.127  10.651  21.556  0.00  0.00    +0.000 A 
ATOM     11  C   UNL     1       0.515   9.516  22.263  0.00  0.00    +0.000 A 
ATOM     12  C   UNL     1       1.127   8.455  21.592  0.00  0.00    +0.000 A 
ATOM     13  C   UNL     1       1.370   8.504  20.212  0.00  0.00    +0.000 A 
ATOM     14  C   UNL     1       0.956   9.659  19.525  0.00  0.00    +0.000 A 
BRANCH   9  16
ATOM     15  C   UNL     1       0.879  12.557  18.757  0.00  0.00    +0.000 C 
ATOM     16  O   UNL     1      -0.062  11.900  19.600  0.00  0.00    +0.000 OA
ENDBRANCH   9  16
ENDBRANCH   1  13
BRANCH   5  17
ATOM     17  C   UNL     1       4.890   4.751  16.424  0.00  0.00    +0.000 C 
BRANCH  17  18
ATOM     18  C   UNL     1       6.139   3.903  16.183  0.00  0.00    +0.000 C 
BRANCH  18  19
ATOM     19  C   UNL     1       7.377   4.477  16.861  0.00  0.00    +0.000 C 
ATOM     20  N   UNL     1       7.376   4.224  18.283  0.00  0.00    +0.000 N 
ATOM     21  C   UNL     1       7.432   5.381  19.023  0.00  0.00    +0.000 C 
ATOM     22  O   UNL     1       7.490   5.434  20.238  0.00  0.00    +0.000 OA
ATOM     23  N   UNL     1       7.420   6.433  18.176  0.00  0.00    +0.000 N 
ATOM     24  C   UNL     1       7.389   6.011  16.885  0.00  0.00    +0.000 C 
ATOM     25  O   UNL     1       7.369   6.749  15.911  0.00  0.00    +0.000 OA
ATOM     26  H   UNL     1       7.452   3.318  18.732  0.00  0.00    +0.000 HD
ATOM     27  H   UNL     1       7.453   7.392  18.475  0.00  0.00    +0.000 HD
ENDBRANCH  18  19
ENDBRANCH  17  18
ENDBRANCH   5  17
TORSDOF 5
ENDMDL
MODEL 2
REMARK VINA RESULT:      -7.6      0.990      1.661
REMARK  Name = 
REMARK  6 active torsions:
REMARK  status: ('A' for Active; 'I' for Inactive)
REMARK    1  A    between atoms: C_1  and  O_2
REMARK    2  A    between atoms: O_2  and  C_3
REMARK    3  A    between atoms: C_7  and  N_8
REMARK    4  A    between atoms: C_12  and  C_14
REMARK    5  A    between atoms: C_14  and  C_15
REMARK    6  A    between atoms: C_15  and  C_16
REMARK                            x       y       z     vdW  Elec       q    Type
REMARK                         _______ _______ _______ _____ _____    ______ ____
ROOT
ATOM      1  N   UNL     1       1.988   7.882  19.256  0.00  0.00    +0.000 N 
ATOM      2  C   UNL     1       2.543   7.933  17.896  0.00  0.00    +0.000 C 
ATOM      3  C   UNL     1       3.936   7.288  17.924  0.00  0.00    +0.000 C 
ATOM      4  N   UNL     1       3.870   5.914  18.441  0.00  0.00    +0.000 N 
ATOM      5  C   UNL     1       4.326   4.781  17.800  0.00  0.00    +0.000 C 
ATOM      6  O   UNL     1       4.254   3.659  18.304  0.00  0.00    +0.000 OA
ATOM      7  C   UNL     1       3.230   5.806  19.768  0.00  0.00    +0.000 C 
ATOM      8  C   UNL     1       1.862   6.523  19.814  0.00  0.00    +0.000 C 
ENDROOT
BRANCH   1  13
ATOM      9  C   UNL     1      -0.101   9.933  21.551  0.00  0.00    +0.000 A 
ATOM     10  C   UNL     1      -0.354  11.037  20.741  0.00  0.00    +0.000 A 
ATOM     11  C   UNL     1       0.195  11.111  19.464  0.00  0.00    +0.000 A 
ATOM     12  C   UNL     1       0.999  10.071  18.992  0.00  0.00    +0.000 A 
ATOM     13  C   UNL     1       1.268   8.941  19.776  0.00  0.00    +0.000 A 
ATOM     14  C   UNL     1       0.710   8.902  21.065  0.00  0.00    +0.000 A 
BRANCH   9  16
ATOM     15  C   UNL     1      -1.366  11.173  23.137  0.00  0.00    +0.000 C 
ATOM     16  O   UNL     1      -0.706   9.964  22.777  0.00  0.00    +0.000 OA
ENDBRANCH   9  16
ENDBRANCH   1  13
BRANCH   5  17
ATOM     17  C   UNL     1       4.960   4.940  16.429  0.00  0.00    +0.000 C 
BRANCH  17  18
ATOM     18  C   UNL     1       6.164   4.012  16.271  0.00  0.00    +0.000 C 
BRANCH  18  19
ATOM     19  C   UNL     1       7.417   4.559  16.945  0.00  0.00    +0.000 C 
ATOM     20  N   UNL     1       7.438   4.262  18.359  0.00  0.00    +0.000 N 
ATOM     21  C   UNL     1       7.513   5.396  19.132  0.00  0.00    +0.000 C 
ATOM     22  O   UNL     1       7.592   5.411  20.348  0.00  0.00    +0.000 OA
ATOM     23  N   UNL     1       7.493   6.473  18.319  0.00  0.00    +0.000 N 
ATOM     24  C   UNL     1       7.439   6.091  17.016  0.00  0.00    +0.000 C 
ATOM     25  O   UNL     1       7.407   6.859  16.065  0.00  0.00    +0.000 OA
ATOM     26  H   UNL     1       7.515   3.342  18.778  0.00  0.00    +0.000 HD
ATOM     27  H   UNL     1       7.537   7.422  18.646  0.00  0.00    +0.000 HD
ENDBRANCH  18  19
ENDBRANCH  17  18
ENDBRANCH   5  17
TORSDOF 5
ENDMDL
MODEL 3
REMARK VINA RESULT:      -7.4      3.791      8.090
REMARK  Name = 
REMARK  6 active torsions:
REMARK  status: ('A' for Active; 'I' for Inactive)
REMARK    1  A    between atoms: C_1  and  O_2
REMARK    2  A    between atoms: O_2  and  C_3
REMARK    3  A    between atoms: C_7  and  N_8
REMARK    4  A    between atoms: C_12  and  C_14
REMARK    5  A    between atoms: C_14  and  C_15
REMARK    6  A    between atoms: C_15  and  C_16
REMARK                            x       y       z     vdW  Elec       q    Type
REMARK                         _______ _______ _______ _____ _____    ______ ____
ROOT
ATOM      1  N   UNL     1       5.372   5.043  15.516  0.00  0.00    +0.000 N 
ATOM      2  C   UNL     1       4.910   3.994  16.436  0.00  0.00    +0.000 C 
ATOM      3  C   UNL     1       5.218   4.446  17.870  0.00  0.00    +0.000 C 
ATOM      4  N   UNL     1       4.596   5.746  18.159  0.00  0.00    +0.000 N 
ATOM      5  C   UNL     1       3.730   6.020  19.197  0.00  0.00    +0.000 C 
ATOM      6  O   UNL     1       3.259   7.143  19.390  0.00  0.00    +0.000 OA
ATOM      7  C   UNL     1       4.959   6.807  17.198  0.00  0.00    +0.000 C 
ATOM      8  C   UNL     1       4.751   6.363  15.733  0.00  0.00    +0.000 C 
ENDROOT
BRANCH   1  13
ATOM      9  C   UNL     1       6.145   3.360  12.290  0.00  0.00    +0.000 A 
ATOM     10  C   UNL     1       7.357   3.969  11.973  0.00  0.00    +0.000 A 
ATOM     11  C   UNL     1       7.887   4.951  12.805  0.00  0.00    +0.000 A 
ATOM     12  C   UNL     1       7.202   5.324  13.964  0.00  0.00    +0.000 A 
ATOM     13  C   UNL     1       5.985   4.727  14.319  0.00  0.00    +0.000 A 
ATOM     14  C   UNL     1       5.470   3.747  13.452  0.00  0.00    +0.000 A 
BRANCH   9  16
ATOM     15  C   UNL     1       6.618   1.305  11.191  0.00  0.00    +0.000 C 
ATOM     16  O   UNL     1       5.733   2.399  11.409  0.00  0.00    +0.000 OA
ENDBRANCH   9  16
ENDBRANCH   1  13
BRANCH   5  17
ATOM     17  C   UNL     1       3.371   4.892  20.148  0.00  0.00    +0.000 C 
BRANCH  17  18
ATOM     18  C   UNL     1       1.860   4.671  20.190  0.00  0.00    +0.000 C 
BRANCH  18  19
ATOM     19  C   UNL     1       1.444   3.345  19.563  0.00  0.00    +0.000 C 
ATOM     20  N   UNL     1       2.409   2.303  19.824  0.00  0.00    +0.000 N 
ATOM     21  C   UNL     1       2.917   1.757  18.669  0.00  0.00    +0.000 C 
ATOM     22  O   UNL     1       3.710   0.833  18.620  0.00  0.00    +0.000 OA
ATOM     23  N   UNL     1       2.385   2.411  17.614  0.00  0.00    +0.000 N 
ATOM     24  C   UNL     1       1.508   3.361  18.031  0.00  0.00    +0.000 C 
ATOM     25  O   UNL     1       0.882   4.105  17.289  0.00  0.00    +0.000 OA
ATOM     26  H   UNL     1       2.628   1.900  20.728  0.00  0.00    +0.000 HD
ATOM     27  H   UNL     1       2.601   2.196  16.657  0.00  0.00    +0.000 HD
ENDBRANCH  18  19
ENDBRANCH  17  18
ENDBRANCH   5  17
TORSDOF 5
ENDMDL
MODEL 4
REMARK VINA RESULT:      -7.3      2.919      8.752
REMARK  Name = 
REMARK  6 active torsions:
REMARK  status: ('A' for Active; 'I' for Inactive)
REMARK    1  A    between atoms: C_1  and  O_2
REMARK    2  A    between atoms: O_2  and  C_3
REMARK    3  A    between atoms: C_7  and  N_8
REMARK    4  A    between atoms: C_12  and  C_14
REMARK    5  A    between atoms: C_14  and  C_15
REMARK    6  A    between atoms: C_15  and  C_16
REMARK                            x       y       z     vdW  Elec       q    Type
REMARK                         _______ _______ _______ _____ _____    ______ ____
ROOT
ATOM      1  N   UNL     1       2.442   7.167  18.625  0.00  0.00    +0.000 N 
ATOM      2  C   UNL     1       2.549   8.365  17.781  0.00  0.00    +0.000 C 
ATOM      3  C   UNL     1       1.258   9.179  17.941  0.00  0.00    +0.000 C 
ATOM      4  N   UNL     1       1.018   9.518  19.351  0.00  0.00    +0.000 N 
ATOM      5  C   UNL     1       0.838  10.785  19.864  0.00  0.00    +0.000 C 
ATOM      6  O   UNL     1       0.622  10.994  21.059  0.00  0.00    +0.000 OA
ATOM      7  C   UNL     1       1.000   8.346  20.250  0.00  0.00    +0.000 C 
ATOM      8  C   UNL     1       2.240   7.445  20.059  0.00  0.00    +0.000 C 
ENDROOT
BRANCH   1  13
ATOM      9  C   UNL     1       4.699   4.528  17.287  0.00  0.00    +0.000 A 
ATOM     10  C   UNL     1       3.795   3.480  17.133  0.00  0.00    +0.000 A 
ATOM     11  C   UNL     1       2.463   3.642  17.505  0.00  0.00    +0.000 A 
ATOM     12  C   UNL     1       2.031   4.861  18.030  0.00  0.00    +0.000 A 
ATOM     13  C   UNL     1       2.910   5.941  18.191  0.00  0.00    +0.000 A 
ATOM     14  C   UNL     1       4.251   5.743  17.819  0.00  0.00    +0.000 A 
BRANCH   9  16
ATOM     15  C   UNL     1       6.171   4.089  15.473  0.00  0.00    +0.000 C 
ATOM     16  O   UNL     1       5.974   4.259  16.873  0.00  0.00    +0.000 OA
ENDBRANCH   9  16
ENDBRANCH   1  13
BRANCH   5  17
ATOM     17  C   UNL     1       0.885  11.960  18.902  0.00  0.00    +0.000 C 
BRANCH  17  18
ATOM     18  C   UNL     1      -0.516  12.520  18.653  0.00  0.00    +0.000 C 
BRANCH  18  19
ATOM     19  C   UNL     1      -1.540  11.429  18.365  0.00  0.00    +0.000 C 
ATOM     20  N   UNL     1      -1.575  11.084  16.963  0.00  0.00    +0.000 N 
ATOM     21  C   UNL     1      -2.819  11.267  16.408  0.00  0.00    +0.000 C 
ATOM     22  O   UNL     1      -3.119  11.004  15.257  0.00  0.00    +0.000 OA
ATOM     23  N   UNL     1      -3.641  11.774  17.352  0.00  0.00    +0.000 N 
ATOM     24  C   UNL     1      -2.988  11.907  18.536  0.00  0.00    +0.000 C 
ATOM     25  O   UNL     1      -3.488  12.345  19.562  0.00  0.00    +0.000 OA
ATOM     26  H   UNL     1      -0.833  10.639  16.435  0.00  0.00    +0.000 HD
ATOM     27  H   UNL     1      -4.607  11.996  17.191  0.00  0.00    +0.000 HD
ENDBRANCH  18  19
ENDBRANCH  17  18
ENDBRANCH   5  17
TORSDOF 5
ENDMDL
MODEL 5
REMARK VINA RESULT:      -7.3      3.707      8.193
REMARK  Name = 
REMARK  6 active torsions:
REMARK  status: ('A' for Active; 'I' for Inactive)
REMARK    1  A    between atoms: C_1  and  O_2
REMARK    2  A    between atoms: O_2  and  C_3
REMARK    3  A    between atoms: C_7  and  N_8
REMARK    4  A    between atoms: C_12  and  C_14
REMARK    5  A    between atoms: C_14  and  C_15
REMARK    6  A    between atoms: C_15  and  C_16
REMARK                            x       y       z     vdW  Elec       q    Type
REMARK                         _______ _______ _______ _____ _____    ______ ____
ROOT
ATOM      1  N   UNL     1       5.872   4.337  15.167  0.00  0.00    +0.000 N 
ATOM      2  C   UNL     1       4.610   4.251  15.915  0.00  0.00    +0.000 C 
ATOM      3  C   UNL     1       4.903   3.603  17.275  0.00  0.00    +0.000 C 
ATOM      4  N   UNL     1       5.929   4.358  18.009  0.00  0.00    +0.000 N 
ATOM      5  C   UNL     1       5.800   4.884  19.278  0.00  0.00    +0.000 C 
ATOM      6  O   UNL     1       6.712   5.492  19.840  0.00  0.00    +0.000 OA
ATOM      7  C   UNL     1       7.183   4.550  17.253  0.00  0.00    +0.000 C 
ATOM      8  C   UNL     1       6.929   5.117  15.838  0.00  0.00    +0.000 C 
ENDROOT
BRANCH   1  13
ATOM      9  C   UNL     1       4.865   3.302  11.738  0.00  0.00    +0.000 A 
ATOM     10  C   UNL     1       6.087   3.402  11.077  0.00  0.00    +0.000 A 
ATOM     11  C   UNL     1       7.218   3.844  11.758  0.00  0.00    +0.000 A 
ATOM     12  C   UNL     1       7.129   4.183  13.109  0.00  0.00    +0.000 A 
ATOM     13  C   UNL     1       5.918   4.086  13.809  0.00  0.00    +0.000 A 
ATOM     14  C   UNL     1       4.791   3.649  13.092  0.00  0.00    +0.000 A 
BRANCH   9  16
ATOM     15  C   UNL     1       3.246   3.766  10.061  0.00  0.00    +0.000 C 
ATOM     16  O   UNL     1       3.830   2.842  10.974  0.00  0.00    +0.000 OA
ENDBRANCH   9  16
ENDBRANCH   1  13
BRANCH   5  17
ATOM     17  C   UNL     1       4.484   4.676  20.009  0.00  0.00    +0.000 C 
BRANCH  17  18
ATOM     18  C   UNL     1       3.399   5.598  19.454  0.00  0.00    +0.000 C 
BRANCH  18  19
ATOM     19  C   UNL     1       1.995   5.150  19.842  0.00  0.00    +0.000 C 
ATOM     20  N   UNL     1       1.971   4.529  21.146  0.00  0.00    +0.000 N 
ATOM     21  C   UNL     1       1.492   3.241  21.106  0.00  0.00    +0.000 C 
ATOM     22  O   UNL     1       1.330   2.523  22.076  0.00  0.00    +0.000 OA
ATOM     23  N   UNL     1       1.229   2.920  19.820  0.00  0.00    +0.000 N 
ATOM     24  C   UNL     1       1.489   3.971  19.000  0.00  0.00    +0.000 C 
ATOM     25  O   UNL     1       1.343   3.960  17.786  0.00  0.00    +0.000 OA
ATOM     26  H   UNL     1       2.158   4.985  22.032  0.00  0.00    +0.000 HD
ATOM     27  H   UNL     1       0.867   2.029  19.530  0.00  0.00    +0.000 HD
ENDBRANCH  18  19
ENDBRANCH  17  18
ENDBRANCH   5  17
TORSDOF 5
ENDMDL
MODEL 6
REMARK VINA RESULT:      -7.3      3.176      8.902
REMARK  Name = 
REMARK  6 active torsions:
REMARK  status: ('A' for Active; 'I' for Inactive)
REMARK    1  A    between atoms: C_1  and  O_2
REMARK    2  A    between atoms: O_2  and  C_3
REMARK    3  A    between atoms: C_7  and  N_8
REMARK    4  A    between atoms: C_12  and  C_14
REMARK    5  A    between atoms: C_14  and  C_15
REMARK    6  A    between atoms: C_15  and  C_16
REMARK                            x       y       z     vdW  Elec       q    Type
REMARK                         _______ _______ _______ _____ _____    ______ ____
ROOT
ATOM      1  N   UNL     1       2.320   7.458  18.580  0.00  0.00    +0.000 N 
ATOM      2  C   UNL     1       2.260   8.630  17.697  0.00  0.00    +0.000 C 
ATOM      3  C   UNL     1       0.918   9.338  17.931  0.00  0.00    +0.000 C 
ATOM      4  N   UNL     1       0.755   9.704  19.345  0.00  0.00    +0.000 N 
ATOM      5  C   UNL     1       0.503  10.969  19.833  0.00  0.00    +0.000 C 
ATOM      6  O   UNL     1       0.359  11.200  21.035  0.00  0.00    +0.000 OA
ATOM      7  C   UNL     1       0.904   8.568  20.276  0.00  0.00    +0.000 C 
ATOM      8  C   UNL     1       2.200   7.768  20.017  0.00  0.00    +0.000 C 
ENDROOT
BRANCH   1  13
ATOM      9  C   UNL     1       2.646   3.868  17.659  0.00  0.00    +0.000 A 
ATOM     10  C   UNL     1       4.019   3.788  17.443  0.00  0.00    +0.000 A 
ATOM     11  C   UNL     1       4.816   4.923  17.568  0.00  0.00    +0.000 A 
ATOM     12  C   UNL     1       4.236   6.145  17.914  0.00  0.00    +0.000 A 
ATOM     13  C   UNL     1       2.859   6.261  18.147  0.00  0.00    +0.000 A 
ATOM     14  C   UNL     1       2.079   5.101  18.001  0.00  0.00    +0.000 A 
BRANCH   9  16
ATOM     15  C   UNL     1       1.616   2.010  18.726  0.00  0.00    +0.000 C 
ATOM     16  O   UNL     1       1.969   2.688  17.524  0.00  0.00    +0.000 OA
ENDBRANCH   9  16
ENDBRANCH   1  13
BRANCH   5  17
ATOM     17  C   UNL     1       0.377  12.109  18.838  0.00  0.00    +0.000 C 
BRANCH  17  18
ATOM     18  C   UNL     1      -1.076  12.568  18.712  0.00  0.00    +0.000 C 
BRANCH  18  19
ATOM     19  C   UNL     1      -2.008  11.448  18.266  0.00  0.00    +0.000 C 
ATOM     20  N   UNL     1      -1.869  11.165  16.856  0.00  0.00    +0.000 N 
ATOM     21  C   UNL     1      -3.051  11.319  16.171  0.00  0.00    +0.000 C 
ATOM     22  O   UNL     1      -3.206  11.096  14.984  0.00  0.00    +0.000 OA
ATOM     23  N   UNL     1      -3.996  11.747  17.035  0.00  0.00    +0.000 N 
ATOM     24  C   UNL     1      -3.487  11.854  18.290  0.00  0.00    +0.000 C 
ATOM     25  O   UNL     1      -4.119  12.223  19.269  0.00  0.00    +0.000 OA
ATOM     26  H   UNL     1      -1.051  10.778  16.399  0.00  0.00    +0.000 HD
ATOM     27  H   UNL     1      -4.948  11.934  16.774  0.00  0.00    +0.000 HD
ENDBRANCH  18  19
ENDBRANCH  17  18
ENDBRANCH   5  17
TORSDOF 5
ENDMDL
MODEL 7
REMARK VINA RESULT:      -7.3      3.728      8.491
REMARK  Name = 
REMARK  6 active torsions:
REMARK  status: ('A' for Active; 'I' for Inactive)
REMARK    1  A    between atoms: C_1  and  O_2
REMARK    2  A    between atoms: O_2  and  C_3
REMARK    3  A    between atoms: C_7  and  N_8
REMARK    4  A    between atoms: C_12  and  C_14
REMARK    5  A    between atoms: C_14  and  C_15
REMARK    6  A    between atoms: C_15  and  C_16
REMARK                            x       y       z     vdW  Elec       q    Type
REMARK                         _______ _______ _______ _____ _____    ______ ____
ROOT
ATOM      1  N   UNL     1       6.245   4.459  15.284  0.00  0.00    +0.000 N 
ATOM      2  C   UNL     1       4.930   4.312  15.922  0.00  0.00    +0.000 C 
ATOM      3  C   UNL     1       5.134   3.635  17.285  0.00  0.00    +0.000 C 
ATOM      4  N   UNL     1       6.070   4.401  18.120  0.00  0.00    +0.000 N 
ATOM      5  C   UNL     1       5.819   4.887  19.387  0.00  0.00    +0.000 C 
ATOM      6  O   UNL     1       6.661   5.508  20.038  0.00  0.00    +0.000 OA
ATOM      7  C   UNL     1       7.373   4.656  17.475  0.00  0.00    +0.000 C 
ATOM      8  C   UNL     1       7.216   5.253  16.059  0.00  0.00    +0.000 C 
ENDROOT
BRANCH   1  13
ATOM      9  C   UNL     1       6.001   2.935  11.898  0.00  0.00    +0.000 A 
ATOM     10  C   UNL     1       6.910   3.726  11.201  0.00  0.00    +0.000 A 
ATOM     11  C   UNL     1       7.565   4.773  11.843  0.00  0.00    +0.000 A 
ATOM     12  C   UNL     1       7.312   5.028  13.192  0.00  0.00    +0.000 A 
ATOM     13  C   UNL     1       6.410   4.248  13.928  0.00  0.00    +0.000 A 
ATOM     14  C   UNL     1       5.755   3.206  13.249  0.00  0.00    +0.000 A 
BRANCH   9  16
ATOM     15  C   UNL     1       6.158   0.705  11.089  0.00  0.00    +0.000 C 
ATOM     16  O   UNL     1       5.432   1.927  11.170  0.00  0.00    +0.000 OA
ENDBRANCH   9  16
ENDBRANCH   1  13
BRANCH   5  17
ATOM     17  C   UNL     1       4.457   4.616  20.001  0.00  0.00    +0.000 C 
BRANCH  17  18
ATOM     18  C   UNL     1       3.394   5.535  19.401  0.00  0.00    +0.000 C 
BRANCH  18  19
ATOM     19  C   UNL     1       1.978   5.122  19.784  0.00  0.00    +0.000 C 
ATOM     20  N   UNL     1       1.931   4.524  21.099  0.00  0.00    +0.000 N 
ATOM     21  C   UNL     1       1.426   3.246  21.076  0.00  0.00    +0.000 C 
ATOM     22  O   UNL     1       1.242   2.548  22.057  0.00  0.00    +0.000 OA
ATOM     23  N   UNL     1       1.166   2.909  19.795  0.00  0.00    +0.000 N 
ATOM     24  C   UNL     1       1.454   3.940  18.959  0.00  0.00    +0.000 C 
ATOM     25  O   UNL     1       1.318   3.911  17.744  0.00  0.00    +0.000 OA
ATOM     26  H   UNL     1       2.120   4.991  21.978  0.00  0.00    +0.000 HD
ATOM     27  H   UNL     1       0.789   2.021  19.516  0.00  0.00    +0.000 HD
ENDBRANCH  18  19
ENDBRANCH  17  18
ENDBRANCH   5  17
TORSDOF 5
ENDMDL
MODEL 8
REMARK VINA RESULT:      -7.2      1.886      3.237
REMARK  Name = 
REMARK  6 active torsions:
REMARK  status: ('A' for Active; 'I' for Inactive)
REMARK    1  A    between atoms: C_1  and  O_2
REMARK    2  A    between atoms: O_2  and  C_3
REMARK    3  A    between atoms: C_7  and  N_8
REMARK    4  A    between atoms: C_12  and  C_14
REMARK    5  A    between atoms: C_14  and  C_15
REMARK    6  A    between atoms: C_15  and  C_16
REMARK                            x       y       z     vdW  Elec       q    Type
REMARK                         _______ _______ _______ _____ _____    ______ ____
ROOT
ATOM      1  N   UNL     1       1.111   9.821  18.888  0.00  0.00    +0.000 N 
ATOM      2  C   UNL     1       1.525   9.109  17.672  0.00  0.00    +0.000 C 
ATOM      3  C   UNL     1       2.732   8.228  18.022  0.00  0.00    +0.000 C 
ATOM      4  N   UNL     1       2.412   7.305  19.119  0.00  0.00    +0.000 N 
ATOM      5  C   UNL     1       2.535   5.931  19.089  0.00  0.00    +0.000 C 
ATOM      6  O   UNL     1       2.263   5.219  20.057  0.00  0.00    +0.000 OA
ATOM      7  C   UNL     1       1.899   7.975  20.331  0.00  0.00    +0.000 C 
ATOM      8  C   UNL     1       0.739   8.944  20.015  0.00  0.00    +0.000 C 
ENDROOT
BRANCH   1  13
ATOM      9  C   UNL     1       1.206  13.534  18.664  0.00  0.00    +0.000 A 
ATOM     10  C   UNL     1      -0.125  13.836  18.938  0.00  0.00    +0.000 A 
ATOM     11  C   UNL     1      -1.045  12.815  19.158  0.00  0.00    +0.000 A 
ATOM     12  C   UNL     1      -0.630  11.483  19.107  0.00  0.00    +0.000 A 
ATOM     13  C   UNL     1       0.703  11.141  18.842  0.00  0.00    +0.000 A 
ATOM     14  C   UNL     1       1.605  12.194  18.612  0.00  0.00    +0.000 A 
BRANCH   9  16
ATOM     15  C   UNL     1       3.423  14.371  18.466  0.00  0.00    +0.000 C 
ATOM     16  O   UNL     1       2.021  14.617  18.482  0.00  0.00    +0.000 OA
ENDBRANCH   9  16
ENDBRANCH   1  13
BRANCH   5  17
ATOM     17  C   UNL     1       3.048   5.286  17.813  0.00  0.00    +0.000 C 
BRANCH  17  18
ATOM     18  C   UNL     1       4.419   4.648  18.036  0.00  0.00    +0.000 C 
BRANCH  18  19
ATOM     19  C   UNL     1       5.560   5.516  17.520  0.00  0.00    +0.000 C 
ATOM     20  N   UNL     1       5.528   5.645  16.081  0.00  0.00    +0.000 N 
ATOM     21  C   UNL     1       6.684   5.195  15.488  0.00  0.00    +0.000 C 
ATOM     22  O   UNL     1       6.921   5.239  14.295  0.00  0.00    +0.000 OA
ATOM     23  N   UNL     1       7.500   4.712  16.449  0.00  0.00    +0.000 N 
ATOM     24  C   UNL     1       6.935   4.854  17.676  0.00  0.00    +0.000 C 
ATOM     25  O   UNL     1       7.451   4.499  18.727  0.00  0.00    +0.000 OA
ATOM     26  H   UNL     1       4.815   6.116  15.536  0.00  0.00    +0.000 HD
ATOM     27  H   UNL     1       8.409   4.324  16.267  0.00  0.00    +0.000 HD
ENDBRANCH  18  19
ENDBRANCH  17  18
ENDBRANCH   5  17
TORSDOF 5
ENDMDL
MODEL 9
REMARK VINA RESULT:      -7.2      3.244      8.841
REMARK  Name = 
REMARK  6 active torsions:
REMARK  status: ('A' for Active; 'I' for Inactive)
REMARK    1  A    between atoms: C_1  and  O_2
REMARK    2  A    between atoms: O_2  and  C_3
REMARK    3  A    between atoms: C_7  and  N_8
REMARK    4  A    between atoms: C_12  and  C_14
REMARK    5  A    between atoms: C_14  and  C_15
REMARK    6  A    between atoms: C_15  and  C_16
REMARK                            x       y       z     vdW  Elec       q    Type
REMARK                         _______ _______ _______ _____ _____    ______ ____
ROOT
ATOM      1  N   UNL     1       2.130   7.573  19.386  0.00  0.00    +0.000 N 
ATOM      2  C   UNL     1       2.176   8.597  18.334  0.00  0.00    +0.000 C 
ATOM      3  C   UNL     1       0.804   9.283  18.274  0.00  0.00    +0.000 C 
ATOM      4  N   UNL     1       0.440   9.851  19.580  0.00  0.00    +0.000 N 
ATOM      5  C   UNL     1       0.104  11.165  19.831  0.00  0.00    +0.000 C 
ATOM      6  O   UNL     1      -0.208  11.568  20.952  0.00  0.00    +0.000 OA
ATOM      7  C   UNL     1       0.476   8.873  20.686  0.00  0.00    +0.000 C 
ATOM      8  C   UNL     1       1.807   8.091  20.729  0.00  0.00    +0.000 C 
ENDROOT
BRANCH   1  13
ATOM      9  C   UNL     1       3.142   4.036  19.937  0.00  0.00    +0.000 A 
ATOM     10  C   UNL     1       4.140   3.907  18.974  0.00  0.00    +0.000 A 
ATOM     11  C   UNL     1       4.442   4.973  18.131  0.00  0.00    +0.000 A 
ATOM     12  C   UNL     1       3.745   6.177  18.255  0.00  0.00    +0.000 A 
ATOM     13  C   UNL     1       2.741   6.346  19.218  0.00  0.00    +0.000 A 
ATOM     14  C   UNL     1       2.450   5.247  20.046  0.00  0.00    +0.000 A 
BRANCH   9  16
ATOM     15  C   UNL     1       1.789   2.930  21.549  0.00  0.00    +0.000 C 
ATOM     16  O   UNL     1       2.944   2.930  20.717  0.00  0.00    +0.000 OA
ENDBRANCH   9  16
ENDBRANCH   1  13
BRANCH   5  17
ATOM     17  C   UNL     1       0.100  12.138  18.664  0.00  0.00    +0.000 C 
BRANCH  17  18
ATOM     18  C   UNL     1      -1.327  12.530  18.283  0.00  0.00    +0.000 C 
BRANCH  18  19
ATOM     19  C   UNL     1      -2.180  11.329  17.894  0.00  0.00    +0.000 C 
ATOM     20  N   UNL     1      -1.914  10.898  16.541  0.00  0.00    +0.000 N 
ATOM     21  C   UNL     1      -3.038  10.924  15.751  0.00  0.00    +0.000 C 
ATOM     22  O   UNL     1      -3.085  10.564  14.588  0.00  0.00    +0.000 OA
ATOM     23  N   UNL     1      -4.066  11.405  16.482  0.00  0.00    +0.000 N 
ATOM     24  C   UNL     1      -3.669  11.672  17.753  0.00  0.00    +0.000 C 
ATOM     25  O   UNL     1      -4.393  12.120  18.630  0.00  0.00    +0.000 OA
ATOM     26  H   UNL     1      -1.048  10.496  16.199  0.00  0.00    +0.000 HD
ATOM     27  H   UNL     1      -4.999  11.522  16.126  0.00  0.00    +0.000 HD
ENDBRANCH  18  19
ENDBRANCH  17  18
ENDBRANCH   5  17
TORSDOF 5
ENDMDL
