MODEL 1
REMARK VINA RESULT:      -7.2      0.000      0.000
REMARK  Name = 
REMARK  6 active torsions:
REMARK  status: ('A' for Active; 'I' for Inactive)
REMARK    1  A    between atoms: C_2  and  O_3
REMARK    2  A    between atoms: C_2  and  C_4
REMARK    3  A    between atoms: C_5  and  C_6
REMARK    4  A    between atoms: N_8  and  C_9
REMARK    5  A    between atoms: C_12  and  O_13
REMARK    6  A    between atoms: O_13  and  C_14
REMARK                            x       y       z     vdW  Elec       q    Type
REMARK                         _______ _______ _______ _____ _____    ______ ____
ROOT
ATOM      1  C   UNL     1       4.163   3.963  17.254  0.00  0.00    +0.000 A 
ATOM      2  C   UNL     1       3.880   2.632  17.580  0.00  0.00    +0.000 A 
ATOM      3  C   UNL     1       2.965   2.313  18.582  0.00  0.00    +0.000 A 
ATOM      4  C   UNL     1       2.330   3.315  19.309  0.00  0.00    +0.000 A 
ATOM      5  C   UNL     1       2.585   4.648  18.994  0.00  0.00    +0.000 A 
ATOM      6  C   UNL     1       3.512   4.968  17.986  0.00  0.00    +0.000 A 
ATOM      7 BR   UNL     1       3.809   6.810  17.613  0.00  0.00    +0.000 Br
ENDROOT
BRANCH   1  10
ATOM      8  C   UNL     1       6.423   4.520  16.401  0.00  0.00    +0.000 C 
ATOM      9  O   UNL     1       7.036   4.392  17.459  0.00  0.00    +0.000 OA
ATOM     10  N   UNL     1       5.077   4.298  16.216  0.00  0.00    +0.000 N 
ATOM     11  H   UNL     1       4.710   4.260  15.271  0.00  0.00    +0.000 HD
BRANCH   8  13
ATOM     12  C   UNL     1       6.686   4.408  14.029  0.00  0.00    +0.000 C 
ATOM     13  C   UNL     1       7.169   4.905  15.180  0.00  0.00    +0.000 C 
BRANCH  12  15
ATOM     14  O   UNL     1       7.131   4.034  11.727  0.00  0.00    +0.000 OA
ATOM     15  C   UNL     1       7.326   4.681  12.740  0.00  0.00    +0.000 C 
BRANCH  15  16
ATOM     16  O   UNL     1       8.168   5.735  12.811  0.00  0.00    +0.000 OA
ATOM     17  H   UNL     1       9.008   5.644  12.321  0.00  0.00    +0.000 HD
ENDBRANCH  15  16
ENDBRANCH  12  15
ENDBRANCH   8  13
ENDBRANCH   1  10
BRANCH   4  18
ATOM     18  O   UNL     1       1.436   2.859  20.228  0.00  0.00    +0.000 OA
BRANCH  18  19
ATOM     19  C   UNL     1       1.778   2.878  21.606  0.00  0.00    +0.000 C 
ATOM     20  F   UNL     1       0.812   2.412  22.422  0.00  0.00    +0.000 F 
ATOM     21  F   UNL     1       2.894   2.140  21.788  0.00  0.00    +0.000 F 
ATOM     22  F   UNL     1       2.051   4.152  21.965  0.00  0.00    +0.000 F 
ENDBRANCH  18  19
ENDBRANCH   4  18
TORSDOF 6
ENDMDL
MODEL 2
REMARK VINA RESULT:      -7.1      1.133      1.449
REMARK  Name = 
REMARK  6 active torsions:
REMARK  status: ('A' for Active; 'I' for Inactive)
REMARK    1  A    between atoms: C_2  and  O_3
REMARK    2  A    between atoms: C_2  and  C_4
REMARK    3  A    between atoms: C_5  and  C_6
REMARK    4  A    between atoms: N_8  and  C_9
REMARK    5  A    between atoms: C_12  and  O_13
REMARK    6  A    between atoms: O_13  and  C_14
REMARK                            x       y       z     vdW  Elec       q    Type
REMARK                         _______ _______ _______ _____ _____    ______ ____
ROOT
ATOM      1  C   UNL     1       4.611   4.015  17.286  0.00  0.00    +0.000 A 
ATOM      2  C   UNL     1       4.376   2.772  17.884  0.00  0.00    +0.000 A 
ATOM      3  C   UNL     1       3.704   2.671  19.102  0.00  0.00    +0.000 A 
ATOM      4  C   UNL     1       3.276   3.812  19.773  0.00  0.00    +0.000 A 
ATOM      5  C   UNL     1       3.485   5.061  19.192  0.00  0.00    +0.000 A 
ATOM      6  C   UNL     1       4.168   5.161  17.965  0.00  0.00    +0.000 A 
ATOM      7 BR   UNL     1       4.418   6.899  17.234  0.00  0.00    +0.000 Br
ENDROOT
BRANCH   1  10
ATOM      8  C   UNL     1       6.605   4.439  15.877  0.00  0.00    +0.000 C 
ATOM      9  O   UNL     1       7.420   4.595  16.784  0.00  0.00    +0.000 OA
ATOM     10  N   UNL     1       5.274   4.126  16.032  0.00  0.00    +0.000 N 
ATOM     11  H   UNL     1       4.735   3.847  15.219  0.00  0.00    +0.000 HD
BRANCH   8  13
ATOM     12  C   UNL     1       6.465   3.713  13.605  0.00  0.00    +0.000 C 
ATOM     13  C   UNL     1       7.064   4.547  14.472  0.00  0.00    +0.000 C 
BRANCH  12  15
ATOM     14  O   UNL     1       7.255   4.644  11.568  0.00  0.00    +0.000 OA
ATOM     15  C   UNL     1       6.826   3.686  12.185  0.00  0.00    +0.000 C 
BRANCH  15  16
ATOM     16  O   UNL     1       6.619   2.468  11.638  0.00  0.00    +0.000 OA
ATOM     17  H   UNL     1       5.722   2.097  11.750  0.00  0.00    +0.000 HD
ENDBRANCH  15  16
ENDBRANCH  12  15
ENDBRANCH   8  13
ENDBRANCH   1  10
BRANCH   4  18
ATOM     18  O   UNL     1       2.602   3.563  20.928  0.00  0.00    +0.000 OA
BRANCH  18  19
ATOM     19  C   UNL     1       1.216   3.261  20.878  0.00  0.00    +0.000 C 
ATOM     20  F   UNL     1       0.864   2.445  19.865  0.00  0.00    +0.000 F 
ATOM     21  F   UNL     1       0.852   2.686  22.045  0.00  0.00    +0.000 F 
ATOM     22  F   UNL     1       0.527   4.416  20.745  0.00  0.00    +0.000 F 
ENDBRANCH  18  19
ENDBRANCH   4  18
TORSDOF 6
ENDMDL
MODEL 3
REMARK VINA RESULT:      -7.0      0.586      1.259
REMARK  Name = 
REMARK  6 active torsions:
REMARK  status: ('A' for Active; 'I' for Inactive)
REMARK    1  A    between atoms: C_2  and  O_3
REMARK    2  A    between atoms: C_2  and  C_4
REMARK    3  A    between atoms: C_5  and  C_6
REMARK    4  A    between atoms: N_8  and  C_9
REMARK    5  A    between atoms: C_12  and  O_13
REMARK    6  A    between atoms: O_13  and  C_14
REMARK                            x       y       z     vdW  Elec       q    Type
REMARK                         _______ _______ _______ _____ _____    ______ ____
ROOT
ATOM      1  C   UNL     1       3.929   3.910  17.092  0.00  0.00    +0.000 A 
ATOM      2  C   UNL     1       3.477   2.646  17.484  0.00  0.00    +0.000 A 
ATOM      3  C   UNL     1       2.631   2.489  18.581  0.00  0.00    +0.000 A 
ATOM      4  C   UNL     1       2.239   3.588  19.338  0.00  0.00    +0.000 A 
ATOM      5  C   UNL     1       2.665   4.860  18.960  0.00  0.00    +0.000 A 
ATOM      6  C   UNL     1       3.523   5.015  17.856  0.00  0.00    +0.000 A 
ATOM      7 BR   UNL     1       4.064   6.782  17.401  0.00  0.00    +0.000 Br
ENDROOT
BRANCH   1  10
ATOM      8  C   UNL     1       6.131   4.300  16.022  0.00  0.00    +0.000 C 
ATOM      9  O   UNL     1       6.814   4.306  17.044  0.00  0.00    +0.000 OA
ATOM     10  N   UNL     1       4.773   4.082  15.959  0.00  0.00    +0.000 N 
ATOM     11  H   UNL     1       4.341   3.923  15.056  0.00  0.00    +0.000 HD
BRANCH   8  13
ATOM     12  C   UNL     1       6.339   3.728  13.712  0.00  0.00    +0.000 C 
ATOM     13  C   UNL     1       6.795   4.500  14.713  0.00  0.00    +0.000 C 
BRANCH  12  15
ATOM     14  O   UNL     1       7.439   4.783  11.891  0.00  0.00    +0.000 OA
ATOM     15  C   UNL     1       6.908   3.794  12.364  0.00  0.00    +0.000 C 
BRANCH  15  16
ATOM     16  O   UNL     1       6.769   2.624  11.702  0.00  0.00    +0.000 OA
ATOM     17  H   UNL     1       6.140   2.630  10.954  0.00  0.00    +0.000 HD
ENDBRANCH  15  16
ENDBRANCH  12  15
ENDBRANCH   8  13
ENDBRANCH   1  10
BRANCH   4  18
ATOM     18  O   UNL     1       1.383   3.292  20.354  0.00  0.00    +0.000 OA
BRANCH  18  19
ATOM     19  C   UNL     1       1.900   3.043  21.652  0.00  0.00    +0.000 C 
ATOM     20  F   UNL     1       2.951   2.201  21.677  0.00  0.00    +0.000 F 
ATOM     21  F   UNL     1       2.271   4.218  22.207  0.00  0.00    +0.000 F 
ATOM     22  F   UNL     1       0.918   2.510  22.413  0.00  0.00    +0.000 F 
ENDBRANCH  18  19
ENDBRANCH   4  18
TORSDOF 6
ENDMDL
MODEL 4
REMARK VINA RESULT:      -6.9      4.929      7.922
REMARK  Name = 
REMARK  6 active torsions:
REMARK  status: ('A' for Active; 'I' for Inactive)
REMARK    1  A    between atoms: C_2  and  O_3
REMARK    2  A    between atoms: C_2  and  C_4
REMARK    3  A    between atoms: C_5  and  C_6
REMARK    4  A    between atoms: N_8  and  C_9
REMARK    5  A    between atoms: C_12  and  O_13
REMARK    6  A    between atoms: O_13  and  C_14
REMARK                            x       y       z     vdW  Elec       q    Type
REMARK                         _______ _______ _______ _____ _____    ______ ____
ROOT
ATOM      1  C   UNL     1       3.687   5.239  18.962  0.00  0.00    +0.000 A 
ATOM      2  C   UNL     1       5.030   5.604  18.823  0.00  0.00    +0.000 A 
ATOM      3  C   UNL     1       5.822   5.073  17.806  0.00  0.00    +0.000 A 
ATOM      4  C   UNL     1       5.302   4.137  16.917  0.00  0.00    +0.000 A 
ATOM      5  C   UNL     1       3.963   3.767  17.026  0.00  0.00    +0.000 A 
ATOM      6  C   UNL     1       3.168   4.300  18.057  0.00  0.00    +0.000 A 
ATOM      7 BR   UNL     1       1.349   3.748  18.143  0.00  0.00    +0.000 Br
ENDROOT
BRANCH   1  10
ATOM      8  C   UNL     1       2.239   7.019  19.902  0.00  0.00    +0.000 C 
ATOM      9  O   UNL     1       2.240   7.767  18.926  0.00  0.00    +0.000 OA
ATOM     10  N   UNL     1       2.865   5.795  19.982  0.00  0.00    +0.000 N 
ATOM     11  H   UNL     1       2.654   5.184  20.764  0.00  0.00    +0.000 HD
BRANCH   8  13
ATOM     12  C   UNL     1       1.054   8.688  21.134  0.00  0.00    +0.000 C 
ATOM     13  C   UNL     1       1.474   7.411  21.108  0.00  0.00    +0.000 C 
BRANCH  12  15
ATOM     14  O   UNL     1       0.585  10.268  22.843  0.00  0.00    +0.000 OA
ATOM     15  C   UNL     1       0.304   9.232  22.268  0.00  0.00    +0.000 C 
BRANCH  15  16
ATOM     16  O   UNL     1      -0.739   8.441  22.606  0.00  0.00    +0.000 OA
ATOM     17  H   UNL     1      -1.620   8.753  22.323  0.00  0.00    +0.000 HD
ENDBRANCH  15  16
ENDBRANCH  12  15
ENDBRANCH   8  13
ENDBRANCH   1  10
BRANCH   4  18
ATOM     18  O   UNL     1       6.174   3.734  15.954  0.00  0.00    +0.000 OA
BRANCH  18  19
ATOM     19  C   UNL     1       6.270   4.471  14.745  0.00  0.00    +0.000 C 
ATOM     20  F   UNL     1       5.290   5.380  14.572  0.00  0.00    +0.000 F 
ATOM     21  F   UNL     1       7.462   5.106  14.715  0.00  0.00    +0.000 F 
ATOM     22  F   UNL     1       6.227   3.606  13.707  0.00  0.00    +0.000 F 
ENDBRANCH  18  19
ENDBRANCH   4  18
TORSDOF 6
ENDMDL
MODEL 5
REMARK VINA RESULT:      -6.9      3.927      4.941
REMARK  Name = 
REMARK  6 active torsions:
REMARK  status: ('A' for Active; 'I' for Inactive)
REMARK    1  A    between atoms: C_2  and  O_3
REMARK    2  A    between atoms: C_2  and  C_4
REMARK    3  A    between atoms: C_5  and  C_6
REMARK    4  A    between atoms: N_8  and  C_9
REMARK    5  A    between atoms: C_12  and  O_13
REMARK    6  A    between atoms: O_13  and  C_14
REMARK                            x       y       z     vdW  Elec       q    Type
REMARK                         _______ _______ _______ _____ _____    ______ ____
ROOT
ATOM      1  C   UNL     1       5.354   6.199  17.155  0.00  0.00    +0.000 A 
ATOM      2  C   UNL     1       4.255   6.223  18.020  0.00  0.00    +0.000 A 
ATOM      3  C   UNL     1       3.391   5.132  18.121  0.00  0.00    +0.000 A 
ATOM      4  C   UNL     1       3.584   4.000  17.337  0.00  0.00    +0.000 A 
ATOM      5  C   UNL     1       4.679   3.946  16.478  0.00  0.00    +0.000 A 
ATOM      6  C   UNL     1       5.546   5.050  16.373  0.00  0.00    +0.000 A 
ATOM      7 BR   UNL     1       7.019   4.904  15.178  0.00  0.00    +0.000 Br
ENDROOT
BRANCH   1  10
ATOM      8  C   UNL     1       7.404   7.430  17.808  0.00  0.00    +0.000 C 
ATOM      9  O   UNL     1       7.852   6.600  18.597  0.00  0.00    +0.000 OA
ATOM     10  N   UNL     1       6.254   7.298  17.063  0.00  0.00    +0.000 N 
ATOM     11  H   UNL     1       6.071   7.960  16.317  0.00  0.00    +0.000 HD
BRANCH   8  13
ATOM     12  C   UNL     1       8.597   9.305  18.686  0.00  0.00    +0.000 C 
ATOM     13  C   UNL     1       8.160   8.683  17.577  0.00  0.00    +0.000 C 
BRANCH  12  15
ATOM     14  O   UNL     1       9.321  11.326  17.671  0.00  0.00    +0.000 OA
ATOM     15  C   UNL     1       9.340  10.566  18.622  0.00  0.00    +0.000 C 
BRANCH  15  16
ATOM     16  O   UNL     1      10.059  10.782  19.746  0.00  0.00    +0.000 OA
ATOM     17  H   UNL     1       9.860  10.193  20.499  0.00  0.00    +0.000 HD
ENDBRANCH  15  16
ENDBRANCH  12  15
ENDBRANCH   8  13
ENDBRANCH   1  10
BRANCH   4  18
ATOM     18  O   UNL     1       2.690   3.000  17.568  0.00  0.00    +0.000 OA
BRANCH  18  19
ATOM     19  C   UNL     1       2.960   2.040  18.577  0.00  0.00    +0.000 C 
ATOM     20  F   UNL     1       3.699   2.508  19.602  0.00  0.00    +0.000 F 
ATOM     21  F   UNL     1       1.788   1.576  19.063  0.00  0.00    +0.000 F 
ATOM     22  F   UNL     1       3.625   1.003  18.020  0.00  0.00    +0.000 F 
ENDBRANCH  18  19
ENDBRANCH   4  18
TORSDOF 6
ENDMDL
MODEL 6
REMARK VINA RESULT:      -6.8      3.842      4.667
REMARK  Name = 
REMARK  6 active torsions:
REMARK  status: ('A' for Active; 'I' for Inactive)
REMARK    1  A    between atoms: C_2  and  O_3
REMARK    2  A    between atoms: C_2  and  C_4
REMARK    3  A    between atoms: C_5  and  C_6
REMARK    4  A    between atoms: N_8  and  C_9
REMARK    5  A    between atoms: C_12  and  O_13
REMARK    6  A    between atoms: O_13  and  C_14
REMARK                            x       y       z     vdW  Elec       q    Type
REMARK                         _______ _______ _______ _____ _____    ______ ____
ROOT
ATOM      1  C   UNL     1       5.171   6.007  17.708  0.00  0.00    +0.000 A 
ATOM      2  C   UNL     1       4.518   5.860  18.936  0.00  0.00    +0.000 A 
ATOM      3  C   UNL     1       3.695   4.763  19.190  0.00  0.00    +0.000 A 
ATOM      4  C   UNL     1       3.475   3.799  18.211  0.00  0.00    +0.000 A 
ATOM      5  C   UNL     1       4.125   3.916  16.985  0.00  0.00    +0.000 A 
ATOM      6  C   UNL     1       4.951   5.026  16.729  0.00  0.00    +0.000 A 
ATOM      7 BR   UNL     1       5.804   5.118  15.031  0.00  0.00    +0.000 Br
ENDROOT
BRANCH   1  10
ATOM      8  C   UNL     1       7.321   7.223  17.921  0.00  0.00    +0.000 C 
ATOM      9  O   UNL     1       7.931   6.371  18.563  0.00  0.00    +0.000 OA
ATOM     10  N   UNL     1       6.033   7.110  17.449  0.00  0.00    +0.000 N 
ATOM     11  H   UNL     1       5.690   7.794  16.784  0.00  0.00    +0.000 HD
BRANCH   8  13
ATOM     12  C   UNL     1       8.498   9.188  18.600  0.00  0.00    +0.000 C 
ATOM     13  C   UNL     1       8.011   8.485  17.563  0.00  0.00    +0.000 C 
BRANCH  12  15
ATOM     14  O   UNL     1      10.275  10.738  18.886  0.00  0.00    +0.000 OA
ATOM     15  C   UNL     1       9.187  10.467  18.410  0.00  0.00    +0.000 C 
BRANCH  15  16
ATOM     16  O   UNL     1       8.466  11.317  17.646  0.00  0.00    +0.000 OA
ATOM     17  H   UNL     1       8.828  12.220  17.554  0.00  0.00    +0.000 HD
ENDBRANCH  15  16
ENDBRANCH  12  15
ENDBRANCH   8  13
ENDBRANCH   1  10
BRANCH   4  18
ATOM     18  O   UNL     1       2.683   2.768  18.609  0.00  0.00    +0.000 OA
BRANCH  18  19
ATOM     19  C   UNL     1       1.288   2.980  18.772  0.00  0.00    +0.000 C 
ATOM     20  F   UNL     1       0.929   3.370  20.010  0.00  0.00    +0.000 F 
ATOM     21  F   UNL     1       0.884   3.916  17.886  0.00  0.00    +0.000 F 
ATOM     22  F   UNL     1       0.641   1.827  18.491  0.00  0.00    +0.000 F 
ENDBRANCH  18  19
ENDBRANCH   4  18
TORSDOF 6
ENDMDL
MODEL 7
REMARK VINA RESULT:      -6.8      1.712      2.033
REMARK  Name = 
REMARK  6 active torsions:
REMARK  status: ('A' for Active; 'I' for Inactive)
REMARK    1  A    between atoms: C_2  and  O_3
REMARK    2  A    between atoms: C_2  and  C_4
REMARK    3  A    between atoms: C_5  and  C_6
REMARK    4  A    between atoms: N_8  and  C_9
REMARK    5  A    between atoms: C_12  and  O_13
REMARK    6  A    between atoms: O_13  and  C_14
REMARK                            x       y       z     vdW  Elec       q    Type
REMARK                         _______ _______ _______ _____ _____    ______ ____
ROOT
ATOM      1  C   UNL     1       4.789   4.166  17.149  0.00  0.00    +0.000 A 
ATOM      2  C   UNL     1       3.430   3.847  17.225  0.00  0.00    +0.000 A 
ATOM      3  C   UNL     1       2.716   4.006  18.413  0.00  0.00    +0.000 A 
ATOM      4  C   UNL     1       3.349   4.458  19.566  0.00  0.00    +0.000 A 
ATOM      5  C   UNL     1       4.699   4.795  19.512  0.00  0.00    +0.000 A 
ATOM      6  C   UNL     1       5.419   4.629  18.315  0.00  0.00    +0.000 A 
ATOM      7 BR   UNL     1       7.260   5.110  18.318  0.00  0.00    +0.000 Br
ENDROOT
BRANCH   1  10
ATOM      8  C   UNL     1       5.765   5.058  15.051  0.00  0.00    +0.000 C 
ATOM      9  O   UNL     1       5.457   6.237  15.213  0.00  0.00    +0.000 OA
ATOM     10  N   UNL     1       5.520   4.031  15.935  0.00  0.00    +0.000 N 
ATOM     11  H   UNL     1       5.970   3.134  15.786  0.00  0.00    +0.000 HD
BRANCH   8  13
ATOM     12  C   UNL     1       5.988   3.634  13.146  0.00  0.00    +0.000 C 
ATOM     13  C   UNL     1       6.506   4.669  13.829  0.00  0.00    +0.000 C 
BRANCH  12  15
ATOM     14  O   UNL     1       7.457   3.721  11.283  0.00  0.00    +0.000 OA
ATOM     15  C   UNL     1       6.618   3.119  11.928  0.00  0.00    +0.000 C 
BRANCH  15  16
ATOM     16  O   UNL     1       6.152   1.893  11.601  0.00  0.00    +0.000 OA
ATOM     17  H   UNL     1       5.924   1.761  10.660  0.00  0.00    +0.000 HD
ENDBRANCH  15  16
ENDBRANCH  12  15
ENDBRANCH   8  13
ENDBRANCH   1  10
BRANCH   4  18
ATOM     18  O   UNL     1       2.524   4.601  20.638  0.00  0.00    +0.000 OA
BRANCH  18  19
ATOM     19  C   UNL     1       2.047   3.447  21.313  0.00  0.00    +0.000 C 
ATOM     20  F   UNL     1       0.742   3.183  21.105  0.00  0.00    +0.000 F 
ATOM     21  F   UNL     1       2.775   2.379  20.918  0.00  0.00    +0.000 F 
ATOM     22  F   UNL     1       2.234   3.615  22.641  0.00  0.00    +0.000 F 
ENDBRANCH  18  19
ENDBRANCH   4  18
TORSDOF 6
ENDMDL
MODEL 8
REMARK VINA RESULT:      -6.8      4.981      7.767
REMARK  Name = 
REMARK  6 active torsions:
REMARK  status: ('A' for Active; 'I' for Inactive)
REMARK    1  A    between atoms: C_2  and  O_3
REMARK    2  A    between atoms: C_2  and  C_4
REMARK    3  A    between atoms: C_5  and  C_6
REMARK    4  A    between atoms: N_8  and  C_9
REMARK    5  A    between atoms: C_12  and  O_13
REMARK    6  A    between atoms: O_13  and  C_14
REMARK                            x       y       z     vdW  Elec       q    Type
REMARK                         _______ _______ _______ _____ _____    ______ ____
ROOT
ATOM      1  C   UNL     1       3.712   6.077  17.962  0.00  0.00    +0.000 A 
ATOM      2  C   UNL     1       4.948   6.534  17.492  0.00  0.00    +0.000 A 
ATOM      3  C   UNL     1       5.749   5.739  16.673  0.00  0.00    +0.000 A 
ATOM      4  C   UNL     1       5.353   4.451  16.328  0.00  0.00    +0.000 A 
ATOM      5  C   UNL     1       4.120   3.978  16.772  0.00  0.00    +0.000 A 
ATOM      6  C   UNL     1       3.315   4.780  17.602  0.00  0.00    +0.000 A 
ATOM      7 BR   UNL     1       1.646   4.065  18.170  0.00  0.00    +0.000 Br
ENDROOT
BRANCH   1  10
ATOM      8  C   UNL     1       2.314   8.082  18.376  0.00  0.00    +0.000 C 
ATOM      9  O   UNL     1       2.390   8.573  17.251  0.00  0.00    +0.000 OA
ATOM     10  N   UNL     1       2.877   6.891  18.777  0.00  0.00    +0.000 N 
ATOM     11  H   UNL     1       2.606   6.494  19.670  0.00  0.00    +0.000 HD
BRANCH   8  13
ATOM     12  C   UNL     1       1.496   8.186  20.618  0.00  0.00    +0.000 C 
ATOM     13  C   UNL     1       1.520   8.781  19.413  0.00  0.00    +0.000 C 
BRANCH  12  15
ATOM     14  O   UNL     1      -0.455   8.567  21.917  0.00  0.00    +0.000 OA
ATOM     15  C   UNL     1       0.737   8.743  21.740  0.00  0.00    +0.000 C 
BRANCH  15  16
ATOM     16  O   UNL     1       1.518   9.486  22.555  0.00  0.00    +0.000 OA
ATOM     17  H   UNL     1       2.464   9.530  22.316  0.00  0.00    +0.000 HD
ENDBRANCH  15  16
ENDBRANCH  12  15
ENDBRANCH   8  13
ENDBRANCH   1  10
BRANCH   4  18
ATOM     18  O   UNL     1       6.212   3.805  15.494  0.00  0.00    +0.000 OA
BRANCH  18  19
ATOM     19  C   UNL     1       6.207   4.112  14.109  0.00  0.00    +0.000 C 
ATOM     20  F   UNL     1       6.476   3.062  13.308  0.00  0.00    +0.000 F 
ATOM     21  F   UNL     1       4.996   4.612  13.778  0.00  0.00    +0.000 F 
ATOM     22  F   UNL     1       7.134   5.067  13.874  0.00  0.00    +0.000 F 
ENDBRANCH  18  19
ENDBRANCH   4  18
TORSDOF 6
ENDMDL
MODEL 9
REMARK VINA RESULT:      -6.8      1.395      1.818
REMARK  Name = 
REMARK  6 active torsions:
REMARK  status: ('A' for Active; 'I' for Inactive)
REMARK    1  A    between atoms: C_2  and  O_3
REMARK    2  A    between atoms: C_2  and  C_4
REMARK    3  A    between atoms: C_5  and  C_6
REMARK    4  A    between atoms: N_8  and  C_9
REMARK    5  A    between atoms: C_12  and  O_13
REMARK    6  A    between atoms: O_13  and  C_14
REMARK                            x       y       z     vdW  Elec       q    Type
REMARK                         _______ _______ _______ _____ _____    ______ ____
ROOT
ATOM      1  C   UNL     1       4.237   3.733  17.207  0.00  0.00    +0.000 A 
ATOM      2  C   UNL     1       2.954   3.194  17.074  0.00  0.00    +0.000 A 
ATOM      3  C   UNL     1       2.084   3.119  18.162  0.00  0.00    +0.000 A 
ATOM      4  C   UNL     1       2.486   3.551  19.422  0.00  0.00    +0.000 A 
ATOM      5  C   UNL     1       3.754   4.105  19.577  0.00  0.00    +0.000 A 
ATOM      6  C   UNL     1       4.631   4.175  18.479  0.00  0.00    +0.000 A 
ATOM      7 BR   UNL     1       6.348   4.943  18.770  0.00  0.00    +0.000 Br
ENDROOT
BRANCH   1  10
ATOM      8  C   UNL     1       5.402   5.006  15.427  0.00  0.00    +0.000 C 
ATOM      9  O   UNL     1       4.992   6.126  15.728  0.00  0.00    +0.000 OA
ATOM     10  N   UNL     1       5.122   3.837  16.097  0.00  0.00    +0.000 N 
ATOM     11  H   UNL     1       5.650   3.001  15.871  0.00  0.00    +0.000 HD
BRANCH   8  13
ATOM     12  C   UNL     1       5.984   3.903  13.389  0.00  0.00    +0.000 C 
ATOM     13  C   UNL     1       6.316   4.862  14.270  0.00  0.00    +0.000 C 
BRANCH  12  15
ATOM     14  O   UNL     1       7.487   4.453  11.636  0.00  0.00    +0.000 OA
ATOM     15  C   UNL     1       6.800   3.625  12.205  0.00  0.00    +0.000 C 
BRANCH  15  16
ATOM     16  O   UNL     1       6.694   2.335  11.813  0.00  0.00    +0.000 OA
ATOM     17  H   UNL     1       7.375   2.023  11.186  0.00  0.00    +0.000 HD
ENDBRANCH  15  16
ENDBRANCH  12  15
ENDBRANCH   8  13
ENDBRANCH   1  10
BRANCH   4  18
ATOM     18  O   UNL     1       1.524   3.454  20.379  0.00  0.00    +0.000 OA
BRANCH  18  19
ATOM     19  C   UNL     1       1.886   3.071  21.697  0.00  0.00    +0.000 C 
ATOM     20  F   UNL     1       2.386   4.074  22.447  0.00  0.00    +0.000 F 
ATOM     21  F   UNL     1       0.799   2.565  22.318  0.00  0.00    +0.000 F 
ATOM     22  F   UNL     1       2.821   2.098  21.623  0.00  0.00    +0.000 F 
ENDBRANCH  18  19
ENDBRANCH   4  18
TORSDOF 6
ENDMDL
