MODEL 1
REMARK VINA RESULT:      -8.0      0.000      0.000
REMARK  Name = 
REMARK  4 active torsions:
REMARK  status: ('A' for Active; 'I' for Inactive)
REMARK    1  A    between atoms: C_1  and  C_2
REMARK    2  A    between atoms: C_12  and  C_13
REMARK    3  A    between atoms: C_13  and  O_14
REMARK    4  A    between atoms: C_13  and  C_15
REMARK                            x       y       z     vdW  Elec       q    Type
REMARK                         _______ _______ _______ _____ _____    ______ ____
ROOT
ATOM      1  C   UNL     1       4.496   4.868  16.113  0.00  0.00    +0.000 C 
ATOM      2  C   UNL     1       4.309   5.293  17.602  0.00  0.00    +0.000 C 
ATOM      3  C   UNL     1       5.155   6.578  17.807  0.00  0.00    +0.000 C 
ATOM      4  C   UNL     1       6.662   6.344  17.794  0.00  0.00    +0.000 C 
ATOM      5  C   UNL     1       7.017   5.301  18.825  0.00  0.00    +0.000 C 
ATOM      6  O   UNL     1       8.104   5.291  19.401  0.00  0.00    +0.000 OA
ATOM      7  C   UNL     1       6.066   4.185  19.052  0.00  0.00    +0.000 C 
ATOM      8  C   UNL     1       4.858   4.149  18.456  0.00  0.00    +0.000 C 
ATOM      9  C   UNL     1       4.039   2.876  18.504  0.00  0.00    +0.000 C 
ATOM     10  C   UNL     1       2.537   3.096  18.650  0.00  0.00    +0.000 C 
ATOM     11  C   UNL     1       1.998   4.181  17.718  0.00  0.00    +0.000 C 
ATOM     12  C   UNL     1       2.755   5.528  17.885  0.00  0.00    +0.000 C 
ENDROOT
BRANCH  12  13
ATOM     13  C   UNL     1       2.321   6.207  19.251  0.00  0.00    +0.000 C 
BRANCH  13  14
ATOM     14  C   UNL     1       1.996   7.693  19.088  0.00  0.00    +0.000 A 
ATOM     15  C   UNL     1       2.261   8.409  17.933  0.00  0.00    +0.000 A 
ATOM     16  S   UNL     1       1.660   9.999  17.968  0.00  0.00    +0.000 S 
ATOM     17  C   UNL     1       1.047   9.807  19.562  0.00  0.00    +0.000 A 
ATOM     18  C   UNL     1       0.306  10.755  20.292  0.00  0.00    +0.000 A 
ATOM     19  C   UNL     1      -0.078  10.459  21.597  0.00  0.00    +0.000 A 
ATOM     20  C   UNL     1       0.303   9.259  22.183  0.00  0.00    +0.000 A 
ATOM     21  C   UNL     1       1.018   8.312  21.444  0.00  0.00    +0.000 A 
ATOM     22  C   UNL     1       1.373   8.550  20.091  0.00  0.00    +0.000 A 
ENDBRANCH  13  14
BRANCH  13  23
ATOM     23  O   UNL     1       3.336   6.097  20.245  0.00  0.00    +0.000 OA
ATOM     24  H   UNL     1       4.146   6.485  19.892  0.00  0.00    +0.000 HD
ENDBRANCH  13  23
ENDBRANCH  12  13
TORSDOF 3
ENDMDL
MODEL 2
REMARK VINA RESULT:      -7.6      1.142      1.457
REMARK  Name = 
REMARK  4 active torsions:
REMARK  status: ('A' for Active; 'I' for Inactive)
REMARK    1  A    between atoms: C_1  and  C_2
REMARK    2  A    between atoms: C_12  and  C_13
REMARK    3  A    between atoms: C_13  and  O_14
REMARK    4  A    between atoms: C_13  and  C_15
REMARK                            x       y       z     vdW  Elec       q    Type
REMARK                         _______ _______ _______ _____ _____    ______ ____
ROOT
ATOM      1  C   UNL     1       2.318   3.625  17.033  0.00  0.00    +0.000 C 
ATOM      2  C   UNL     1       3.075   4.541  18.045  0.00  0.00    +0.000 C 
ATOM      3  C   UNL     1       3.822   5.610  17.203  0.00  0.00    +0.000 C 
ATOM      4  C   UNL     1       5.007   5.067  16.410  0.00  0.00    +0.000 C 
ATOM      5  C   UNL     1       5.959   4.365  17.348  0.00  0.00    +0.000 C 
ATOM      6  O   UNL     1       7.169   4.311  17.134  0.00  0.00    +0.000 OA
ATOM      7  C   UNL     1       5.390   3.615  18.494  0.00  0.00    +0.000 C 
ATOM      8  C   UNL     1       4.073   3.646  18.781  0.00  0.00    +0.000 C 
ATOM      9  C   UNL     1       3.504   2.665  19.784  0.00  0.00    +0.000 C 
ATOM     10  C   UNL     1       2.405   3.238  20.675  0.00  0.00    +0.000 C 
ATOM     11  C   UNL     1       1.369   4.049  19.898  0.00  0.00    +0.000 C 
ATOM     12  C   UNL     1       2.020   5.183  19.057  0.00  0.00    +0.000 C 
ENDROOT
BRANCH  12  13
ATOM     13  C   UNL     1       2.498   6.344  20.025  0.00  0.00    +0.000 C 
BRANCH  13  14
ATOM     14  C   UNL     1       1.923   7.707  19.631  0.00  0.00    +0.000 A 
ATOM     15  C   UNL     1       2.005   8.227  18.351  0.00  0.00    +0.000 A 
ATOM     16  S   UNL     1       1.152   9.685  18.155  0.00  0.00    +0.000 S 
ATOM     17  C   UNL     1       0.664   9.701  19.804  0.00  0.00    +0.000 A 
ATOM     18  C   UNL     1      -0.184  10.644  20.415  0.00  0.00    +0.000 A 
ATOM     19  C   UNL     1      -0.443  10.540  21.779  0.00  0.00    +0.000 A 
ATOM     20  C   UNL     1       0.162   9.543  22.532  0.00  0.00    +0.000 A 
ATOM     21  C   UNL     1       0.983   8.596  21.914  0.00  0.00    +0.000 A 
ATOM     22  C   UNL     1       1.222   8.630  20.516  0.00  0.00    +0.000 A 
ENDBRANCH  13  14
BRANCH  13  23
ATOM     23  O   UNL     1       3.917   6.468  20.046  0.00  0.00    +0.000 OA
ATOM     24  H   UNL     1       4.267   6.050  19.249  0.00  0.00    +0.000 HD
ENDBRANCH  13  23
ENDBRANCH  12  13
TORSDOF 3
ENDMDL
MODEL 3
REMARK VINA RESULT:      -7.2      1.829      2.922
REMARK  Name = 
REMARK  4 active torsions:
REMARK  status: ('A' for Active; 'I' for Inactive)
REMARK    1  A    between atoms: C_1  and  C_2
REMARK    2  A    between atoms: C_12  and  C_13
REMARK    3  A    between atoms: C_13  and  O_14
REMARK    4  A    between atoms: C_13  and  C_15
REMARK                            x       y       z     vdW  Elec       q    Type
REMARK                         _______ _______ _______ _____ _____    ______ ____
ROOT
ATOM      1  C   UNL     1       5.959   5.199  19.252  0.00  0.00    +0.000 C 
ATOM      2  C   UNL     1       4.545   5.206  18.592  0.00  0.00    +0.000 C 
ATOM      3  C   UNL     1       3.558   4.640  19.648  0.00  0.00    +0.000 C 
ATOM      4  C   UNL     1       3.713   3.145  19.911  0.00  0.00    +0.000 C 
ATOM      5  C   UNL     1       3.591   2.392  18.609  0.00  0.00    +0.000 C 
ATOM      6  O   UNL     1       3.151   1.245  18.554  0.00  0.00    +0.000 OA
ATOM      7  C   UNL     1       4.138   3.019  17.381  0.00  0.00    +0.000 C 
ATOM      8  C   UNL     1       4.624   4.276  17.380  0.00  0.00    +0.000 C 
ATOM      9  C   UNL     1       5.408   4.774  16.185  0.00  0.00    +0.000 C 
ATOM     10  C   UNL     1       5.161   6.237  15.831  0.00  0.00    +0.000 C 
ATOM     11  C   UNL     1       5.181   7.158  17.050  0.00  0.00    +0.000 C 
ATOM     12  C   UNL     1       4.184   6.698  18.151  0.00  0.00    +0.000 C 
ENDROOT
BRANCH  12  13
ATOM     13  C   UNL     1       2.703   7.019  17.683  0.00  0.00    +0.000 C 
BRANCH  13  14
ATOM     14  C   UNL     1       2.166   8.316  18.293  0.00  0.00    +0.000 A 
ATOM     15  C   UNL     1       2.156   9.527  17.622  0.00  0.00    +0.000 A 
ATOM     16  S   UNL     1       1.366  10.768  18.474  0.00  0.00    +0.000 S 
ATOM     17  C   UNL     1       1.033   9.735  19.808  0.00  0.00    +0.000 A 
ATOM     18  C   UNL     1       0.295  10.069  20.959  0.00  0.00    +0.000 A 
ATOM     19  C   UNL     1       0.157   9.126  21.974  0.00  0.00    +0.000 A 
ATOM     20  C   UNL     1       0.776   7.888  21.868  0.00  0.00    +0.000 A 
ATOM     21  C   UNL     1       1.487   7.555  20.711  0.00  0.00    +0.000 A 
ATOM     22  C   UNL     1       1.598   8.464  19.628  0.00  0.00    +0.000 A 
ENDBRANCH  13  14
BRANCH  13  23
ATOM     23  O   UNL     1       1.798   5.975  18.029  0.00  0.00    +0.000 OA
ATOM     24  H   UNL     1       2.107   5.160  17.614  0.00  0.00    +0.000 HD
ENDBRANCH  13  23
ENDBRANCH  12  13
TORSDOF 3
ENDMDL
MODEL 4
REMARK VINA RESULT:      -7.2      2.778      6.541
REMARK  Name = 
REMARK  4 active torsions:
REMARK  status: ('A' for Active; 'I' for Inactive)
REMARK    1  A    between atoms: C_1  and  C_2
REMARK    2  A    between atoms: C_12  and  C_13
REMARK    3  A    between atoms: C_13  and  O_14
REMARK    4  A    between atoms: C_13  and  C_15
REMARK                            x       y       z     vdW  Elec       q    Type
REMARK                         _______ _______ _______ _____ _____    ______ ____
ROOT
ATOM      1  C   UNL     1       0.882   4.008  18.083  0.00  0.00    +0.000 C 
ATOM      2  C   UNL     1       2.203   3.991  18.913  0.00  0.00    +0.000 C 
ATOM      3  C   UNL     1       2.556   2.499  19.155  0.00  0.00    +0.000 C 
ATOM      4  C   UNL     1       1.628   1.788  20.135  0.00  0.00    +0.000 C 
ATOM      5  C   UNL     1       1.597   2.548  21.439  0.00  0.00    +0.000 C 
ATOM      6  O   UNL     1       1.404   1.991  22.518  0.00  0.00    +0.000 OA
ATOM      7  C   UNL     1       1.677   4.029  21.390  0.00  0.00    +0.000 C 
ATOM      8  C   UNL     1       1.896   4.691  20.237  0.00  0.00    +0.000 C 
ATOM      9  C   UNL     1       1.706   6.193  20.191  0.00  0.00    +0.000 C 
ATOM     10  C   UNL     1       2.713   6.931  19.315  0.00  0.00    +0.000 C 
ATOM     11  C   UNL     1       2.931   6.261  17.959  0.00  0.00    +0.000 C 
ATOM     12  C   UNL     1       3.338   4.768  18.100  0.00  0.00    +0.000 C 
ENDROOT
BRANCH  12  13
ATOM     13  C   UNL     1       4.837   4.679  18.608  0.00  0.00    +0.000 C 
BRANCH  13  14
ATOM     14  C   UNL     1       5.818   5.369  17.657  0.00  0.00    +0.000 A 
ATOM     15  C   UNL     1       6.643   6.413  18.039  0.00  0.00    +0.000 A 
ATOM     16  S   UNL     1       7.738   6.890  16.829  0.00  0.00    +0.000 S 
ATOM     17  C   UNL     1       7.122   5.732  15.717  0.00  0.00    +0.000 A 
ATOM     18  C   UNL     1       7.613   5.472  14.424  0.00  0.00    +0.000 A 
ATOM     19  C   UNL     1       6.966   4.530  13.629  0.00  0.00    +0.000 A 
ATOM     20  C   UNL     1       5.826   3.887  14.094  0.00  0.00    +0.000 A 
ATOM     21  C   UNL     1       5.360   4.132  15.388  0.00  0.00    +0.000 A 
ATOM     22  C   UNL     1       6.027   5.038  16.251  0.00  0.00    +0.000 A 
ENDBRANCH  13  14
BRANCH  13  23
ATOM     23  O   UNL     1       5.268   3.330  18.763  0.00  0.00    +0.000 OA
ATOM     24  H   UNL     1       5.613   3.227  19.659  0.00  0.00    +0.000 HD
ENDBRANCH  13  23
ENDBRANCH  12  13
TORSDOF 3
ENDMDL
MODEL 5
REMARK VINA RESULT:      -7.1      1.412      1.666
REMARK  Name = 
REMARK  4 active torsions:
REMARK  status: ('A' for Active; 'I' for Inactive)
REMARK    1  A    between atoms: C_1  and  C_2
REMARK    2  A    between atoms: C_12  and  C_13
REMARK    3  A    between atoms: C_13  and  O_14
REMARK    4  A    between atoms: C_13  and  C_15
REMARK                            x       y       z     vdW  Elec       q    Type
REMARK                         _______ _______ _______ _____ _____    ______ ____
ROOT
ATOM      1  C   UNL     1       2.922   3.818  17.050  0.00  0.00    +0.000 C 
ATOM      2  C   UNL     1       3.647   5.067  17.641  0.00  0.00    +0.000 C 
ATOM      3  C   UNL     1       4.529   5.649  16.503  0.00  0.00    +0.000 C 
ATOM      4  C   UNL     1       5.740   4.791  16.151  0.00  0.00    +0.000 C 
ATOM      5  C   UNL     1       6.562   4.549  17.393  0.00  0.00    +0.000 C 
ATOM      6  O   UNL     1       7.780   4.383  17.351  0.00  0.00    +0.000 OA
ATOM      7  C   UNL     1       5.851   4.384  18.684  0.00  0.00    +0.000 C 
ATOM      8  C   UNL     1       4.519   4.563  18.791  0.00  0.00    +0.000 C 
ATOM      9  C   UNL     1       3.805   4.127  20.053  0.00  0.00    +0.000 C 
ATOM     10  C   UNL     1       2.673   5.052  20.490  0.00  0.00    +0.000 C 
ATOM     11  C   UNL     1       1.761   5.465  19.336  0.00  0.00    +0.000 C 
ATOM     12  C   UNL     1       2.551   6.107  18.162  0.00  0.00    +0.000 C 
ENDROOT
BRANCH  12  13
ATOM     13  C   UNL     1       3.018   7.564  18.578  0.00  0.00    +0.000 C 
BRANCH  13  14
ATOM     14  C   UNL     1       1.840   8.524  18.765  0.00  0.00    +0.000 A 
ATOM     15  C   UNL     1       1.175   9.127  17.711  0.00  0.00    +0.000 A 
ATOM     16  S   UNL     1      -0.187  10.022  18.192  0.00  0.00    +0.000 S 
ATOM     17  C   UNL     1       0.081   9.669  19.854  0.00  0.00    +0.000 A 
ATOM     18  C   UNL     1      -0.741  10.047  20.932  0.00  0.00    +0.000 A 
ATOM     19  C   UNL     1      -0.353   9.720  22.228  0.00  0.00    +0.000 A 
ATOM     20  C   UNL     1       0.850   9.065  22.455  0.00  0.00    +0.000 A 
ATOM     21  C   UNL     1       1.648   8.671  21.378  0.00  0.00    +0.000 A 
ATOM     22  C   UNL     1       1.259   8.930  20.039  0.00  0.00    +0.000 A 
ENDBRANCH  13  14
BRANCH  13  23
ATOM     23  O   UNL     1       3.891   8.139  17.611  0.00  0.00    +0.000 OA
ATOM     24  H   UNL     1       3.621   9.056  17.471  0.00  0.00    +0.000 HD
ENDBRANCH  13  23
ENDBRANCH  12  13
TORSDOF 3
ENDMDL
MODEL 6
REMARK VINA RESULT:      -7.0      2.083      3.318
REMARK  Name = 
REMARK  4 active torsions:
REMARK  status: ('A' for Active; 'I' for Inactive)
REMARK    1  A    between atoms: C_1  and  C_2
REMARK    2  A    between atoms: C_12  and  C_13
REMARK    3  A    between atoms: C_13  and  O_14
REMARK    4  A    between atoms: C_13  and  C_15
REMARK                            x       y       z     vdW  Elec       q    Type
REMARK                         _______ _______ _______ _____ _____    ______ ____
ROOT
ATOM      1  C   UNL     1       6.124   5.100  19.202  0.00  0.00    +0.000 C 
ATOM      2  C   UNL     1       4.661   5.104  18.661  0.00  0.00    +0.000 C 
ATOM      3  C   UNL     1       3.783   4.432  19.751  0.00  0.00    +0.000 C 
ATOM      4  C   UNL     1       4.001   2.929  19.891  0.00  0.00    +0.000 C 
ATOM      5  C   UNL     1       3.792   2.264  18.553  0.00  0.00    +0.000 C 
ATOM      6  O   UNL     1       3.381   1.109  18.451  0.00  0.00    +0.000 OA
ATOM      7  C   UNL     1       4.216   2.994  17.333  0.00  0.00    +0.000 C 
ATOM      8  C   UNL     1       4.664   4.264  17.384  0.00  0.00    +0.000 C 
ATOM      9  C   UNL     1       5.331   4.870  16.167  0.00  0.00    +0.000 C 
ATOM     10  C   UNL     1       5.014   6.345  15.941  0.00  0.00    +0.000 C 
ATOM     11  C   UNL     1       5.110   7.179  17.218  0.00  0.00    +0.000 C 
ATOM     12  C   UNL     1       4.221   6.610  18.360  0.00  0.00    +0.000 C 
ENDROOT
BRANCH  12  13
ATOM     13  C   UNL     1       2.698   6.912  18.039  0.00  0.00    +0.000 C 
BRANCH  13  14
ATOM     14  C   UNL     1       2.009   7.695  19.159  0.00  0.00    +0.000 A 
ATOM     15  C   UNL     1       1.668   7.138  20.379  0.00  0.00    +0.000 A 
ATOM     16  S   UNL     1       1.054   8.267  21.492  0.00  0.00    +0.000 S 
ATOM     17  C   UNL     1       1.183   9.556  20.362  0.00  0.00    +0.000 A 
ATOM     18  C   UNL     1       0.897  10.912  20.604  0.00  0.00    +0.000 A 
ATOM     19  C   UNL     1       1.008  11.827  19.561  0.00  0.00    +0.000 A 
ATOM     20  C   UNL     1       1.357  11.397  18.288  0.00  0.00    +0.000 A 
ATOM     21  C   UNL     1       1.664  10.053  18.060  0.00  0.00    +0.000 A 
ATOM     22  C   UNL     1       1.623   9.100  19.110  0.00  0.00    +0.000 A 
ENDBRANCH  13  14
BRANCH  13  23
ATOM     23  O   UNL     1       1.952   5.716  17.829  0.00  0.00    +0.000 OA
ATOM     24  H   UNL     1       1.242   5.911  17.204  0.00  0.00    +0.000 HD
ENDBRANCH  13  23
ENDBRANCH  12  13
TORSDOF 3
ENDMDL
MODEL 7
REMARK VINA RESULT:      -6.9      1.610      2.588
REMARK  Name = 
REMARK  4 active torsions:
REMARK  status: ('A' for Active; 'I' for Inactive)
REMARK    1  A    between atoms: C_1  and  C_2
REMARK    2  A    between atoms: C_12  and  C_13
REMARK    3  A    between atoms: C_13  and  O_14
REMARK    4  A    between atoms: C_13  and  C_15
REMARK                            x       y       z     vdW  Elec       q    Type
REMARK                         _______ _______ _______ _____ _____    ______ ____
ROOT
ATOM      1  C   UNL     1       1.716   3.753  17.457  0.00  0.00    +0.000 C 
ATOM      2  C   UNL     1       2.588   4.559  18.469  0.00  0.00    +0.000 C 
ATOM      3  C   UNL     1       3.342   5.637  17.645  0.00  0.00    +0.000 C 
ATOM      4  C   UNL     1       4.441   5.081  16.745  0.00  0.00    +0.000 C 
ATOM      5  C   UNL     1       5.407   4.270  17.573  0.00  0.00    +0.000 C 
ATOM      6  O   UNL     1       6.596   4.162  17.277  0.00  0.00    +0.000 OA
ATOM      7  C   UNL     1       4.868   3.481  18.708  0.00  0.00    +0.000 C 
ATOM      8  C   UNL     1       3.576   3.566  19.083  0.00  0.00    +0.000 C 
ATOM      9  C   UNL     1       3.014   2.556  20.061  0.00  0.00    +0.000 C 
ATOM     10  C   UNL     1       2.009   3.130  21.055  0.00  0.00    +0.000 C 
ATOM     11  C   UNL     1       0.976   4.045  20.400  0.00  0.00    +0.000 C 
ATOM     12  C   UNL     1       1.638   5.192  19.587  0.00  0.00    +0.000 C 
ENDROOT
BRANCH  12  13
ATOM     13  C   UNL     1       2.244   6.261  20.588  0.00  0.00    +0.000 C 
BRANCH  13  14
ATOM     14  C   UNL     1       1.378   7.519  20.696  0.00  0.00    +0.000 A 
ATOM     15  C   UNL     1       0.503   7.754  21.743  0.00  0.00    +0.000 A 
ATOM     16  S   UNL     1      -0.218   9.292  21.692  0.00  0.00    +0.000 S 
ATOM     17  C   UNL     1       0.587   9.698  20.228  0.00  0.00    +0.000 A 
ATOM     18  C   UNL     1       0.529  10.934  19.557  0.00  0.00    +0.000 A 
ATOM     19  C   UNL     1       1.207  11.084  18.351  0.00  0.00    +0.000 A 
ATOM     20  C   UNL     1       1.897  10.013  17.798  0.00  0.00    +0.000 A 
ATOM     21  C   UNL     1       1.971   8.797  18.482  0.00  0.00    +0.000 A 
ATOM     22  C   UNL     1       1.347   8.623  19.743  0.00  0.00    +0.000 A 
ENDBRANCH  13  14
BRANCH  13  23
ATOM     23  O   UNL     1       3.551   6.674  20.199  0.00  0.00    +0.000 OA
ATOM     24  H   UNL     1       4.032   5.896  19.889  0.00  0.00    +0.000 HD
ENDBRANCH  13  23
ENDBRANCH  12  13
TORSDOF 3
ENDMDL
MODEL 8
REMARK VINA RESULT:      -6.9      2.572      7.164
REMARK  Name = 
REMARK  4 active torsions:
REMARK  status: ('A' for Active; 'I' for Inactive)
REMARK    1  A    between atoms: C_1  and  C_2
REMARK    2  A    between atoms: C_12  and  C_13
REMARK    3  A    between atoms: C_13  and  O_14
REMARK    4  A    between atoms: C_13  and  C_15
REMARK                            x       y       z     vdW  Elec       q    Type
REMARK                         _______ _______ _______ _____ _____    ______ ____
ROOT
ATOM      1  C   UNL     1      -1.141  10.378  18.796  0.00  0.00    +0.000 C 
ATOM      2  C   UNL     1       0.070  10.119  19.745  0.00  0.00    +0.000 C 
ATOM      3  C   UNL     1      -0.516   9.928  21.170  0.00  0.00    +0.000 C 
ATOM      4  C   UNL     1      -1.065  11.205  21.797  0.00  0.00    +0.000 C 
ATOM      5  C   UNL     1       0.009  12.266  21.798  0.00  0.00    +0.000 C 
ATOM      6  O   UNL     1       0.061  13.145  22.657  0.00  0.00    +0.000 OA
ATOM      7  C   UNL     1       0.950  12.313  20.653  0.00  0.00    +0.000 C 
ATOM      8  C   UNL     1       0.945  11.372  19.689  0.00  0.00    +0.000 C 
ATOM      9  C   UNL     1       1.731  11.602  18.416  0.00  0.00    +0.000 C 
ATOM     10  C   UNL     1       2.397  10.351  17.849  0.00  0.00    +0.000 C 
ATOM     11  C   UNL     1       1.470   9.137  17.830  0.00  0.00    +0.000 C 
ATOM     12  C   UNL     1       0.868   8.834  19.231  0.00  0.00    +0.000 C 
ENDROOT
BRANCH  12  13
ATOM     13  C   UNL     1       1.992   8.212  20.160  0.00  0.00    +0.000 C 
BRANCH  13  14
ATOM     14  C   UNL     1       2.170   6.708  19.935  0.00  0.00    +0.000 A 
ATOM     15  C   UNL     1       1.536   5.743  20.698  0.00  0.00    +0.000 A 
ATOM     16  S   UNL     1       1.790   4.159  20.136  0.00  0.00    +0.000 S 
ATOM     17  C   UNL     1       2.803   4.701  18.857  0.00  0.00    +0.000 A 
ATOM     18  C   UNL     1       3.384   3.901  17.855  0.00  0.00    +0.000 A 
ATOM     19  C   UNL     1       4.223   4.493  16.914  0.00  0.00    +0.000 A 
ATOM     20  C   UNL     1       4.514   5.849  16.992  0.00  0.00    +0.000 A 
ATOM     21  C   UNL     1       3.914   6.641  17.975  0.00  0.00    +0.000 A 
ATOM     22  C   UNL     1       3.005   6.088  18.912  0.00  0.00    +0.000 A 
ENDBRANCH  13  14
BRANCH  13  23
ATOM     23  O   UNL     1       1.709   8.407  21.543  0.00  0.00    +0.000 OA
ATOM     24  H   UNL     1       2.182   7.731  22.045  0.00  0.00    +0.000 HD
ENDBRANCH  13  23
ENDBRANCH  12  13
TORSDOF 3
ENDMDL
MODEL 9
REMARK VINA RESULT:      -6.8      2.215      3.841
REMARK  Name = 
REMARK  4 active torsions:
REMARK  status: ('A' for Active; 'I' for Inactive)
REMARK    1  A    between atoms: C_1  and  C_2
REMARK    2  A    between atoms: C_12  and  C_13
REMARK    3  A    between atoms: C_13  and  O_14
REMARK    4  A    between atoms: C_13  and  C_15
REMARK                            x       y       z     vdW  Elec       q    Type
REMARK                         _______ _______ _______ _____ _____    ______ ____
ROOT
ATOM      1  C   UNL     1       4.278   4.004  19.999  0.00  0.00    +0.000 C 
ATOM      2  C   UNL     1       3.154   4.741  19.207  0.00  0.00    +0.000 C 
ATOM      3  C   UNL     1       1.855   4.600  20.044  0.00  0.00    +0.000 C 
ATOM      4  C   UNL     1       1.273   3.189  20.064  0.00  0.00    +0.000 C 
ATOM      5  C   UNL     1       1.050   2.719  18.648  0.00  0.00    +0.000 C 
ATOM      6  O   UNL     1       0.157   1.924  18.354  0.00  0.00    +0.000 OA
ATOM      7  C   UNL     1       2.021   3.137  17.607  0.00  0.00    +0.000 C 
ATOM      8  C   UNL     1       3.012   4.012  17.870  0.00  0.00    +0.000 C 
ATOM      9  C   UNL     1       4.127   4.202  16.863  0.00  0.00    +0.000 C 
ATOM     10  C   UNL     1       4.628   5.637  16.739  0.00  0.00    +0.000 C 
ATOM     11  C   UNL     1       4.852   6.311  18.092  0.00  0.00    +0.000 C 
ATOM     12  C   UNL     1       3.583   6.264  18.990  0.00  0.00    +0.000 C 
ENDROOT
BRANCH  12  13
ATOM     13  C   UNL     1       2.509   7.288  18.432  0.00  0.00    +0.000 C 
BRANCH  13  14
ATOM     14  C   UNL     1       1.815   8.073  19.548  0.00  0.00    +0.000 A 
ATOM     15  C   UNL     1       1.924   7.747  20.889  0.00  0.00    +0.000 A 
ATOM     16  S   UNL     1       1.179   8.873  21.923  0.00  0.00    +0.000 S 
ATOM     17  C   UNL     1       0.641   9.834  20.603  0.00  0.00    +0.000 A 
ATOM     18  C   UNL     1      -0.044  11.061  20.687  0.00  0.00    +0.000 A 
ATOM     19  C   UNL     1      -0.453  11.692  19.515  0.00  0.00    +0.000 A 
ATOM     20  C   UNL     1      -0.223  11.096  18.283  0.00  0.00    +0.000 A 
ATOM     21  C   UNL     1       0.480   9.890  18.206  0.00  0.00    +0.000 A 
ATOM     22  C   UNL     1       0.968   9.247  19.372  0.00  0.00    +0.000 A 
ENDBRANCH  13  14
BRANCH  13  23
ATOM     23  O   UNL     1       1.495   6.635  17.674  0.00  0.00    +0.000 OA
ATOM     24  H   UNL     1       1.898   6.293  16.866  0.00  0.00    +0.000 HD
ENDBRANCH  13  23
ENDBRANCH  12  13
TORSDOF 3
ENDMDL
