MODEL 1
REMARK VINA RESULT:      -7.5      0.000      0.000
REMARK  Name = 
REMARK  6 active torsions:
REMARK  status: ('A' for Active; 'I' for Inactive)
REMARK    1  A    between atoms: C_5  and  C_6
REMARK    2  A    between atoms: C_5  and  C_8
REMARK    3  A    between atoms: C_6  and  O_7
REMARK    4  A    between atoms: C_8  and  O_9
REMARK    5  A    between atoms: N_12  and  N_13
REMARK    6  A    between atoms: N_13  and  C_14
REMARK                            x       y       z     vdW  Elec       q    Type
REMARK                         _______ _______ _______ _____ _____    ______ ____
ROOT
ATOM      1  O   UNL     1       5.197   1.455  20.621  0.00  0.00    +0.000 OA
ATOM      2  C   UNL     1       4.144   2.069  20.610  0.00  0.00    +0.000 C 
ATOM      3  O   UNL     1       3.376   2.245  21.676  0.00  0.00    +0.000 OA
ATOM      4  C   UNL     1       2.168   3.010  21.639  0.00  0.00    +0.000 C 
ATOM      5  C   UNL     1       1.744   3.665  20.304  0.00  0.00    +0.000 C 
ATOM      6  N   UNL     1       2.682   3.486  19.178  0.00  0.00    +0.000 NA
ATOM      7  C   UNL     1       3.716   2.730  19.295  0.00  0.00    +0.000 C 
ATOM      8  N   UNL     1       4.562   2.463  18.223  0.00  0.00    +0.000 N 
ATOM      9  H   UNL     1       5.416   1.970  18.502  0.00  0.00    +0.000 HD
ENDROOT
BRANCH   8  10
ATOM     10  N   UNL     1       4.707   3.343  17.183  0.00  0.00    +0.000 N 
ATOM     11  H   UNL     1       4.818   2.913  16.262  0.00  0.00    +0.000 HD
BRANCH  10  12
ATOM     12  C   UNL     1       5.347   4.594  17.297  0.00  0.00    +0.000 A 
ATOM     13  C   UNL     1       5.126   5.642  16.398  0.00  0.00    +0.000 A 
ATOM     14  C   UNL     1       5.864   6.830  16.483  0.00  0.00    +0.000 A 
ATOM     15  C   UNL     1       6.859   6.970  17.452  0.00  0.00    +0.000 A 
ATOM     16 CL   UNL     1       7.757   8.445  17.482  0.00  0.00    +0.000 Cl
ATOM     17  C   UNL     1       7.104   5.924  18.345  0.00  0.00    +0.000 A 
ATOM     18 CL   UNL     1       8.346   6.000  19.545  0.00  0.00    +0.000 Cl
ATOM     19  C   UNL     1       6.347   4.749  18.268  0.00  0.00    +0.000 A 
ENDBRANCH  10  12
ENDBRANCH   8  10
BRANCH   5  20
ATOM     20  C   UNL     1       0.394   3.055  19.844  0.00  0.00    +0.000 C 
BRANCH  20  21
ATOM     21  O   UNL     1       0.522   2.531  18.519  0.00  0.00    +0.000 OA
ATOM     22  H   UNL     1       0.683   1.576  18.632  0.00  0.00    +0.000 HD
ENDBRANCH  20  21
ENDBRANCH   5  20
BRANCH   5  23
ATOM     23  C   UNL     1       1.552   5.187  20.523  0.00  0.00    +0.000 C 
BRANCH  23  24
ATOM     24  O   UNL     1       2.788   5.901  20.540  0.00  0.00    +0.000 OA
ATOM     25  H   UNL     1       3.227   5.729  19.689  0.00  0.00    +0.000 HD
ENDBRANCH  23  24
ENDBRANCH   5  23
TORSDOF 6
ENDMDL
MODEL 2
REMARK VINA RESULT:      -7.3      4.093      5.965
REMARK  Name = 
REMARK  6 active torsions:
REMARK  status: ('A' for Active; 'I' for Inactive)
REMARK    1  A    between atoms: C_5  and  C_6
REMARK    2  A    between atoms: C_5  and  C_8
REMARK    3  A    between atoms: C_6  and  O_7
REMARK    4  A    between atoms: C_8  and  O_9
REMARK    5  A    between atoms: N_12  and  N_13
REMARK    6  A    between atoms: N_13  and  C_14
REMARK                            x       y       z     vdW  Elec       q    Type
REMARK                         _______ _______ _______ _____ _____    ______ ____
ROOT
ATOM      1  O   UNL     1       2.695   3.385  17.461  0.00  0.00    +0.000 OA
ATOM      2  C   UNL     1       3.776   3.948  17.445  0.00  0.00    +0.000 C 
ATOM      3  O   UNL     1       4.670   3.812  16.476  0.00  0.00    +0.000 OA
ATOM      4  C   UNL     1       5.911   4.523  16.466  0.00  0.00    +0.000 C 
ATOM      5  C   UNL     1       6.221   5.495  17.628  0.00  0.00    +0.000 C 
ATOM      6  N   UNL     1       5.152   5.648  18.635  0.00  0.00    +0.000 NA
ATOM      7  C   UNL     1       4.092   4.920  18.588  0.00  0.00    +0.000 C 
ATOM      8  N   UNL     1       3.114   4.972  19.576  0.00  0.00    +0.000 N 
ATOM      9  H   UNL     1       2.268   4.449  19.330  0.00  0.00    +0.000 HD
ENDROOT
BRANCH   8  10
ATOM     10  N   UNL     1       2.907   6.099  20.326  0.00  0.00    +0.000 N 
ATOM     11  H   UNL     1       2.817   5.942  21.333  0.00  0.00    +0.000 HD
BRANCH  10  12
ATOM     12  C   UNL     1       2.191   7.224  19.870  0.00  0.00    +0.000 A 
ATOM     13  C   UNL     1       2.262   7.684  18.551  0.00  0.00    +0.000 A 
ATOM     14  C   UNL     1       1.620   8.868  18.167  0.00  0.00    +0.000 A 
ATOM     15  C   UNL     1       0.924   9.627  19.110  0.00  0.00    +0.000 A 
ATOM     16 CL   UNL     1       0.185  11.095  18.579  0.00  0.00    +0.000 Cl
ATOM     17  C   UNL     1       0.860   9.191  20.434  0.00  0.00    +0.000 A 
ATOM     18 CL   UNL     1       0.058  10.093  21.672  0.00  0.00    +0.000 Cl
ATOM     19  C   UNL     1       1.486   7.994  20.806  0.00  0.00    +0.000 A 
ENDBRANCH  10  12
ENDBRANCH   8  10
BRANCH   5  20
ATOM     20  C   UNL     1       7.468   4.987  18.397  0.00  0.00    +0.000 C 
BRANCH  20  21
ATOM     21  O   UNL     1       8.194   4.057  17.588  0.00  0.00    +0.000 OA
ATOM     22  H   UNL     1       9.099   4.415  17.528  0.00  0.00    +0.000 HD
ENDBRANCH  20  21
ENDBRANCH   5  20
BRANCH   5  23
ATOM     23  C   UNL     1       6.531   6.897  17.049  0.00  0.00    +0.000 C 
BRANCH  23  24
ATOM     24  O   UNL     1       7.864   7.005  16.550  0.00  0.00    +0.000 OA
ATOM     25  H   UNL     1       8.313   6.165  16.751  0.00  0.00    +0.000 HD
ENDBRANCH  23  24
ENDBRANCH   5  23
TORSDOF 6
ENDMDL
MODEL 3
REMARK VINA RESULT:      -7.1      4.807      6.521
REMARK  Name = 
REMARK  6 active torsions:
REMARK  status: ('A' for Active; 'I' for Inactive)
REMARK    1  A    between atoms: C_5  and  C_6
REMARK    2  A    between atoms: C_5  and  C_8
REMARK    3  A    between atoms: C_6  and  O_7
REMARK    4  A    between atoms: C_8  and  O_9
REMARK    5  A    between atoms: N_12  and  N_13
REMARK    6  A    between atoms: N_13  and  C_14
REMARK                            x       y       z     vdW  Elec       q    Type
REMARK                         _______ _______ _______ _____ _____    ______ ____
ROOT
ATOM      1  O   UNL     1       8.340   5.572  20.053  0.00  0.00    +0.000 OA
ATOM      2  C   UNL     1       7.623   5.567  19.068  0.00  0.00    +0.000 C 
ATOM      3  O   UNL     1       6.814   4.569  18.742  0.00  0.00    +0.000 OA
ATOM      4  C   UNL     1       5.951   4.615  17.602  0.00  0.00    +0.000 C 
ATOM      5  C   UNL     1       5.958   5.882  16.716  0.00  0.00    +0.000 C 
ATOM      6  N   UNL     1       6.832   6.979  17.176  0.00  0.00    +0.000 NA
ATOM      7  C   UNL     1       7.615   6.820  18.185  0.00  0.00    +0.000 C 
ATOM      8  N   UNL     1       8.520   7.800  18.581  0.00  0.00    +0.000 N 
ATOM      9  H   UNL     1       8.967   7.592  19.479  0.00  0.00    +0.000 HD
ENDROOT
BRANCH   8  10
ATOM     10  N   UNL     1       8.298   9.128  18.331  0.00  0.00    +0.000 N 
ATOM     11  H   UNL     1       7.841   9.333  17.439  0.00  0.00    +0.000 HD
BRANCH  10  12
ATOM     12  C   UNL     1       9.149  10.162  18.772  0.00  0.00    +0.000 A 
ATOM     13  C   UNL     1       9.309  10.486  20.123  0.00  0.00    +0.000 A 
ATOM     14  C   UNL     1      10.079  11.591  20.511  0.00  0.00    +0.000 A 
ATOM     15  C   UNL     1      10.673  12.406  19.546  0.00  0.00    +0.000 A 
ATOM     16 CL   UNL     1      11.579  13.772  20.089  0.00  0.00    +0.000 Cl
ATOM     17  C   UNL     1      10.506  12.106  18.193  0.00  0.00    +0.000 A 
ATOM     18 CL   UNL     1      11.170  13.089  16.935  0.00  0.00    +0.000 Cl
ATOM     19  C   UNL     1       9.753  10.987  17.813  0.00  0.00    +0.000 A 
ENDBRANCH  10  12
ENDBRANCH   8  10
BRANCH   5  20
ATOM     20  C   UNL     1       6.450   5.505  15.294  0.00  0.00    +0.000 C 
BRANCH  20  21
ATOM     21  O   UNL     1       7.650   4.731  15.382  0.00  0.00    +0.000 OA
ATOM     22  H   UNL     1       7.523   4.142  16.148  0.00  0.00    +0.000 HD
ENDBRANCH  20  21
ENDBRANCH   5  20
BRANCH   5  23
ATOM     23  C   UNL     1       4.515   6.437  16.612  0.00  0.00    +0.000 C 
BRANCH  23  24
ATOM     24  O   UNL     1       3.837   6.446  17.868  0.00  0.00    +0.000 OA
ATOM     25  H   UNL     1       3.505   7.350  18.006  0.00  0.00    +0.000 HD
ENDBRANCH  23  24
ENDBRANCH   5  23
TORSDOF 6
ENDMDL
MODEL 4
REMARK VINA RESULT:      -7.1      5.486      7.415
REMARK  Name = 
REMARK  6 active torsions:
REMARK  status: ('A' for Active; 'I' for Inactive)
REMARK    1  A    between atoms: C_5  and  C_6
REMARK    2  A    between atoms: C_5  and  C_8
REMARK    3  A    between atoms: C_6  and  O_7
REMARK    4  A    between atoms: C_8  and  O_9
REMARK    5  A    between atoms: N_12  and  N_13
REMARK    6  A    between atoms: N_13  and  C_14
REMARK                            x       y       z     vdW  Elec       q    Type
REMARK                         _______ _______ _______ _____ _____    ______ ____
ROOT
ATOM      1  O   UNL     1       0.420   9.507  23.430  0.00  0.00    +0.000 OA
ATOM      2  C   UNL     1       0.374  10.140  22.390  0.00  0.00    +0.000 C 
ATOM      3  O   UNL     1      -0.058  11.390  22.299  0.00  0.00    +0.000 OA
ATOM      4  C   UNL     1      -0.056  12.120  21.069  0.00  0.00    +0.000 C 
ATOM      5  C   UNL     1       0.478  11.427  19.794  0.00  0.00    +0.000 C 
ATOM      6  N   UNL     1       1.007  10.061  19.984  0.00  0.00    +0.000 NA
ATOM      7  C   UNL     1       0.908   9.467  21.120  0.00  0.00    +0.000 C 
ATOM      8  N   UNL     1       1.306   8.147  21.302  0.00  0.00    +0.000 N 
ATOM      9  H   UNL     1       1.304   7.860  22.286  0.00  0.00    +0.000 HD
ENDROOT
BRANCH   8  10
ATOM     10  N   UNL     1       2.282   7.575  20.529  0.00  0.00    +0.000 N 
ATOM     11  H   UNL     1       2.803   8.225  19.935  0.00  0.00    +0.000 HD
BRANCH  10  12
ATOM     12  C   UNL     1       2.196   6.275  19.991  0.00  0.00    +0.000 A 
ATOM     13  C   UNL     1       2.262   6.017  18.618  0.00  0.00    +0.000 A 
ATOM     14  C   UNL     1       2.064   4.723  18.120  0.00  0.00    +0.000 A 
ATOM     15  C   UNL     1       1.763   3.674  18.990  0.00  0.00    +0.000 A 
ATOM     16 CL   UNL     1       1.495   2.110  18.308  0.00  0.00    +0.000 Cl
ATOM     17  C   UNL     1       1.676   3.920  20.361  0.00  0.00    +0.000 A 
ATOM     18 CL   UNL     1       1.265   2.687  21.502  0.00  0.00    +0.000 Cl
ATOM     19  C   UNL     1       1.897   5.212  20.855  0.00  0.00    +0.000 A 
ENDBRANCH  10  12
ENDBRANCH   8  10
BRANCH   5  20
ATOM     20  C   UNL     1      -0.672  11.306  18.761  0.00  0.00    +0.000 C 
BRANCH  20  21
ATOM     21  O   UNL     1      -0.353  10.302  17.793  0.00  0.00    +0.000 OA
ATOM     22  H   UNL     1      -1.007  10.414  17.078  0.00  0.00    +0.000 HD
ENDBRANCH  20  21
ENDBRANCH   5  20
BRANCH   5  23
ATOM     23  C   UNL     1       1.608  12.291  19.181  0.00  0.00    +0.000 C 
BRANCH  23  24
ATOM     24  O   UNL     1       1.479  12.444  17.767  0.00  0.00    +0.000 OA
ATOM     25  H   UNL     1       0.662  11.987  17.505  0.00  0.00    +0.000 HD
ENDBRANCH  23  24
ENDBRANCH   5  23
TORSDOF 6
ENDMDL
MODEL 5
REMARK VINA RESULT:      -7.1      5.224      7.229
REMARK  Name = 
REMARK  6 active torsions:
REMARK  status: ('A' for Active; 'I' for Inactive)
REMARK    1  A    between atoms: C_5  and  C_6
REMARK    2  A    between atoms: C_5  and  C_8
REMARK    3  A    between atoms: C_6  and  O_7
REMARK    4  A    between atoms: C_8  and  O_9
REMARK    5  A    between atoms: N_12  and  N_13
REMARK    6  A    between atoms: N_13  and  C_14
REMARK                            x       y       z     vdW  Elec       q    Type
REMARK                         _______ _______ _______ _____ _____    ______ ____
ROOT
ATOM      1  O   UNL     1       0.654   9.537  23.478  0.00  0.00    +0.000 OA
ATOM      2  C   UNL     1       0.475  10.057  22.391  0.00  0.00    +0.000 C 
ATOM      3  O   UNL     1      -0.024  11.273  22.222  0.00  0.00    +0.000 OA
ATOM      4  C   UNL     1      -0.179  11.873  20.932  0.00  0.00    +0.000 C 
ATOM      5  C   UNL     1       0.259  11.072  19.684  0.00  0.00    +0.000 C 
ATOM      6  N   UNL     1       0.870   9.754  19.951  0.00  0.00    +0.000 NA
ATOM      7  C   UNL     1       0.912   9.277  21.145  0.00  0.00    +0.000 C 
ATOM      8  N   UNL     1       1.390   7.999  21.415  0.00  0.00    +0.000 N 
ATOM      9  H   UNL     1       1.499   7.816  22.417  0.00  0.00    +0.000 HD
ENDROOT
BRANCH   8  10
ATOM     10  N   UNL     1       2.311   7.389  20.605  0.00  0.00    +0.000 N 
ATOM     11  H   UNL     1       2.854   8.020  20.011  0.00  0.00    +0.000 HD
BRANCH  10  12
ATOM     12  C   UNL     1       2.136   6.107  20.044  0.00  0.00    +0.000 A 
ATOM     13  C   UNL     1       1.355   5.117  20.648  0.00  0.00    +0.000 A 
ATOM     14  C   UNL     1       1.296   3.823  20.114  0.00  0.00    +0.000 A 
ATOM     15  C   UNL     1       2.047   3.495  18.984  0.00  0.00    +0.000 A 
ATOM     16 CL   UNL     1       1.957   1.873  18.396  0.00  0.00    +0.000 Cl
ATOM     17  C   UNL     1       2.846   4.468  18.381  0.00  0.00    +0.000 A 
ATOM     18 CL   UNL     1       3.840   4.133  17.007  0.00  0.00    +0.000 Cl
ATOM     19  C   UNL     1       2.883   5.766  18.908  0.00  0.00    +0.000 A 
ENDBRANCH  10  12
ENDBRANCH   8  10
BRANCH   5  20
ATOM     20  C   UNL     1      -0.980  10.801  18.792  0.00  0.00    +0.000 C 
BRANCH  20  21
ATOM     21  O   UNL     1      -0.575  10.171  17.573  0.00  0.00    +0.000 OA
ATOM     22  H   UNL     1       0.191   9.617  17.808  0.00  0.00    +0.000 HD
ENDBRANCH  20  21
ENDBRANCH   5  20
BRANCH   5  23
ATOM     23  C   UNL     1       1.280  11.911  18.875  0.00  0.00    +0.000 C 
BRANCH  23  24
ATOM     24  O   UNL     1       0.651  12.816  17.966  0.00  0.00    +0.000 OA
ATOM     25  H   UNL     1       1.144  12.767  17.129  0.00  0.00    +0.000 HD
ENDBRANCH  23  24
ENDBRANCH   5  23
TORSDOF 6
ENDMDL
MODEL 6
REMARK VINA RESULT:      -7.1      4.900      6.927
REMARK  Name = 
REMARK  6 active torsions:
REMARK  status: ('A' for Active; 'I' for Inactive)
REMARK    1  A    between atoms: C_5  and  C_6
REMARK    2  A    between atoms: C_5  and  C_8
REMARK    3  A    between atoms: C_6  and  O_7
REMARK    4  A    between atoms: C_8  and  O_9
REMARK    5  A    between atoms: N_12  and  N_13
REMARK    6  A    between atoms: N_13  and  C_14
REMARK                            x       y       z     vdW  Elec       q    Type
REMARK                         _______ _______ _______ _____ _____    ______ ____
ROOT
ATOM      1  O   UNL     1       0.799   4.207  20.493  0.00  0.00    +0.000 OA
ATOM      2  C   UNL     1       1.844   4.371  19.887  0.00  0.00    +0.000 C 
ATOM      3  O   UNL     1       2.435   3.434  19.158  0.00  0.00    +0.000 OA
ATOM      4  C   UNL     1       3.638   3.673  18.423  0.00  0.00    +0.000 C 
ATOM      5  C   UNL     1       4.273   5.082  18.474  0.00  0.00    +0.000 C 
ATOM      6  N   UNL     1       3.525   6.092  19.248  0.00  0.00    +0.000 NA
ATOM      7  C   UNL     1       2.480   5.765  19.924  0.00  0.00    +0.000 C 
ATOM      8  N   UNL     1       1.813   6.672  20.740  0.00  0.00    +0.000 N 
ATOM      9  H   UNL     1       0.922   6.311  21.096  0.00  0.00    +0.000 HD
ENDROOT
BRANCH   8  10
ATOM     10  N   UNL     1       1.841   8.020  20.493  0.00  0.00    +0.000 N 
ATOM     11  H   UNL     1       2.756   8.395  20.232  0.00  0.00    +0.000 HD
BRANCH  10  12
ATOM     12  C   UNL     1       1.022   8.956  21.156  0.00  0.00    +0.000 A 
ATOM     13  C   UNL     1       0.740   8.881  22.524  0.00  0.00    +0.000 A 
ATOM     14  C   UNL     1      -0.166   9.768  23.120  0.00  0.00    +0.000 A 
ATOM     15  C   UNL     1      -0.828  10.723  22.346  0.00  0.00    +0.000 A 
ATOM     16 CL   UNL     1      -1.958  11.762  23.136  0.00  0.00    +0.000 Cl
ATOM     17  C   UNL     1      -0.570  10.797  20.975  0.00  0.00    +0.000 A 
ATOM     18 CL   UNL     1      -1.379  11.918  19.938  0.00  0.00    +0.000 Cl
ATOM     19  C   UNL     1       0.353   9.921  20.390  0.00  0.00    +0.000 A 
ENDBRANCH  10  12
ENDBRANCH   8  10
BRANCH   5  20
ATOM     20  C   UNL     1       5.675   4.985  19.131  0.00  0.00    +0.000 C 
BRANCH  20  21
ATOM     21  O   UNL     1       6.417   3.914  18.540  0.00  0.00    +0.000 OA
ATOM     22  H   UNL     1       6.149   3.898  17.604  0.00  0.00    +0.000 HD
ENDBRANCH  20  21
ENDBRANCH   5  20
BRANCH   5  23
ATOM     23  C   UNL     1       4.438   5.617  17.030  0.00  0.00    +0.000 C 
BRANCH  23  24
ATOM     24  O   UNL     1       4.901   4.618  16.122  0.00  0.00    +0.000 OA
ATOM     25  H   UNL     1       5.833   4.444  16.340  0.00  0.00    +0.000 HD
ENDBRANCH  23  24
ENDBRANCH   5  23
TORSDOF 6
ENDMDL
MODEL 7
REMARK VINA RESULT:      -7.0      4.231      5.530
REMARK  Name = 
REMARK  6 active torsions:
REMARK  status: ('A' for Active; 'I' for Inactive)
REMARK    1  A    between atoms: C_5  and  C_6
REMARK    2  A    between atoms: C_5  and  C_8
REMARK    3  A    between atoms: C_6  and  O_7
REMARK    4  A    between atoms: C_8  and  O_9
REMARK    5  A    between atoms: N_12  and  N_13
REMARK    6  A    between atoms: N_13  and  C_14
REMARK                            x       y       z     vdW  Elec       q    Type
REMARK                         _______ _______ _______ _____ _____    ______ ____
ROOT
ATOM      1  O   UNL     1       5.563   5.708  18.944  0.00  0.00    +0.000 OA
ATOM      2  C   UNL     1       4.836   4.788  19.274  0.00  0.00    +0.000 C 
ATOM      3  O   UNL     1       5.204   3.515  19.281  0.00  0.00    +0.000 OA
ATOM      4  C   UNL     1       4.339   2.463  19.717  0.00  0.00    +0.000 C 
ATOM      5  C   UNL     1       2.918   2.826  20.208  0.00  0.00    +0.000 C 
ATOM      6  N   UNL     1       2.601   4.268  20.239  0.00  0.00    +0.000 NA
ATOM      7  C   UNL     1       3.427   5.135  19.770  0.00  0.00    +0.000 C 
ATOM      8  N   UNL     1       3.116   6.489  19.695  0.00  0.00    +0.000 N 
ATOM      9  H   UNL     1       3.920   7.070  19.439  0.00  0.00    +0.000 HD
ENDROOT
BRANCH   8  10
ATOM     10  N   UNL     1       2.221   7.071  20.554  0.00  0.00    +0.000 N 
ATOM     11  H   UNL     1       1.697   6.420  21.143  0.00  0.00    +0.000 HD
BRANCH  10  12
ATOM     12  C   UNL     1       1.515   8.256  20.266  0.00  0.00    +0.000 A 
ATOM     13  C   UNL     1       1.590   8.901  19.027  0.00  0.00    +0.000 A 
ATOM     14  C   UNL     1       0.959  10.134  18.820  0.00  0.00    +0.000 A 
ATOM     15  C   UNL     1       0.270  10.755  19.863  0.00  0.00    +0.000 A 
ATOM     16 CL   UNL     1      -0.457  12.291  19.551  0.00  0.00    +0.000 Cl
ATOM     17  C   UNL     1       0.202  10.132  21.111  0.00  0.00    +0.000 A 
ATOM     18 CL   UNL     1      -0.593  10.853  22.467  0.00  0.00    +0.000 Cl
ATOM     19  C   UNL     1       0.817   8.889  21.305  0.00  0.00    +0.000 A 
ENDBRANCH  10  12
ENDBRANCH   8  10
BRANCH   5  20
ATOM     20  C   UNL     1       1.872   2.173  19.267  0.00  0.00    +0.000 C 
BRANCH  20  21
ATOM     21  O   UNL     1       0.607   2.825  19.417  0.00  0.00    +0.000 OA
ATOM     22  H   UNL     1       0.110   2.283  20.056  0.00  0.00    +0.000 HD
ENDBRANCH  20  21
ENDBRANCH   5  20
BRANCH   5  23
ATOM     23  C   UNL     1       2.716   2.266  21.639  0.00  0.00    +0.000 C 
BRANCH  23  24
ATOM     24  O   UNL     1       1.440   2.598  22.186  0.00  0.00    +0.000 OA
ATOM     25  H   UNL     1       1.325   3.558  22.079  0.00  0.00    +0.000 HD
ENDBRANCH  23  24
ENDBRANCH   5  23
TORSDOF 6
ENDMDL
MODEL 8
REMARK VINA RESULT:      -7.0      4.096      5.090
REMARK  Name = 
REMARK  6 active torsions:
REMARK  status: ('A' for Active; 'I' for Inactive)
REMARK    1  A    between atoms: C_5  and  C_6
REMARK    2  A    between atoms: C_5  and  C_8
REMARK    3  A    between atoms: C_6  and  O_7
REMARK    4  A    between atoms: C_8  and  O_9
REMARK    5  A    between atoms: N_12  and  N_13
REMARK    6  A    between atoms: N_13  and  C_14
REMARK                            x       y       z     vdW  Elec       q    Type
REMARK                         _______ _______ _______ _____ _____    ______ ____
ROOT
ATOM      1  O   UNL     1       4.544   4.251  16.283  0.00  0.00    +0.000 OA
ATOM      2  C   UNL     1       3.932   3.757  17.214  0.00  0.00    +0.000 C 
ATOM      3  O   UNL     1       3.866   2.455  17.452  0.00  0.00    +0.000 OA
ATOM      4  C   UNL     1       3.175   1.911  18.580  0.00  0.00    +0.000 C 
ATOM      5  C   UNL     1       2.481   2.881  19.565  0.00  0.00    +0.000 C 
ATOM      6  N   UNL     1       2.655   4.318  19.276  0.00  0.00    +0.000 NA
ATOM      7  C   UNL     1       3.246   4.708  18.202  0.00  0.00    +0.000 C 
ATOM      8  N   UNL     1       3.337   6.052  17.853  0.00  0.00    +0.000 N 
ATOM      9  H   UNL     1       3.959   6.217  17.055  0.00  0.00    +0.000 HD
ENDROOT
BRANCH   8  10
ATOM     10  N   UNL     1       3.322   7.043  18.798  0.00  0.00    +0.000 N 
ATOM     11  H   UNL     1       3.809   6.822  19.669  0.00  0.00    +0.000 HD
BRANCH  10  12
ATOM     12  C   UNL     1       2.253   7.946  18.970  0.00  0.00    +0.000 A 
ATOM     13  C   UNL     1       1.824   8.814  17.960  0.00  0.00    +0.000 A 
ATOM     14  C   UNL     1       0.831   9.770  18.208  0.00  0.00    +0.000 A 
ATOM     15  C   UNL     1       0.277   9.893  19.483  0.00  0.00    +0.000 A 
ATOM     16 CL   UNL     1      -0.918  11.115  19.732  0.00  0.00    +0.000 Cl
ATOM     17  C   UNL     1       0.708   9.046  20.506  0.00  0.00    +0.000 A 
ATOM     18 CL   UNL     1       0.105   9.160  22.123  0.00  0.00    +0.000 Cl
ATOM     19  C   UNL     1       1.685   8.077  20.245  0.00  0.00    +0.000 A 
ENDBRANCH  10  12
ENDBRANCH   8  10
BRANCH   5  20
ATOM     20  C   UNL     1       0.954   2.617  19.548  0.00  0.00    +0.000 C 
BRANCH  20  21
ATOM     21  O   UNL     1       0.263   3.714  20.154  0.00  0.00    +0.000 OA
ATOM     22  H   UNL     1      -0.390   3.310  20.754  0.00  0.00    +0.000 HD
ENDBRANCH  20  21
ENDBRANCH   5  20
BRANCH   5  23
ATOM     23  C   UNL     1       3.015   2.618  20.996  0.00  0.00    +0.000 C 
BRANCH  23  24
ATOM     24  O   UNL     1       1.967   2.444  21.951  0.00  0.00    +0.000 OA
ATOM     25  H   UNL     1       1.728   3.328  22.276  0.00  0.00    +0.000 HD
ENDBRANCH  23  24
ENDBRANCH   5  23
TORSDOF 6
ENDMDL
MODEL 9
REMARK VINA RESULT:      -7.0      2.549      2.897
REMARK  Name = 
REMARK  6 active torsions:
REMARK  status: ('A' for Active; 'I' for Inactive)
REMARK    1  A    between atoms: C_5  and  C_6
REMARK    2  A    between atoms: C_5  and  C_8
REMARK    3  A    between atoms: C_6  and  O_7
REMARK    4  A    between atoms: C_8  and  O_9
REMARK    5  A    between atoms: N_12  and  N_13
REMARK    6  A    between atoms: N_13  and  C_14
REMARK                            x       y       z     vdW  Elec       q    Type
REMARK                         _______ _______ _______ _____ _____    ______ ____
ROOT
ATOM      1  O   UNL     1       5.331   1.795  20.590  0.00  0.00    +0.000 OA
ATOM      2  C   UNL     1       4.207   2.258  20.500  0.00  0.00    +0.000 C 
ATOM      3  O   UNL     1       3.244   2.051  21.386  0.00  0.00    +0.000 OA
ATOM      4  C   UNL     1       1.949   2.647  21.273  0.00  0.00    +0.000 C 
ATOM      5  C   UNL     1       1.661   3.576  20.071  0.00  0.00    +0.000 C 
ATOM      6  N   UNL     1       2.799   3.816  19.162  0.00  0.00    +0.000 NA
ATOM      7  C   UNL     1       3.911   3.187  19.316  0.00  0.00    +0.000 C 
ATOM      8  N   UNL     1       4.966   3.317  18.419  0.00  0.00    +0.000 N 
ATOM      9  H   UNL     1       5.829   2.875  18.749  0.00  0.00    +0.000 HD
ENDROOT
BRANCH   8  10
ATOM     10  N   UNL     1       5.139   4.452  17.671  0.00  0.00    +0.000 N 
ATOM     11  H   UNL     1       4.378   5.133  17.730  0.00  0.00    +0.000 HD
BRANCH  10  12
ATOM     12  C   UNL     1       5.819   4.482  16.437  0.00  0.00    +0.000 A 
ATOM     13  C   UNL     1       7.076   5.075  16.279  0.00  0.00    +0.000 A 
ATOM     14  C   UNL     1       7.668   5.179  15.013  0.00  0.00    +0.000 A 
ATOM     15  C   UNL     1       6.992   4.719  13.882  0.00  0.00    +0.000 A 
ATOM     16 CL   UNL     1       7.762   4.909  12.347  0.00  0.00    +0.000 Cl
ATOM     17  C   UNL     1       5.728   4.141  14.022  0.00  0.00    +0.000 A 
ATOM     18 CL   UNL     1       4.806   3.587  12.669  0.00  0.00    +0.000 Cl
ATOM     19  C   UNL     1       5.153   4.020  15.293  0.00  0.00    +0.000 A 
ENDBRANCH  10  12
ENDBRANCH   8  10
BRANCH   5  20
ATOM     20  C   UNL     1       0.539   2.951  19.202  0.00  0.00    +0.000 C 
BRANCH  20  21
ATOM     21  O   UNL     1       0.960   1.678  18.703  0.00  0.00    +0.000 OA
ATOM     22  H   UNL     1       1.288   1.848  17.802  0.00  0.00    +0.000 HD
ENDBRANCH  20  21
ENDBRANCH   5  20
BRANCH   5  23
ATOM     23  C   UNL     1       1.176   4.951  20.596  0.00  0.00    +0.000 C 
BRANCH  23  24
ATOM     24  O   UNL     1       2.214   5.693  21.236  0.00  0.00    +0.000 OA
ATOM     25  H   UNL     1       2.441   6.432  20.647  0.00  0.00    +0.000 HD
ENDBRANCH  23  24
ENDBRANCH   5  23
TORSDOF 6
ENDMDL
