MODEL 1
REMARK VINA RESULT:      -7.0      0.000      0.000
REMARK  Name = 
REMARK  5 active torsions:
REMARK  status: ('A' for Active; 'I' for Inactive)
REMARK    1  A    between atoms: C_2  and  C_3
REMARK    2  A    between atoms: C_11  and  C_12
REMARK    3  A    between atoms: C_12  and  C_13
REMARK    4  A    between atoms: C_13  and  O_14
REMARK    5  A    between atoms: O_14  and  C_15
REMARK                            x       y       z     vdW  Elec       q    Type
REMARK                         _______ _______ _______ _____ _____    ______ ____
ROOT
ATOM      1  O   UNL     1       7.863   5.381  13.051  0.00  0.00    +0.000 OA
ATOM      2  C   UNL     1       7.004   4.615  13.496  0.00  0.00    +0.000 C 
ATOM      3  N   UNL     1       6.766   4.555  14.877  0.00  0.00    +0.000 N 
ATOM      4  C   UNL     1       5.886   3.621  15.578  0.00  0.00    +0.000 C 
ATOM      5  C   UNL     1       4.824   4.409  16.347  0.00  0.00    +0.000 C 
ATOM      6  C   UNL     1       5.471   5.395  17.339  0.00  0.00    +0.000 C 
ATOM      7  C   UNL     1       6.479   6.289  16.582  0.00  0.00    +0.000 C 
ATOM      8  C   UNL     1       7.479   5.476  15.760  0.00  0.00    +0.000 C 
ENDROOT
BRANCH   2   9
ATOM      9  C   UNL     1       6.231   3.754  12.607  0.00  0.00    +0.000 A 
ATOM     10  C   UNL     1       4.899   3.795  12.231  0.00  0.00    +0.000 A 
ATOM     11  C   UNL     1       4.525   2.689  11.414  0.00  0.00    +0.000 A 
ATOM     12  C   UNL     1       5.607   1.907  11.084  0.00  0.00    +0.000 A 
ATOM     13  S   UNL     1       7.052   2.483  11.789  0.00  0.00    +0.000 S 
ENDBRANCH   2   9
BRANCH   6  14
ATOM     14  C   UNL     1       6.082   4.634  18.536  0.00  0.00    +0.000 C 
BRANCH  14  15
ATOM     15  C   UNL     1       5.113   4.515  19.703  0.00  0.00    +0.000 C 
BRANCH  15  16
ATOM     16  O   UNL     1       4.666   3.164  19.821  0.00  0.00    +0.000 OA
BRANCH  16  17
ATOM     17  C   UNL     1       3.311   2.986  19.685  0.00  0.00    +0.000 A 
ATOM     18  C   UNL     1       2.542   3.599  20.679  0.00  0.00    +0.000 A 
ATOM     19  C   UNL     1       1.147   3.490  20.667  0.00  0.00    +0.000 A 
ATOM     20  C   UNL     1       0.509   2.764  19.660  0.00  0.00    +0.000 A 
ATOM     21  C   UNL     1       1.266   2.154  18.663  0.00  0.00    +0.000 A 
ATOM     22  C   UNL     1       2.654   2.266  18.680  0.00  0.00    +0.000 A 
ATOM     23  F   UNL     1       3.324   1.652  17.694  0.00  0.00    +0.000 F 
ENDBRANCH  16  17
ENDBRANCH  15  16
ENDBRANCH  14  15
ENDBRANCH   6  14
TORSDOF 5
ENDMDL
MODEL 2
REMARK VINA RESULT:      -7.0      4.527      6.755
REMARK  Name = 
REMARK  5 active torsions:
REMARK  status: ('A' for Active; 'I' for Inactive)
REMARK    1  A    between atoms: C_2  and  C_3
REMARK    2  A    between atoms: C_11  and  C_12
REMARK    3  A    between atoms: C_12  and  C_13
REMARK    4  A    between atoms: C_13  and  O_14
REMARK    5  A    between atoms: O_14  and  C_15
REMARK                            x       y       z     vdW  Elec       q    Type
REMARK                         _______ _______ _______ _____ _____    ______ ____
ROOT
ATOM      1  O   UNL     1       2.231   9.896  17.734  0.00  0.00    +0.000 OA
ATOM      2  C   UNL     1       2.046   8.916  18.461  0.00  0.00    +0.000 C 
ATOM      3  N   UNL     1       2.561   7.665  18.095  0.00  0.00    +0.000 N 
ATOM      4  C   UNL     1       2.328   6.387  18.766  0.00  0.00    +0.000 C 
ATOM      5  C   UNL     1       3.669   5.797  19.207  0.00  0.00    +0.000 C 
ATOM      6  C   UNL     1       4.619   5.616  18.007  0.00  0.00    +0.000 C 
ATOM      7  C   UNL     1       4.751   6.959  17.256  0.00  0.00    +0.000 C 
ATOM      8  C   UNL     1       3.392   7.563  16.897  0.00  0.00    +0.000 C 
ENDROOT
BRANCH   2   9
ATOM      9  C   UNL     1       1.286   9.033  19.702  0.00  0.00    +0.000 A 
ATOM     10  C   UNL     1       1.439   8.405  20.926  0.00  0.00    +0.000 A 
ATOM     11  C   UNL     1       0.403   8.736  21.847  0.00  0.00    +0.000 A 
ATOM     12  C   UNL     1      -0.437   9.704  21.346  0.00  0.00    +0.000 A 
ATOM     13  S   UNL     1       0.001  10.175  19.764  0.00  0.00    +0.000 S 
ENDBRANCH   2   9
BRANCH   6  14
ATOM     14  C   UNL     1       4.150   4.442  17.120  0.00  0.00    +0.000 C 
BRANCH  14  15
ATOM     15  C   UNL     1       4.637   3.095  17.633  0.00  0.00    +0.000 C 
BRANCH  15  16
ATOM     16  O   UNL     1       3.522   2.233  17.858  0.00  0.00    +0.000 OA
BRANCH  16  17
ATOM     17  C   UNL     1       2.841   2.457  19.030  0.00  0.00    +0.000 A 
ATOM     18  C   UNL     1       1.481   2.734  18.868  0.00  0.00    +0.000 A 
ATOM     19  C   UNL     1       0.670   2.990  19.978  0.00  0.00    +0.000 A 
ATOM     20  C   UNL     1       1.214   2.974  21.263  0.00  0.00    +0.000 A 
ATOM     21  C   UNL     1       2.568   2.694  21.436  0.00  0.00    +0.000 A 
ATOM     22  C   UNL     1       3.370   2.439  20.326  0.00  0.00    +0.000 A 
ATOM     23  F   UNL     1       4.665   2.181  20.561  0.00  0.00    +0.000 F 
ENDBRANCH  16  17
ENDBRANCH  15  16
ENDBRANCH  14  15
ENDBRANCH   6  14
TORSDOF 5
ENDMDL
MODEL 3
REMARK VINA RESULT:      -6.6      1.080      1.082
REMARK  Name = 
REMARK  5 active torsions:
REMARK  status: ('A' for Active; 'I' for Inactive)
REMARK    1  A    between atoms: C_2  and  C_3
REMARK    2  A    between atoms: C_11  and  C_12
REMARK    3  A    between atoms: C_12  and  C_13
REMARK    4  A    between atoms: C_13  and  O_14
REMARK    5  A    between atoms: O_14  and  C_15
REMARK                            x       y       z     vdW  Elec       q    Type
REMARK                         _______ _______ _______ _____ _____    ______ ____
ROOT
ATOM      1  O   UNL     1       7.795   5.396  12.935  0.00  0.00    +0.000 OA
ATOM      2  C   UNL     1       6.992   4.574  13.385  0.00  0.00    +0.000 C 
ATOM      3  N   UNL     1       6.717   4.543  14.760  0.00  0.00    +0.000 N 
ATOM      4  C   UNL     1       5.900   3.562  15.471  0.00  0.00    +0.000 C 
ATOM      5  C   UNL     1       4.750   4.281  16.179  0.00  0.00    +0.000 C 
ATOM      6  C   UNL     1       5.278   5.355  17.150  0.00  0.00    +0.000 C 
ATOM      7  C   UNL     1       6.228   6.306  16.388  0.00  0.00    +0.000 C 
ATOM      8  C   UNL     1       7.320   5.554  15.627  0.00  0.00    +0.000 C 
ENDROOT
BRANCH   2   9
ATOM      9  C   UNL     1       6.324   3.618  12.508  0.00  0.00    +0.000 A 
ATOM     10  C   UNL     1       5.010   3.538  12.080  0.00  0.00    +0.000 A 
ATOM     11  C   UNL     1       4.755   2.372  11.302  0.00  0.00    +0.000 A 
ATOM     12  C   UNL     1       5.906   1.662  11.051  0.00  0.00    +0.000 A 
ATOM     13  S   UNL     1       7.273   2.379  11.784  0.00  0.00    +0.000 S 
ENDBRANCH   2   9
BRANCH   6  14
ATOM     14  C   UNL     1       5.915   4.693  18.392  0.00  0.00    +0.000 C 
BRANCH  14  15
ATOM     15  C   UNL     1       5.063   4.865  19.642  0.00  0.00    +0.000 C 
BRANCH  15  16
ATOM     16  O   UNL     1       3.774   5.360  19.282  0.00  0.00    +0.000 OA
BRANCH  16  17
ATOM     17  C   UNL     1       2.727   4.521  19.571  0.00  0.00    +0.000 A 
ATOM     18  C   UNL     1       2.660   4.114  20.906  0.00  0.00    +0.000 A 
ATOM     19  C   UNL     1       1.647   3.251  21.337  0.00  0.00    +0.000 A 
ATOM     20  C   UNL     1       0.693   2.784  20.433  0.00  0.00    +0.000 A 
ATOM     21  C   UNL     1       0.748   3.186  19.100  0.00  0.00    +0.000 A 
ATOM     22  C   UNL     1       1.759   4.047  18.677  0.00  0.00    +0.000 A 
ATOM     23  F   UNL     1       1.758   4.392  17.382  0.00  0.00    +0.000 F 
ENDBRANCH  16  17
ENDBRANCH  15  16
ENDBRANCH  14  15
ENDBRANCH   6  14
TORSDOF 5
ENDMDL
MODEL 4
REMARK VINA RESULT:      -6.6      4.614      7.659
REMARK  Name = 
REMARK  5 active torsions:
REMARK  status: ('A' for Active; 'I' for Inactive)
REMARK    1  A    between atoms: C_2  and  C_3
REMARK    2  A    between atoms: C_11  and  C_12
REMARK    3  A    between atoms: C_12  and  C_13
REMARK    4  A    between atoms: C_13  and  O_14
REMARK    5  A    between atoms: O_14  and  C_15
REMARK                            x       y       z     vdW  Elec       q    Type
REMARK                         _______ _______ _______ _____ _____    ______ ____
ROOT
ATOM      1  O   UNL     1       1.017   7.584  21.658  0.00  0.00    +0.000 OA
ATOM      2  C   UNL     1       1.529   7.496  20.538  0.00  0.00    +0.000 C 
ATOM      3  N   UNL     1       2.127   6.295  20.133  0.00  0.00    +0.000 N 
ATOM      4  C   UNL     1       2.884   6.060  18.905  0.00  0.00    +0.000 C 
ATOM      5  C   UNL     1       2.214   4.941  18.105  0.00  0.00    +0.000 C 
ATOM      6  C   UNL     1       2.109   3.647  18.936  0.00  0.00    +0.000 C 
ATOM      7  C   UNL     1       1.405   3.959  20.275  0.00  0.00    +0.000 C 
ATOM      8  C   UNL     1       2.049   5.132  21.015  0.00  0.00    +0.000 C 
ENDROOT
BRANCH   2   9
ATOM      9  C   UNL     1       1.533   8.633  19.623  0.00  0.00    +0.000 A 
ATOM     10  C   UNL     1       2.099   8.790  18.369  0.00  0.00    +0.000 A 
ATOM     11  C   UNL     1       1.951  10.113  17.861  0.00  0.00    +0.000 A 
ATOM     12  C   UNL     1       1.168  10.892  18.681  0.00  0.00    +0.000 A 
ATOM     13  S   UNL     1       0.654  10.041  20.070  0.00  0.00    +0.000 S 
ENDBRANCH   2   9
BRANCH   6  14
ATOM     14  C   UNL     1       3.500   2.994  19.094  0.00  0.00    +0.000 C 
BRANCH  14  15
ATOM     15  C   UNL     1       4.533   3.591  18.150  0.00  0.00    +0.000 C 
BRANCH  15  16
ATOM     16  O   UNL     1       5.714   3.925  18.878  0.00  0.00    +0.000 OA
BRANCH  16  17
ATOM     17  C   UNL     1       6.381   5.037  18.425  0.00  0.00    +0.000 A 
ATOM     18  C   UNL     1       6.005   5.461  17.147  0.00  0.00    +0.000 A 
ATOM     19  C   UNL     1       6.611   6.576  16.561  0.00  0.00    +0.000 A 
ATOM     20  C   UNL     1       7.602   7.277  17.247  0.00  0.00    +0.000 A 
ATOM     21  C   UNL     1       7.982   6.867  18.523  0.00  0.00    +0.000 A 
ATOM     22  C   UNL     1       7.374   5.756  19.103  0.00  0.00    +0.000 A 
ATOM     23  F   UNL     1       7.787   5.411  20.331  0.00  0.00    +0.000 F 
ENDBRANCH  16  17
ENDBRANCH  15  16
ENDBRANCH  14  15
ENDBRANCH   6  14
TORSDOF 5
ENDMDL
MODEL 5
REMARK VINA RESULT:      -6.6      5.003      8.193
REMARK  Name = 
REMARK  5 active torsions:
REMARK  status: ('A' for Active; 'I' for Inactive)
REMARK    1  A    between atoms: C_2  and  C_3
REMARK    2  A    between atoms: C_11  and  C_12
REMARK    3  A    between atoms: C_12  and  C_13
REMARK    4  A    between atoms: C_13  and  O_14
REMARK    5  A    between atoms: O_14  and  C_15
REMARK                            x       y       z     vdW  Elec       q    Type
REMARK                         _______ _______ _______ _____ _____    ______ ____
ROOT
ATOM      1  O   UNL     1       5.308   2.889  20.169  0.00  0.00    +0.000 OA
ATOM      2  C   UNL     1       4.557   3.644  19.545  0.00  0.00    +0.000 C 
ATOM      3  N   UNL     1       5.045   4.857  19.039  0.00  0.00    +0.000 N 
ATOM      4  C   UNL     1       4.269   5.917  18.397  0.00  0.00    +0.000 C 
ATOM      5  C   UNL     1       4.814   6.156  16.987  0.00  0.00    +0.000 C 
ATOM      6  C   UNL     1       6.310   6.522  17.022  0.00  0.00    +0.000 C 
ATOM      7  C   UNL     1       7.080   5.437  17.807  0.00  0.00    +0.000 C 
ATOM      8  C   UNL     1       6.467   5.164  19.182  0.00  0.00    +0.000 C 
ENDROOT
BRANCH   2   9
ATOM      9  C   UNL     1       3.155   3.300  19.330  0.00  0.00    +0.000 A 
ATOM     10  C   UNL     1       2.535   2.603  18.306  0.00  0.00    +0.000 A 
ATOM     11  C   UNL     1       1.116   2.583  18.436  0.00  0.00    +0.000 A 
ATOM     12  C   UNL     1       0.702   3.151  19.618  0.00  0.00    +0.000 A 
ATOM     13  S   UNL     1       2.015   3.739  20.540  0.00  0.00    +0.000 S 
ENDBRANCH   2   9
BRANCH   6  14
ATOM     14  C   UNL     1       6.504   7.952  17.571  0.00  0.00    +0.000 C 
BRANCH  14  15
ATOM     15  C   UNL     1       7.969   8.295  17.794  0.00  0.00    +0.000 C 
BRANCH  15  16
ATOM     16  O   UNL     1       8.239   9.604  17.293  0.00  0.00    +0.000 OA
BRANCH  16  17
ATOM     17  C   UNL     1       8.711  10.497  18.223  0.00  0.00    +0.000 A 
ATOM     18  C   UNL     1       9.167   9.914  19.409  0.00  0.00    +0.000 A 
ATOM     19  C   UNL     1       9.667  10.709  20.445  0.00  0.00    +0.000 A 
ATOM     20  C   UNL     1       9.712  12.096  20.306  0.00  0.00    +0.000 A 
ATOM     21  C   UNL     1       9.264  12.687  19.126  0.00  0.00    +0.000 A 
ATOM     22  C   UNL     1       8.769  11.890  18.097  0.00  0.00    +0.000 A 
ATOM     23  F   UNL     1       8.350  12.521  16.990  0.00  0.00    +0.000 F 
ENDBRANCH  16  17
ENDBRANCH  15  16
ENDBRANCH  14  15
ENDBRANCH   6  14
TORSDOF 5
ENDMDL
MODEL 6
REMARK VINA RESULT:      -6.6      1.271      1.625
REMARK  Name = 
REMARK  5 active torsions:
REMARK  status: ('A' for Active; 'I' for Inactive)
REMARK    1  A    between atoms: C_2  and  C_3
REMARK    2  A    between atoms: C_11  and  C_12
REMARK    3  A    between atoms: C_12  and  C_13
REMARK    4  A    between atoms: C_13  and  O_14
REMARK    5  A    between atoms: O_14  and  C_15
REMARK                            x       y       z     vdW  Elec       q    Type
REMARK                         _______ _______ _______ _____ _____    ______ ____
ROOT
ATOM      1  O   UNL     1       8.040   5.544  14.047  0.00  0.00    +0.000 OA
ATOM      2  C   UNL     1       7.021   4.919  14.352  0.00  0.00    +0.000 C 
ATOM      3  N   UNL     1       6.557   4.937  15.676  0.00  0.00    +0.000 N 
ATOM      4  C   UNL     1       5.452   4.157  16.231  0.00  0.00    +0.000 C 
ATOM      5  C   UNL     1       4.403   5.109  16.808  0.00  0.00    +0.000 C 
ATOM      6  C   UNL     1       5.014   6.028  17.883  0.00  0.00    +0.000 C 
ATOM      7  C   UNL     1       6.247   6.749  17.294  0.00  0.00    +0.000 C 
ATOM      8  C   UNL     1       7.242   5.779  16.655  0.00  0.00    +0.000 C 
ENDROOT
BRANCH   2   9
ATOM      9  C   UNL     1       6.287   4.144  13.356  0.00  0.00    +0.000 A 
ATOM     10  C   UNL     1       4.928   4.008  13.129  0.00  0.00    +0.000 A 
ATOM     11  C   UNL     1       4.635   3.061  12.105  0.00  0.00    +0.000 A 
ATOM     12  C   UNL     1       5.777   2.598  11.494  0.00  0.00    +0.000 A 
ATOM     13  S   UNL     1       7.188   3.273  12.179  0.00  0.00    +0.000 S 
ENDBRANCH   2   9
BRANCH   6  14
ATOM     14  C   UNL     1       5.310   5.229  19.171  0.00  0.00    +0.000 C 
BRANCH  14  15
ATOM     15  C   UNL     1       5.287   3.726  18.940  0.00  0.00    +0.000 C 
BRANCH  15  16
ATOM     16  O   UNL     1       4.546   3.089  19.980  0.00  0.00    +0.000 OA
BRANCH  16  17
ATOM     17  C   UNL     1       3.185   3.071  19.798  0.00  0.00    +0.000 A 
ATOM     18  C   UNL     1       2.744   2.198  18.800  0.00  0.00    +0.000 A 
ATOM     19  C   UNL     1       1.382   2.087  18.503  0.00  0.00    +0.000 A 
ATOM     20  C   UNL     1       0.448   2.851  19.202  0.00  0.00    +0.000 A 
ATOM     21  C   UNL     1       0.876   3.722  20.201  0.00  0.00    +0.000 A 
ATOM     22  C   UNL     1       2.234   3.828  20.493  0.00  0.00    +0.000 A 
ATOM     23  F   UNL     1       2.580   4.686  21.463  0.00  0.00    +0.000 F 
ENDBRANCH  16  17
ENDBRANCH  15  16
ENDBRANCH  14  15
ENDBRANCH   6  14
TORSDOF 5
ENDMDL
MODEL 7
REMARK VINA RESULT:      -6.6      5.116      8.338
REMARK  Name = 
REMARK  5 active torsions:
REMARK  status: ('A' for Active; 'I' for Inactive)
REMARK    1  A    between atoms: C_2  and  C_3
REMARK    2  A    between atoms: C_11  and  C_12
REMARK    3  A    between atoms: C_12  and  C_13
REMARK    4  A    between atoms: C_13  and  O_14
REMARK    5  A    between atoms: O_14  and  C_15
REMARK                            x       y       z     vdW  Elec       q    Type
REMARK                         _______ _______ _______ _____ _____    ______ ____
ROOT
ATOM      1  O   UNL     1       4.652   2.394  17.279  0.00  0.00    +0.000 OA
ATOM      2  C   UNL     1       4.420   3.378  17.987  0.00  0.00    +0.000 C 
ATOM      3  N   UNL     1       5.320   4.452  18.012  0.00  0.00    +0.000 N 
ATOM      4  C   UNL     1       5.265   5.625  18.882  0.00  0.00    +0.000 C 
ATOM      5  C   UNL     1       5.190   6.888  18.021  0.00  0.00    +0.000 C 
ATOM      6  C   UNL     1       6.391   6.980  17.060  0.00  0.00    +0.000 C 
ATOM      7  C   UNL     1       6.485   5.675  16.238  0.00  0.00    +0.000 C 
ATOM      8  C   UNL     1       6.479   4.426  17.121  0.00  0.00    +0.000 C 
ENDROOT
BRANCH   2   9
ATOM      9  C   UNL     1       3.219   3.441  18.814  0.00  0.00    +0.000 A 
ATOM     10  C   UNL     1       1.958   3.950  18.552  0.00  0.00    +0.000 A 
ATOM     11  C   UNL     1       1.099   3.902  19.688  0.00  0.00    +0.000 A 
ATOM     12  C   UNL     1       1.684   3.243  20.744  0.00  0.00    +0.000 A 
ATOM     13  S   UNL     1       3.269   2.725  20.377  0.00  0.00    +0.000 S 
ENDBRANCH   2   9
BRANCH   6  14
ATOM     14  C   UNL     1       7.680   7.326  17.838  0.00  0.00    +0.000 C 
BRANCH  14  15
ATOM     15  C   UNL     1       8.070   8.790  17.692  0.00  0.00    +0.000 C 
BRANCH  15  16
ATOM     16  O   UNL     1       8.255   9.370  18.982  0.00  0.00    +0.000 OA
BRANCH  16  17
ATOM     17  C   UNL     1       9.242  10.322  19.057  0.00  0.00    +0.000 A 
ATOM     18  C   UNL     1       9.766  10.712  17.821  0.00  0.00    +0.000 A 
ATOM     19  C   UNL     1      10.785  11.669  17.751  0.00  0.00    +0.000 A 
ATOM     20  C   UNL     1      11.290  12.241  18.919  0.00  0.00    +0.000 A 
ATOM     21  C   UNL     1      10.772  11.862  20.155  0.00  0.00    +0.000 A 
ATOM     22  C   UNL     1       9.757  10.910  20.218  0.00  0.00    +0.000 A 
ATOM     23  F   UNL     1       9.305  10.587  21.438  0.00  0.00    +0.000 F 
ENDBRANCH  16  17
ENDBRANCH  15  16
ENDBRANCH  14  15
ENDBRANCH   6  14
TORSDOF 5
ENDMDL
MODEL 8
REMARK VINA RESULT:      -6.6      5.430      8.348
REMARK  Name = 
REMARK  5 active torsions:
REMARK  status: ('A' for Active; 'I' for Inactive)
REMARK    1  A    between atoms: C_2  and  C_3
REMARK    2  A    between atoms: C_11  and  C_12
REMARK    3  A    between atoms: C_12  and  C_13
REMARK    4  A    between atoms: C_13  and  O_14
REMARK    5  A    between atoms: O_14  and  C_15
REMARK                            x       y       z     vdW  Elec       q    Type
REMARK                         _______ _______ _______ _____ _____    ______ ____
ROOT
ATOM      1  O   UNL     1       5.524   3.411  19.963  0.00  0.00    +0.000 OA
ATOM      2  C   UNL     1       4.925   4.143  19.170  0.00  0.00    +0.000 C 
ATOM      3  N   UNL     1       5.493   5.363  18.776  0.00  0.00    +0.000 N 
ATOM      4  C   UNL     1       4.869   6.399  17.954  0.00  0.00    +0.000 C 
ATOM      5  C   UNL     1       5.724   6.637  16.708  0.00  0.00    +0.000 C 
ATOM      6  C   UNL     1       7.163   7.037  17.088  0.00  0.00    +0.000 C 
ATOM      7  C   UNL     1       7.749   5.977  18.047  0.00  0.00    +0.000 C 
ATOM      8  C   UNL     1       6.836   5.703  19.243  0.00  0.00    +0.000 C 
ENDROOT
BRANCH   2   9
ATOM      9  C   UNL     1       3.620   3.765  18.637  0.00  0.00    +0.000 A 
ATOM     10  C   UNL     1       3.268   3.124  17.461  0.00  0.00    +0.000 A 
ATOM     11  C   UNL     1       1.856   3.043  17.282  0.00  0.00    +0.000 A 
ATOM     12  C   UNL     1       1.173   3.506  18.382  0.00  0.00    +0.000 A 
ATOM     13  S   UNL     1       2.229   4.071  19.600  0.00  0.00    +0.000 S 
ENDBRANCH   2   9
BRANCH   6  14
ATOM     14  C   UNL     1       7.194   8.477  17.647  0.00  0.00    +0.000 C 
BRANCH  14  15
ATOM     15  C   UNL     1       8.534   8.826  18.277  0.00  0.00    +0.000 C 
BRANCH  15  16
ATOM     16  O   UNL     1       9.033  10.036  17.707  0.00  0.00    +0.000 OA
BRANCH  16  17
ATOM     17  C   UNL     1       9.430  10.986  18.616  0.00  0.00    +0.000 A 
ATOM     18  C   UNL     1       9.341  10.586  19.952  0.00  0.00    +0.000 A 
ATOM     19  C   UNL     1       9.705  11.460  20.981  0.00  0.00    +0.000 A 
ATOM     20  C   UNL     1      10.160  12.744  20.683  0.00  0.00    +0.000 A 
ATOM     21  C   UNL     1      10.257  13.152  19.354  0.00  0.00    +0.000 A 
ATOM     22  C   UNL     1       9.893  12.277  18.333  0.00  0.00    +0.000 A 
ATOM     23  F   UNL     1      10.006  12.732  17.077  0.00  0.00    +0.000 F 
ENDBRANCH  16  17
ENDBRANCH  15  16
ENDBRANCH  14  15
ENDBRANCH   6  14
TORSDOF 5
ENDMDL
MODEL 9
REMARK VINA RESULT:      -6.5      5.275      8.328
REMARK  Name = 
REMARK  5 active torsions:
REMARK  status: ('A' for Active; 'I' for Inactive)
REMARK    1  A    between atoms: C_2  and  C_3
REMARK    2  A    between atoms: C_11  and  C_12
REMARK    3  A    between atoms: C_12  and  C_13
REMARK    4  A    between atoms: C_13  and  O_14
REMARK    5  A    between atoms: O_14  and  C_15
REMARK                            x       y       z     vdW  Elec       q    Type
REMARK                         _______ _______ _______ _____ _____    ______ ____
ROOT
ATOM      1  O   UNL     1       5.452   3.212  19.848  0.00  0.00    +0.000 OA
ATOM      2  C   UNL     1       4.810   4.014  19.164  0.00  0.00    +0.000 C 
ATOM      3  N   UNL     1       5.369   5.256  18.830  0.00  0.00    +0.000 N 
ATOM      4  C   UNL     1       4.706   6.364  18.145  0.00  0.00    +0.000 C 
ATOM      5  C   UNL     1       5.471   6.695  16.863  0.00  0.00    +0.000 C 
ATOM      6  C   UNL     1       6.941   7.046  17.166  0.00  0.00    +0.000 C 
ATOM      7  C   UNL     1       7.576   5.903  17.989  0.00  0.00    +0.000 C 
ATOM      8  C   UNL     1       6.748   5.541  19.223  0.00  0.00    +0.000 C 
ENDROOT
BRANCH   2   9
ATOM      9  C   UNL     1       3.463   3.697  18.700  0.00  0.00    +0.000 A 
ATOM     10  C   UNL     1       2.989   3.352  17.446  0.00  0.00    +0.000 A 
ATOM     11  C   UNL     1       1.571   3.225  17.410  0.00  0.00    +0.000 A 
ATOM     12  C   UNL     1       1.013   3.350  18.662  0.00  0.00    +0.000 A 
ATOM     13  S   UNL     1       2.192   3.659  19.859  0.00  0.00    +0.000 S 
ENDBRANCH   2   9
BRANCH   6  14
ATOM     14  C   UNL     1       7.038   8.433  17.838  0.00  0.00    +0.000 C 
BRANCH  14  15
ATOM     15  C   UNL     1       8.407   9.072  17.656  0.00  0.00    +0.000 C 
BRANCH  15  16
ATOM     16  O   UNL     1       9.027   9.251  18.928  0.00  0.00    +0.000 OA
BRANCH  16  17
ATOM     17  C   UNL     1       9.489  10.520  19.177  0.00  0.00    +0.000 A 
ATOM     18  C   UNL     1       9.956  11.200  18.048  0.00  0.00    +0.000 A 
ATOM     19  C   UNL     1      10.463  12.499  18.160  0.00  0.00    +0.000 A 
ATOM     20  C   UNL     1      10.509  13.129  19.403  0.00  0.00    +0.000 A 
ATOM     21  C   UNL     1      10.042  12.463  20.534  0.00  0.00    +0.000 A 
ATOM     22  C   UNL     1       9.537  11.170  20.417  0.00  0.00    +0.000 A 
ATOM     23  F   UNL     1       9.107  10.583  21.543  0.00  0.00    +0.000 F 
ENDBRANCH  16  17
ENDBRANCH  15  16
ENDBRANCH  14  15
ENDBRANCH   6  14
TORSDOF 5
ENDMDL
