MODEL 1
REMARK VINA RESULT:      -6.5      0.000      0.000
REMARK  Name = 
REMARK  4 active torsions:
REMARK  status: ('A' for Active; 'I' for Inactive)
REMARK    1  A    between atoms: C_1  and  N_2
REMARK    2  A    between atoms: N_2  and  C_3
REMARK    3  A    between atoms: C_8  and  C_9
REMARK    4  A    between atoms: C_8  and  C_10
REMARK                            x       y       z     vdW  Elec       q    Type
REMARK                         _______ _______ _______ _____ _____    ______ ____
ROOT
ATOM      1  C   UNL     1       4.151   3.899  16.945  0.00  0.00    +0.000 C 
ATOM      2  C   UNL     1       3.508   3.589  18.087  0.00  0.00    +0.000 C 
ATOM      3  C   UNL     1       4.254   3.241  19.334  0.00  0.00    +0.000 C 
ATOM      4  O   UNL     1       5.465   3.414  19.452  0.00  0.00    +0.000 OA
ATOM      5  C   UNL     1       3.442   2.617  20.447  0.00  0.00    +0.000 C 
ATOM      6  C   UNL     1       2.087   3.324  20.623  0.00  0.00    +0.000 C 
ATOM      7  C   UNL     1       1.310   2.650  21.768  0.00  0.00    +0.000 C 
ATOM      8  C   UNL     1       2.286   4.806  20.995  0.00  0.00    +0.000 C 
ATOM      9  C   UNL     1       1.274   3.185  19.325  0.00  0.00    +0.000 C 
ATOM     10  C   UNL     1       2.018   3.575  18.062  0.00  0.00    +0.000 C 
ATOM     11  O   UNL     1       1.383   3.822  17.036  0.00  0.00    +0.000 OA
ENDROOT
BRANCH   1  13
ATOM     12  C   UNL     1       6.128   3.817  15.412  0.00  0.00    +0.000 C 
ATOM     13  N   UNL     1       5.501   3.997  16.702  0.00  0.00    +0.000 N 
ATOM     14  H   UNL     1       6.056   4.418  17.452  0.00  0.00    +0.000 HD
ENDBRANCH   1  13
TORSDOF 1
ENDMDL
MODEL 2
REMARK VINA RESULT:      -6.3      2.067      2.397
REMARK  Name = 
REMARK  4 active torsions:
REMARK  status: ('A' for Active; 'I' for Inactive)
REMARK    1  A    between atoms: C_1  and  N_2
REMARK    2  A    between atoms: N_2  and  C_3
REMARK    3  A    between atoms: C_8  and  C_9
REMARK    4  A    between atoms: C_8  and  C_10
REMARK                            x       y       z     vdW  Elec       q    Type
REMARK                         _______ _______ _______ _____ _____    ______ ____
ROOT
ATOM      1  C   UNL     1       5.419   5.296  18.904  0.00  0.00    +0.000 C 
ATOM      2  C   UNL     1       4.288   4.566  18.875  0.00  0.00    +0.000 C 
ATOM      3  C   UNL     1       4.251   3.161  19.380  0.00  0.00    +0.000 C 
ATOM      4  O   UNL     1       5.171   2.665  20.028  0.00  0.00    +0.000 OA
ATOM      5  C   UNL     1       3.028   2.350  19.014  0.00  0.00    +0.000 C 
ATOM      6  C   UNL     1       1.738   3.174  19.163  0.00  0.00    +0.000 C 
ATOM      7  C   UNL     1       0.531   2.298  18.782  0.00  0.00    +0.000 C 
ATOM      8  C   UNL     1       1.546   3.635  20.621  0.00  0.00    +0.000 C 
ATOM      9  C   UNL     1       1.796   4.377  18.207  0.00  0.00    +0.000 C 
ATOM     10  C   UNL     1       3.070   5.197  18.291  0.00  0.00    +0.000 C 
ATOM     11  O   UNL     1       3.086   6.341  17.836  0.00  0.00    +0.000 OA
ENDROOT
BRANCH   1  13
ATOM     12  C   UNL     1       7.846   5.780  19.275  0.00  0.00    +0.000 C 
ATOM     13  N   UNL     1       6.660   4.964  19.393  0.00  0.00    +0.000 N 
ATOM     14  H   UNL     1       6.681   4.178  20.050  0.00  0.00    +0.000 HD
ENDBRANCH   1  13
TORSDOF 1
ENDMDL
MODEL 3
REMARK VINA RESULT:      -6.1      2.971      4.095
REMARK  Name = 
REMARK  4 active torsions:
REMARK  status: ('A' for Active; 'I' for Inactive)
REMARK    1  A    between atoms: C_1  and  N_2
REMARK    2  A    between atoms: N_2  and  C_3
REMARK    3  A    between atoms: C_8  and  C_9
REMARK    4  A    between atoms: C_8  and  C_10
REMARK                            x       y       z     vdW  Elec       q    Type
REMARK                         _______ _______ _______ _____ _____    ______ ____
ROOT
ATOM      1  C   UNL     1       6.896   5.147  16.508  0.00  0.00    +0.000 C 
ATOM      2  C   UNL     1       5.824   5.590  17.192  0.00  0.00    +0.000 C 
ATOM      3  C   UNL     1       4.891   6.602  16.613  0.00  0.00    +0.000 C 
ATOM      4  O   UNL     1       4.921   6.931  15.428  0.00  0.00    +0.000 OA
ATOM      5  C   UNL     1       3.918   7.244  17.577  0.00  0.00    +0.000 C 
ATOM      6  C   UNL     1       3.310   6.210  18.539  0.00  0.00    +0.000 C 
ATOM      7  C   UNL     1       2.329   6.919  19.490  0.00  0.00    +0.000 C 
ATOM      8  C   UNL     1       2.523   5.135  17.764  0.00  0.00    +0.000 C 
ATOM      9  C   UNL     1       4.435   5.576  19.373  0.00  0.00    +0.000 C 
ATOM     10  C   UNL     1       5.611   5.057  18.567  0.00  0.00    +0.000 C 
ATOM     11  O   UNL     1       6.388   4.250  19.079  0.00  0.00    +0.000 OA
ENDROOT
BRANCH   1  13
ATOM     12  C   UNL     1       7.028   4.682  14.051  0.00  0.00    +0.000 C 
ATOM     13  N   UNL     1       7.310   5.462  15.235  0.00  0.00    +0.000 N 
ATOM     14  H   UNL     1       7.671   6.413  15.110  0.00  0.00    +0.000 HD
ENDBRANCH   1  13
TORSDOF 1
ENDMDL
MODEL 4
REMARK VINA RESULT:      -5.8      2.039      5.332
REMARK  Name = 
REMARK  4 active torsions:
REMARK  status: ('A' for Active; 'I' for Inactive)
REMARK    1  A    between atoms: C_1  and  N_2
REMARK    2  A    between atoms: N_2  and  C_3
REMARK    3  A    between atoms: C_8  and  C_9
REMARK    4  A    between atoms: C_8  and  C_10
REMARK                            x       y       z     vdW  Elec       q    Type
REMARK                         _______ _______ _______ _____ _____    ______ ____
ROOT
ATOM      1  C   UNL     1       3.996   4.183  19.771  0.00  0.00    +0.000 C 
ATOM      2  C   UNL     1       4.675   4.317  18.616  0.00  0.00    +0.000 C 
ATOM      3  C   UNL     1       4.090   3.883  17.312  0.00  0.00    +0.000 C 
ATOM      4  O   UNL     1       2.906   3.578  17.185  0.00  0.00    +0.000 OA
ATOM      5  C   UNL     1       5.049   3.794  16.145  0.00  0.00    +0.000 C 
ATOM      6  C   UNL     1       6.009   4.995  16.110  0.00  0.00    +0.000 C 
ATOM      7  C   UNL     1       6.954   4.851  14.904  0.00  0.00    +0.000 C 
ATOM      8  C   UNL     1       5.230   6.315  15.945  0.00  0.00    +0.000 C 
ATOM      9  C   UNL     1       6.849   5.006  17.397  0.00  0.00    +0.000 C 
ATOM     10  C   UNL     1       6.050   4.888  18.681  0.00  0.00    +0.000 C 
ATOM     11  O   UNL     1       6.566   5.219  19.750  0.00  0.00    +0.000 OA
ENDROOT
BRANCH   1  13
ATOM     12  C   UNL     1       2.141   3.455  21.285  0.00  0.00    +0.000 C 
ATOM     13  N   UNL     1       2.726   3.705  19.988  0.00  0.00    +0.000 N 
ATOM     14  H   UNL     1       2.103   3.720  19.174  0.00  0.00    +0.000 HD
ENDBRANCH   1  13
TORSDOF 1
ENDMDL
MODEL 5
REMARK VINA RESULT:      -5.8      1.975      2.239
REMARK  Name = 
REMARK  4 active torsions:
REMARK  status: ('A' for Active; 'I' for Inactive)
REMARK    1  A    between atoms: C_1  and  N_2
REMARK    2  A    between atoms: N_2  and  C_3
REMARK    3  A    between atoms: C_8  and  C_9
REMARK    4  A    between atoms: C_8  and  C_10
REMARK                            x       y       z     vdW  Elec       q    Type
REMARK                         _______ _______ _______ _____ _____    ______ ____
ROOT
ATOM      1  C   UNL     1       4.930   3.692  16.459  0.00  0.00    +0.000 C 
ATOM      2  C   UNL     1       4.209   4.277  17.434  0.00  0.00    +0.000 C 
ATOM      3  C   UNL     1       4.839   5.204  18.421  0.00  0.00    +0.000 C 
ATOM      4  O   UNL     1       5.979   5.644  18.284  0.00  0.00    +0.000 OA
ATOM      5  C   UNL     1       4.010   5.549  19.638  0.00  0.00    +0.000 C 
ATOM      6  C   UNL     1       2.544   5.825  19.264  0.00  0.00    +0.000 C 
ATOM      7  C   UNL     1       1.754   6.173  20.538  0.00  0.00    +0.000 C 
ATOM      8  C   UNL     1       2.440   7.024  18.301  0.00  0.00    +0.000 C 
ATOM      9  C   UNL     1       1.937   4.559  18.637  0.00  0.00    +0.000 C 
ATOM     10  C   UNL     1       2.759   3.946  17.518  0.00  0.00    +0.000 C 
ATOM     11  O   UNL     1       2.226   3.156  16.738  0.00  0.00    +0.000 OA
ENDROOT
BRANCH   1  13
ATOM     12  C   UNL     1       6.784   4.527  14.999  0.00  0.00    +0.000 C 
ATOM     13  N   UNL     1       6.263   3.831  16.154  0.00  0.00    +0.000 N 
ATOM     14  H   UNL     1       6.916   3.592  16.906  0.00  0.00    +0.000 HD
ENDBRANCH   1  13
TORSDOF 1
ENDMDL
MODEL 6
REMARK VINA RESULT:      -5.7      2.443      3.019
REMARK  Name = 
REMARK  4 active torsions:
REMARK  status: ('A' for Active; 'I' for Inactive)
REMARK    1  A    between atoms: C_1  and  N_2
REMARK    2  A    between atoms: N_2  and  C_3
REMARK    3  A    between atoms: C_8  and  C_9
REMARK    4  A    between atoms: C_8  and  C_10
REMARK                            x       y       z     vdW  Elec       q    Type
REMARK                         _______ _______ _______ _____ _____    ______ ____
ROOT
ATOM      1  C   UNL     1       5.086   6.927  17.228  0.00  0.00    +0.000 C 
ATOM      2  C   UNL     1       4.293   5.867  17.473  0.00  0.00    +0.000 C 
ATOM      3  C   UNL     1       4.740   4.473  17.179  0.00  0.00    +0.000 C 
ATOM      4  O   UNL     1       5.904   4.195  16.899  0.00  0.00    +0.000 OA
ATOM      5  C   UNL     1       3.666   3.407  17.201  0.00  0.00    +0.000 C 
ATOM      6  C   UNL     1       2.710   3.593  18.391  0.00  0.00    +0.000 C 
ATOM      7  C   UNL     1       1.646   2.482  18.363  0.00  0.00    +0.000 C 
ATOM      8  C   UNL     1       3.470   3.486  19.728  0.00  0.00    +0.000 C 
ATOM      9  C   UNL     1       2.006   4.954  18.264  0.00  0.00    +0.000 C 
ATOM     10  C   UNL     1       2.933   6.131  18.022  0.00  0.00    +0.000 C 
ATOM     11  O   UNL     1       2.530   7.275  18.238  0.00  0.00    +0.000 OA
ENDROOT
BRANCH   1  13
ATOM     12  C   UNL     1       7.536   7.364  17.496  0.00  0.00    +0.000 C 
ATOM     13  N   UNL     1       6.371   6.962  16.741  0.00  0.00    +0.000 N 
ATOM     14  H   UNL     1       6.519   6.483  15.848  0.00  0.00    +0.000 HD
ENDBRANCH   1  13
TORSDOF 1
ENDMDL
MODEL 7
REMARK VINA RESULT:      -5.7      3.377      4.201
REMARK  Name = 
REMARK  4 active torsions:
REMARK  status: ('A' for Active; 'I' for Inactive)
REMARK    1  A    between atoms: C_1  and  N_2
REMARK    2  A    between atoms: N_2  and  C_3
REMARK    3  A    between atoms: C_8  and  C_9
REMARK    4  A    between atoms: C_8  and  C_10
REMARK                            x       y       z     vdW  Elec       q    Type
REMARK                         _______ _______ _______ _____ _____    ______ ____
ROOT
ATOM      1  C   UNL     1       7.188   7.194  17.425  0.00  0.00    +0.000 C 
ATOM      2  C   UNL     1       6.307   6.183  17.548  0.00  0.00    +0.000 C 
ATOM      3  C   UNL     1       6.286   5.309  18.759  0.00  0.00    +0.000 C 
ATOM      4  O   UNL     1       6.912   5.578  19.782  0.00  0.00    +0.000 OA
ATOM      5  C   UNL     1       5.477   4.036  18.651  0.00  0.00    +0.000 C 
ATOM      6  C   UNL     1       4.132   4.278  17.946  0.00  0.00    +0.000 C 
ATOM      7  C   UNL     1       3.354   2.952  17.869  0.00  0.00    +0.000 C 
ATOM      8  C   UNL     1       3.272   5.285  18.736  0.00  0.00    +0.000 C 
ATOM      9  C   UNL     1       4.395   4.780  16.517  0.00  0.00    +0.000 C 
ATOM     10  C   UNL     1       5.366   5.942  16.418  0.00  0.00    +0.000 C 
ATOM     11  O   UNL     1       5.391   6.626  15.394  0.00  0.00    +0.000 OA
ENDROOT
BRANCH   1  13
ATOM     12  C   UNL     1       8.567   9.006  18.463  0.00  0.00    +0.000 C 
ATOM     13  N   UNL     1       8.143   7.633  18.311  0.00  0.00    +0.000 N 
ATOM     14  H   UNL     1       8.416   6.963  19.035  0.00  0.00    +0.000 HD
ENDBRANCH   1  13
TORSDOF 1
ENDMDL
MODEL 8
REMARK VINA RESULT:      -5.6      2.468      4.656
REMARK  Name = 
REMARK  4 active torsions:
REMARK  status: ('A' for Active; 'I' for Inactive)
REMARK    1  A    between atoms: C_1  and  N_2
REMARK    2  A    between atoms: N_2  and  C_3
REMARK    3  A    between atoms: C_8  and  C_9
REMARK    4  A    between atoms: C_8  and  C_10
REMARK                            x       y       z     vdW  Elec       q    Type
REMARK                         _______ _______ _______ _____ _____    ______ ____
ROOT
ATOM      1  C   UNL     1       2.441   4.088  19.436  0.00  0.00    +0.000 C 
ATOM      2  C   UNL     1       3.548   4.677  18.946  0.00  0.00    +0.000 C 
ATOM      3  C   UNL     1       4.910   4.120  19.206  0.00  0.00    +0.000 C 
ATOM      4  O   UNL     1       5.088   3.005  19.693  0.00  0.00    +0.000 OA
ATOM      5  C   UNL     1       6.077   5.024  18.875  0.00  0.00    +0.000 C 
ATOM      6  C   UNL     1       5.868   5.749  17.536  0.00  0.00    +0.000 C 
ATOM      7  C   UNL     1       7.085   6.648  17.252  0.00  0.00    +0.000 C 
ATOM      8  C   UNL     1       5.747   4.739  16.378  0.00  0.00    +0.000 C 
ATOM      9  C   UNL     1       4.614   6.633  17.631  0.00  0.00    +0.000 C 
ATOM     10  C   UNL     1       3.376   5.928  18.155  0.00  0.00    +0.000 C 
ATOM     11  O   UNL     1       2.267   6.426  17.959  0.00  0.00    +0.000 OA
ENDROOT
BRANCH   1  13
ATOM     12  C   UNL     1       1.972   2.880  21.577  0.00  0.00    +0.000 C 
ATOM     13  N   UNL     1       2.319   2.936  20.176  0.00  0.00    +0.000 N 
ATOM     14  H   UNL     1       2.283   2.066  19.636  0.00  0.00    +0.000 HD
ENDBRANCH   1  13
TORSDOF 1
ENDMDL
MODEL 9
REMARK VINA RESULT:      -5.6      2.039      2.955
REMARK  Name = 
REMARK  4 active torsions:
REMARK  status: ('A' for Active; 'I' for Inactive)
REMARK    1  A    between atoms: C_1  and  N_2
REMARK    2  A    between atoms: N_2  and  C_3
REMARK    3  A    between atoms: C_8  and  C_9
REMARK    4  A    between atoms: C_8  and  C_10
REMARK                            x       y       z     vdW  Elec       q    Type
REMARK                         _______ _______ _______ _____ _____    ______ ____
ROOT
ATOM      1  C   UNL     1       6.019   4.543  18.275  0.00  0.00    +0.000 C 
ATOM      2  C   UNL     1       4.762   4.463  18.750  0.00  0.00    +0.000 C 
ATOM      3  C   UNL     1       3.755   5.532  18.479  0.00  0.00    +0.000 C 
ATOM      4  O   UNL     1       3.940   6.424  17.655  0.00  0.00    +0.000 OA
ATOM      5  C   UNL     1       2.492   5.487  19.311  0.00  0.00    +0.000 C 
ATOM      6  C   UNL     1       1.960   4.052  19.454  0.00  0.00    +0.000 C 
ATOM      7  C   UNL     1       0.676   4.070  20.304  0.00  0.00    +0.000 C 
ATOM      8  C   UNL     1       1.605   3.458  18.076  0.00  0.00    +0.000 C 
ATOM      9  C   UNL     1       3.014   3.192  20.170  0.00  0.00    +0.000 C 
ATOM     10  C   UNL     1       4.412   3.281  19.587  0.00  0.00    +0.000 C 
ATOM     11  O   UNL     1       5.237   2.405  19.854  0.00  0.00    +0.000 OA
ENDROOT
BRANCH   1  13
ATOM     12  C   UNL     1       7.436   6.581  17.949  0.00  0.00    +0.000 C 
ATOM     13  N   UNL     1       6.592   5.507  17.478  0.00  0.00    +0.000 N 
ATOM     14  H   UNL     1       6.569   5.320  16.472  0.00  0.00    +0.000 HD
ENDBRANCH   1  13
TORSDOF 1
ENDMDL
