MODEL 1
REMARK VINA RESULT:      -7.1      0.000      0.000
REMARK  Name = 
REMARK  9 active torsions:
REMARK  status: ('A' for Active; 'I' for Inactive)
REMARK    1  A    between atoms: C_1  and  O_2
REMARK    2  A    between atoms: O_2  and  C_3
REMARK    3  A    between atoms: C_5  and  O_6
REMARK    4  A    between atoms: C_9  and  C_10
REMARK    5  A    between atoms: C_11  and  O_12
REMARK    6  A    between atoms: O_12  and  C_13
REMARK    7  A    between atoms: C_15  and  O_16
REMARK    8  A    between atoms: C_23  and  O_24
REMARK    9  A    between atoms: C_32  and  O_33
REMARK                            x       y       z     vdW  Elec       q    Type
REMARK                         _______ _______ _______ _____ _____    ______ ____
ROOT
ATOM      1  C   UNL     1       2.150   9.903  18.033  0.00  0.00    +0.000 A 
ATOM      2  C   UNL     1       3.185   9.182  17.423  0.00  0.00    +0.000 A 
ATOM      3  C   UNL     1       3.423   7.833  17.715  0.00  0.00    +0.000 A 
ATOM      4  C   UNL     1       2.658   7.124  18.658  0.00  0.00    +0.000 A 
ATOM      5  C   UNL     1       1.666   7.904  19.353  0.00  0.00    +0.000 A 
ATOM      6  C   UNL     1       1.351   9.302  19.054  0.00  0.00    +0.000 A 
ATOM      7  C   UNL     1       0.800   7.128  20.304  0.00  0.00    +0.000 C 
ATOM      8  C   UNL     1       1.142   5.776  20.848  0.00  0.00    +0.000 C 
ATOM      9  C   UNL     1       1.987   4.986  19.903  0.00  0.00    +0.000 A 
ATOM     10  C   UNL     1       1.986   3.592  20.115  0.00  0.00    +0.000 A 
ATOM     11  C   UNL     1       2.827   2.787  19.377  0.00  0.00    +0.000 A 
ATOM     12  C   UNL     1       3.647   3.356  18.427  0.00  0.00    +0.000 A 
ATOM     13  C   UNL     1       3.599   4.746  18.183  0.00  0.00    +0.000 A 
ATOM     14  C   UNL     1       2.772   5.620  18.913  0.00  0.00    +0.000 A 
ENDROOT
BRANCH   6  15
ATOM     15  C   UNL     1       0.239  10.173  19.752  0.00  0.00    +0.000 A 
ATOM     16  C   UNL     1       0.441  10.624  21.088  0.00  0.00    +0.000 A 
ATOM     17  C   UNL     1      -0.482  11.486  21.697  0.00  0.00    +0.000 A 
ATOM     18  C   UNL     1      -1.669  11.887  21.057  0.00  0.00    +0.000 A 
ATOM     19  C   UNL     1      -2.004  11.451  19.760  0.00  0.00    +0.000 A 
ATOM     20  C   UNL     1      -1.012  10.624  19.127  0.00  0.00    +0.000 A 
ATOM     21  C   UNL     1      -1.409  10.029  17.815  0.00  0.00    +0.000 C 
ATOM     22  C   UNL     1      -2.511  10.550  16.954  0.00  0.00    +0.000 C 
ATOM     23  C   UNL     1      -3.569  11.246  17.735  0.00  0.00    +0.000 A 
ATOM     24  C   UNL     1      -4.786  11.414  17.048  0.00  0.00    +0.000 A 
ATOM     25  C   UNL     1      -5.798  12.147  17.637  0.00  0.00    +0.000 A 
ATOM     26  C   UNL     1      -5.602  12.691  18.881  0.00  0.00    +0.000 A 
ATOM     27  C   UNL     1      -4.388  12.475  19.581  0.00  0.00    +0.000 A 
ATOM     28  C   UNL     1      -3.319  11.738  19.041  0.00  0.00    +0.000 A 
BRANCH  16  29
ATOM     29  O   UNL     1       1.561  10.160  21.741  0.00  0.00    +0.000 OA
ATOM     30  C   UNL     1       1.423   9.293  22.856  0.00  0.00    +0.000 C 
ENDBRANCH  16  29
BRANCH  18  31
ATOM     31  O   UNL     1      -2.508  12.704  21.761  0.00  0.00    +0.000 OA
ATOM     32  H   UNL     1      -2.692  13.508  21.254  0.00  0.00    +0.000 HD
ENDBRANCH  18  31
BRANCH  25  33
ATOM     33  O   UNL     1      -6.979  12.365  16.982  0.00  0.00    +0.000 OA
ATOM     34  H   UNL     1      -7.655  11.779  17.359  0.00  0.00    +0.000 HD
ENDBRANCH  25  33
ENDBRANCH   6  15
BRANCH   1  36
ATOM     35  C   UNL     1       2.665  12.263  18.130  0.00  0.00    +0.000 C 
ATOM     36  O   UNL     1       1.847  11.195  17.660  0.00  0.00    +0.000 OA
ENDBRANCH   1  36
BRANCH   3  37
ATOM     37  O   UNL     1       4.432   7.226  17.011  0.00  0.00    +0.000 OA
ATOM     38  H   UNL     1       4.063   6.708  16.278  0.00  0.00    +0.000 HD
ENDBRANCH   3  37
BRANCH  11  39
ATOM     39  O   UNL     1       2.878   1.443  19.585  0.00  0.00    +0.000 OA
ATOM     40  H   UNL     1       3.780   1.128  19.424  0.00  0.00    +0.000 HD
ENDBRANCH  11  39
TORSDOF 7
ENDMDL
MODEL 2
REMARK VINA RESULT:      -7.1      2.935      8.655
REMARK  Name = 
REMARK  9 active torsions:
REMARK  status: ('A' for Active; 'I' for Inactive)
REMARK    1  A    between atoms: C_1  and  O_2
REMARK    2  A    between atoms: O_2  and  C_3
REMARK    3  A    between atoms: C_5  and  O_6
REMARK    4  A    between atoms: C_9  and  C_10
REMARK    5  A    between atoms: C_11  and  O_12
REMARK    6  A    between atoms: O_12  and  C_13
REMARK    7  A    between atoms: C_15  and  O_16
REMARK    8  A    between atoms: C_23  and  O_24
REMARK    9  A    between atoms: C_32  and  O_33
REMARK                            x       y       z     vdW  Elec       q    Type
REMARK                         _______ _______ _______ _____ _____    ______ ____
ROOT
ATOM      1  C   UNL     1      -0.640  11.308  18.558  0.00  0.00    +0.000 A 
ATOM      2  C   UNL     1      -1.076  12.570  18.136  0.00  0.00    +0.000 A 
ATOM      3  C   UNL     1      -0.385  13.743  18.468  0.00  0.00    +0.000 A 
ATOM      4  C   UNL     1       0.772  13.732  19.267  0.00  0.00    +0.000 A 
ATOM      5  C   UNL     1       1.149  12.438  19.779  0.00  0.00    +0.000 A 
ATOM      6  C   UNL     1       0.486  11.181  19.428  0.00  0.00    +0.000 A 
ATOM      7  C   UNL     1       2.426  12.417  20.569  0.00  0.00    +0.000 C 
ATOM      8  C   UNL     1       3.072  13.628  21.166  0.00  0.00    +0.000 C 
ATOM      9  C   UNL     1       2.782  14.866  20.382  0.00  0.00    +0.000 A 
ATOM     10  C   UNL     1       3.675  15.936  20.593  0.00  0.00    +0.000 A 
ATOM     11  C   UNL     1       3.425  17.161  20.013  0.00  0.00    +0.000 A 
ATOM     12  C   UNL     1       2.311  17.317  19.216  0.00  0.00    +0.000 A 
ATOM     13  C   UNL     1       1.455  16.223  18.965  0.00  0.00    +0.000 A 
ATOM     14  C   UNL     1       1.650  14.954  19.541  0.00  0.00    +0.000 A 
ENDROOT
BRANCH   6  15
ATOM     15  C   UNL     1       0.900   9.744  19.922  0.00  0.00    +0.000 A 
ATOM     16  C   UNL     1       0.402   9.264  21.168  0.00  0.00    +0.000 A 
ATOM     17  C   UNL     1       0.667   7.951  21.584  0.00  0.00    +0.000 A 
ATOM     18  C   UNL     1       1.483   7.079  20.839  0.00  0.00    +0.000 A 
ATOM     19  C   UNL     1       2.081   7.468  19.625  0.00  0.00    +0.000 A 
ATOM     20  C   UNL     1       1.740   8.793  19.182  0.00  0.00    +0.000 A 
ATOM     21  C   UNL     1       2.478   9.281  17.977  0.00  0.00    +0.000 C 
ATOM     22  C   UNL     1       3.170   8.394  16.998  0.00  0.00    +0.000 C 
ATOM     23  C   UNL     1       3.628   7.116  17.606  0.00  0.00    +0.000 A 
ATOM     24  C   UNL     1       4.598   6.426  16.855  0.00  0.00    +0.000 A 
ATOM     25  C   UNL     1       5.010   5.175  17.270  0.00  0.00    +0.000 A 
ATOM     26  C   UNL     1       4.473   4.630  18.408  0.00  0.00    +0.000 A 
ATOM     27  C   UNL     1       3.531   5.354  19.181  0.00  0.00    +0.000 A 
ATOM     28  C   UNL     1       3.070   6.633  18.817  0.00  0.00    +0.000 A 
BRANCH  16  29
ATOM     29  O   UNL     1      -0.324  10.149  21.934  0.00  0.00    +0.000 OA
ATOM     30  C   UNL     1      -0.531   9.888  23.313  0.00  0.00    +0.000 C 
ENDBRANCH  16  29
BRANCH  18  31
ATOM     31  O   UNL     1       1.697   5.834  21.360  0.00  0.00    +0.000 OA
ATOM     32  H   UNL     1       2.353   5.360  20.829  0.00  0.00    +0.000 HD
ENDBRANCH  18  31
BRANCH  25  33
ATOM     33  O   UNL     1       5.921   4.459  16.542  0.00  0.00    +0.000 OA
ATOM     34  H   UNL     1       5.948   3.552  16.885  0.00  0.00    +0.000 HD
ENDBRANCH  25  33
ENDBRANCH   6  15
BRANCH   1  36
ATOM     35  C   UNL     1      -2.038  10.172  16.945  0.00  0.00    +0.000 C 
ATOM     36  O   UNL     1      -1.257  10.149  18.136  0.00  0.00    +0.000 OA
ENDBRANCH   1  36
BRANCH   3  37
ATOM     37  O   UNL     1      -0.883  14.911  17.949  0.00  0.00    +0.000 OA
ATOM     38  H   UNL     1      -1.602  15.246  18.507  0.00  0.00    +0.000 HD
ENDBRANCH   3  37
BRANCH  11  39
ATOM     39  O   UNL     1       4.246  18.224  20.230  0.00  0.00    +0.000 OA
ATOM     40  H   UNL     1       3.827  18.828  20.861  0.00  0.00    +0.000 HD
ENDBRANCH  11  39
TORSDOF 7
ENDMDL
MODEL 3
REMARK VINA RESULT:      -7.0      3.043      5.740
REMARK  Name = 
REMARK  9 active torsions:
REMARK  status: ('A' for Active; 'I' for Inactive)
REMARK    1  A    between atoms: C_1  and  O_2
REMARK    2  A    between atoms: O_2  and  C_3
REMARK    3  A    between atoms: C_5  and  O_6
REMARK    4  A    between atoms: C_9  and  C_10
REMARK    5  A    between atoms: C_11  and  O_12
REMARK    6  A    between atoms: O_12  and  C_13
REMARK    7  A    between atoms: C_15  and  O_16
REMARK    8  A    between atoms: C_23  and  O_24
REMARK    9  A    between atoms: C_32  and  O_33
REMARK                            x       y       z     vdW  Elec       q    Type
REMARK                         _______ _______ _______ _____ _____    ______ ____
ROOT
ATOM      1  C   UNL     1       0.283   9.649  21.187  0.00  0.00    +0.000 A 
ATOM      2  C   UNL     1       0.524   8.344  21.633  0.00  0.00    +0.000 A 
ATOM      3  C   UNL     1       1.331   7.451  20.916  0.00  0.00    +0.000 A 
ATOM      4  C   UNL     1       1.926   7.797  19.690  0.00  0.00    +0.000 A 
ATOM      5  C   UNL     1       1.585   9.106  19.192  0.00  0.00    +0.000 A 
ATOM      6  C   UNL     1       0.784  10.089  19.923  0.00  0.00    +0.000 A 
ATOM      7  C   UNL     1       2.281   9.502  17.921  0.00  0.00    +0.000 C 
ATOM      8  C   UNL     1       2.942   8.541  16.984  0.00  0.00    +0.000 C 
ATOM      9  C   UNL     1       3.460   7.330  17.690  0.00  0.00    +0.000 A 
ATOM     10  C   UNL     1       4.454   6.609  16.999  0.00  0.00    +0.000 A 
ATOM     11  C   UNL     1       4.909   5.411  17.507  0.00  0.00    +0.000 A 
ATOM     12  C   UNL     1       4.396   4.944  18.698  0.00  0.00    +0.000 A 
ATOM     13  C   UNL     1       3.442   5.702  19.411  0.00  0.00    +0.000 A 
ATOM     14  C   UNL     1       2.930   6.923  18.935  0.00  0.00    +0.000 A 
ENDROOT
BRANCH   6  15
ATOM     15  C   UNL     1       0.435  11.547  19.439  0.00  0.00    +0.000 A 
ATOM     16  C   UNL     1      -0.709  11.753  18.615  0.00  0.00    +0.000 A 
ATOM     17  C   UNL     1      -1.104  13.050  18.256  0.00  0.00    +0.000 A 
ATOM     18  C   UNL     1      -0.365  14.189  18.626  0.00  0.00    +0.000 A 
ATOM     19  C   UNL     1       0.818  14.098  19.385  0.00  0.00    +0.000 A 
ATOM     20  C   UNL     1       1.168  12.767  19.801  0.00  0.00    +0.000 A 
ATOM     21  C   UNL     1       2.492  12.629  20.479  0.00  0.00    +0.000 C 
ATOM     22  C   UNL     1       3.234  13.757  21.114  0.00  0.00    +0.000 C 
ATOM     23  C   UNL     1       2.920  15.072  20.493  0.00  0.00    +0.000 A 
ATOM     24  C   UNL     1       3.849  16.089  20.780  0.00  0.00    +0.000 A 
ATOM     25  C   UNL     1       3.595  17.377  20.348  0.00  0.00    +0.000 A 
ATOM     26  C   UNL     1       2.448  17.639  19.644  0.00  0.00    +0.000 A 
ATOM     27  C   UNL     1       1.543  16.596  19.322  0.00  0.00    +0.000 A 
ATOM     28  C   UNL     1       1.742  15.264  19.728  0.00  0.00    +0.000 A 
BRANCH  16  29
ATOM     29  O   UNL     1      -1.380  10.631  18.184  0.00  0.00    +0.000 OA
ATOM     30  C   UNL     1      -2.219  10.702  17.042  0.00  0.00    +0.000 C 
ENDBRANCH  16  29
BRANCH  18  31
ATOM     31  O   UNL     1      -0.829  15.398  18.191  0.00  0.00    +0.000 OA
ATOM     32  H   UNL     1      -0.125  15.879  17.731  0.00  0.00    +0.000 HD
ENDBRANCH  18  31
BRANCH  25  33
ATOM     33  O   UNL     1       4.455  18.399  20.644  0.00  0.00    +0.000 OA
ATOM     34  H   UNL     1       3.953  19.229  20.670  0.00  0.00    +0.000 HD
ENDBRANCH  25  33
ENDBRANCH   6  15
BRANCH   1  36
ATOM     35  C   UNL     1      -0.845  10.186  23.258  0.00  0.00    +0.000 C 
ATOM     36  O   UNL     1      -0.416  10.560  21.951  0.00  0.00    +0.000 OA
ENDBRANCH   1  36
BRANCH   3  37
ATOM     37  O   UNL     1       1.533   6.219  21.486  0.00  0.00    +0.000 OA
ATOM     38  H   UNL     1       1.685   5.553  20.798  0.00  0.00    +0.000 HD
ENDBRANCH   3  37
BRANCH  11  39
ATOM     39  O   UNL     1       5.840   4.673  16.844  0.00  0.00    +0.000 OA
ATOM     40  H   UNL     1       5.824   4.908  15.904  0.00  0.00    +0.000 HD
ENDBRANCH  11  39
TORSDOF 7
ENDMDL
MODEL 4
REMARK VINA RESULT:      -6.7      3.099      4.468
REMARK  Name = 
REMARK  9 active torsions:
REMARK  status: ('A' for Active; 'I' for Inactive)
REMARK    1  A    between atoms: C_1  and  O_2
REMARK    2  A    between atoms: O_2  and  C_3
REMARK    3  A    between atoms: C_5  and  O_6
REMARK    4  A    between atoms: C_9  and  C_10
REMARK    5  A    between atoms: C_11  and  O_12
REMARK    6  A    between atoms: O_12  and  C_13
REMARK    7  A    between atoms: C_15  and  O_16
REMARK    8  A    between atoms: C_23  and  O_24
REMARK    9  A    between atoms: C_32  and  O_33
REMARK                            x       y       z     vdW  Elec       q    Type
REMARK                         _______ _______ _______ _____ _____    ______ ____
ROOT
ATOM      1  C   UNL     1       0.949  13.676  19.108  0.00  0.00    +0.000 A 
ATOM      2  C   UNL     1       1.674  13.042  18.092  0.00  0.00    +0.000 A 
ATOM      3  C   UNL     1       1.995  11.679  18.149  0.00  0.00    +0.000 A 
ATOM      4  C   UNL     1       1.637  10.869  19.240  0.00  0.00    +0.000 A 
ATOM      5  C   UNL     1       0.983  11.557  20.324  0.00  0.00    +0.000 A 
ATOM      6  C   UNL     1       0.588  12.966  20.294  0.00  0.00    +0.000 A 
ATOM      7  C   UNL     1       0.533  10.677  21.455  0.00  0.00    +0.000 C 
ATOM      8  C   UNL     1       1.045   9.293  21.704  0.00  0.00    +0.000 C 
ATOM      9  C   UNL     1       1.468   8.612  20.443  0.00  0.00    +0.000 A 
ATOM     10  C   UNL     1       1.537   7.206  20.512  0.00  0.00    +0.000 A 
ATOM     11  C   UNL     1       2.034   6.492  19.442  0.00  0.00    +0.000 A 
ATOM     12  C   UNL     1       2.441   7.166  18.311  0.00  0.00    +0.000 A 
ATOM     13  C   UNL     1       2.314   8.569  18.231  0.00  0.00    +0.000 A 
ATOM     14  C   UNL     1       1.828   9.352  19.295  0.00  0.00    +0.000 A 
ENDROOT
BRANCH   6  15
ATOM     15  C   UNL     1      -0.175  13.741  21.434  0.00  0.00    +0.000 A 
ATOM     16  C   UNL     1       0.553  14.612  22.294  0.00  0.00    +0.000 A 
ATOM     17  C   UNL     1      -0.114  15.394  23.249  0.00  0.00    +0.000 A 
ATOM     18  C   UNL     1      -1.504  15.308  23.450  0.00  0.00    +0.000 A 
ATOM     19  C   UNL     1      -2.315  14.432  22.701  0.00  0.00    +0.000 A 
ATOM     20  C   UNL     1      -1.623  13.692  21.681  0.00  0.00    +0.000 A 
ATOM     21  C   UNL     1      -2.432  12.652  20.976  0.00  0.00    +0.000 C 
ATOM     22  C   UNL     1      -3.923  12.628  20.940  0.00  0.00    +0.000 C 
ATOM     23  C   UNL     1      -4.536  13.278  22.129  0.00  0.00    +0.000 A 
ATOM     24  C   UNL     1      -5.890  12.955  22.337  0.00  0.00    +0.000 A 
ATOM     25  C   UNL     1      -6.589  13.591  23.346  0.00  0.00    +0.000 A 
ATOM     26  C   UNL     1      -5.950  14.519  24.128  0.00  0.00    +0.000 A 
ATOM     27  C   UNL     1      -4.574  14.801  23.937  0.00  0.00    +0.000 A 
ATOM     28  C   UNL     1      -3.804  14.189  22.932  0.00  0.00    +0.000 A 
BRANCH  16  29
ATOM     29  O   UNL     1       1.923  14.629  22.152  0.00  0.00    +0.000 OA
ATOM     30  C   UNL     1       2.628  15.857  22.233  0.00  0.00    +0.000 C 
ENDBRANCH  16  29
BRANCH  18  31
ATOM     31  O   UNL     1      -2.039  16.094  24.430  0.00  0.00    +0.000 OA
ATOM     32  H   UNL     1      -2.114  15.593  25.255  0.00  0.00    +0.000 HD
ENDBRANCH  18  31
BRANCH  25  33
ATOM     33  O   UNL     1      -7.916  13.332  23.550  0.00  0.00    +0.000 OA
ATOM     34  H   UNL     1      -8.093  13.355  24.504  0.00  0.00    +0.000 HD
ENDBRANCH  25  33
ENDBRANCH   6  15
BRANCH   1  36
ATOM     35  C   UNL     1       1.472  15.975  18.573  0.00  0.00    +0.000 C 
ATOM     36  O   UNL     1       0.537  14.988  18.995  0.00  0.00    +0.000 OA
ENDBRANCH   1  36
BRANCH   3  37
ATOM     37  O   UNL     1       2.662  11.165  17.065  0.00  0.00    +0.000 OA
ATOM     38  H   UNL     1       3.157  11.866  16.612  0.00  0.00    +0.000 HD
ENDBRANCH   3  37
BRANCH  11  39
ATOM     39  O   UNL     1       2.150   5.137  19.493  0.00  0.00    +0.000 OA
ATOM     40  H   UNL     1       1.874   4.761  18.643  0.00  0.00    +0.000 HD
ENDBRANCH  11  39
TORSDOF 7
ENDMDL
MODEL 5
REMARK VINA RESULT:      -6.7      3.593      6.881
REMARK  Name = 
REMARK  9 active torsions:
REMARK  status: ('A' for Active; 'I' for Inactive)
REMARK    1  A    between atoms: C_1  and  O_2
REMARK    2  A    between atoms: O_2  and  C_3
REMARK    3  A    between atoms: C_5  and  O_6
REMARK    4  A    between atoms: C_9  and  C_10
REMARK    5  A    between atoms: C_11  and  O_12
REMARK    6  A    between atoms: O_12  and  C_13
REMARK    7  A    between atoms: C_15  and  O_16
REMARK    8  A    between atoms: C_23  and  O_24
REMARK    9  A    between atoms: C_32  and  O_33
REMARK                            x       y       z     vdW  Elec       q    Type
REMARK                         _______ _______ _______ _____ _____    ______ ____
ROOT
ATOM      1  C   UNL     1      -0.414  11.727  22.059  0.00  0.00    +0.000 A 
ATOM      2  C   UNL     1      -0.735  10.483  22.617  0.00  0.00    +0.000 A 
ATOM      3  C   UNL     1      -0.265   9.282  22.071  0.00  0.00    +0.000 A 
ATOM      4  C   UNL     1       0.535   9.244  20.915  0.00  0.00    +0.000 A 
ATOM      5  C   UNL     1       0.770  10.522  20.293  0.00  0.00    +0.000 A 
ATOM      6  C   UNL     1       0.338  11.807  20.846  0.00  0.00    +0.000 A 
ATOM      7  C   UNL     1       1.686  10.489  19.103  0.00  0.00    +0.000 C 
ATOM      8  C   UNL     1       2.018   9.254  18.325  0.00  0.00    +0.000 C 
ATOM      9  C   UNL     1       1.963   8.024  19.171  0.00  0.00    +0.000 A 
ATOM     10  C   UNL     1       2.669   6.913  18.666  0.00  0.00    +0.000 A 
ATOM     11  C   UNL     1       2.579   5.696  19.307  0.00  0.00    +0.000 A 
ATOM     12  C   UNL     1       1.812   5.587  20.447  0.00  0.00    +0.000 A 
ATOM     13  C   UNL     1       1.155   6.719  20.976  0.00  0.00    +0.000 A 
ATOM     14  C   UNL     1       1.198   7.983  20.358  0.00  0.00    +0.000 A 
ENDROOT
BRANCH   6  15
ATOM     15  C   UNL     1       0.621  13.227  20.226  0.00  0.00    +0.000 A 
ATOM     16  C   UNL     1      -0.343  13.816  19.360  0.00  0.00    +0.000 A 
ATOM     17  C   UNL     1      -0.167  15.121  18.878  0.00  0.00    +0.000 A 
ATOM     18  C   UNL     1       0.985  15.876  19.163  0.00  0.00    +0.000 A 
ATOM     19  C   UNL     1       2.034  15.371  19.956  0.00  0.00    +0.000 A 
ATOM     20  C   UNL     1       1.802  14.059  20.497  0.00  0.00    +0.000 A 
ATOM     21  C   UNL     1       2.958  13.443  21.216  0.00  0.00    +0.000 C 
ATOM     22  C   UNL     1       4.113  14.212  21.767  0.00  0.00    +0.000 C 
ATOM     23  C   UNL     1       4.366  15.476  21.024  0.00  0.00    +0.000 A 
ATOM     24  C   UNL     1       5.639  16.035  21.243  0.00  0.00    +0.000 A 
ATOM     25  C   UNL     1       5.939  17.267  20.693  0.00  0.00    +0.000 A 
ATOM     26  C   UNL     1       4.995  17.918  19.940  0.00  0.00    +0.000 A 
ATOM     27  C   UNL     1       3.733  17.322  19.690  0.00  0.00    +0.000 A 
ATOM     28  C   UNL     1       3.365  16.071  20.217  0.00  0.00    +0.000 A 
BRANCH  16  29
ATOM     29  O   UNL     1      -1.428  13.041  19.014  0.00  0.00    +0.000 OA
ATOM     30  C   UNL     1      -1.396  12.268  17.824  0.00  0.00    +0.000 C 
ENDBRANCH  16  29
BRANCH  18  31
ATOM     31  O   UNL     1       1.061  17.124  18.612  0.00  0.00    +0.000 OA
ATOM     32  H   UNL     1       0.378  17.697  18.990  0.00  0.00    +0.000 HD
ENDBRANCH  18  31
BRANCH  25  33
ATOM     33  O   UNL     1       7.151  17.859  20.918  0.00  0.00    +0.000 OA
ATOM     34  H   UNL     1       7.504  17.532  21.761  0.00  0.00    +0.000 HD
ENDBRANCH  25  33
ENDBRANCH   6  15
BRANCH   1  36
ATOM     35  C   UNL     1      -2.146  13.107  23.030  0.00  0.00    +0.000 C 
ATOM     36  O   UNL     1      -0.784  12.910  22.663  0.00  0.00    +0.000 OA
ENDBRANCH   1  36
BRANCH   3  37
ATOM     37  O   UNL     1      -0.605   8.134  22.742  0.00  0.00    +0.000 OA
ATOM     38  H   UNL     1      -0.651   8.304  23.696  0.00  0.00    +0.000 HD
ENDBRANCH   3  37
BRANCH  11  39
ATOM     39  O   UNL     1       3.217   4.596  18.823  0.00  0.00    +0.000 OA
ATOM     40  H   UNL     1       3.371   3.971  19.547  0.00  0.00    +0.000 HD
ENDBRANCH  11  39
TORSDOF 7
ENDMDL
MODEL 6
REMARK VINA RESULT:      -6.6      0.378      8.656
REMARK  Name = 
REMARK  9 active torsions:
REMARK  status: ('A' for Active; 'I' for Inactive)
REMARK    1  A    between atoms: C_1  and  O_2
REMARK    2  A    between atoms: O_2  and  C_3
REMARK    3  A    between atoms: C_5  and  O_6
REMARK    4  A    between atoms: C_9  and  C_10
REMARK    5  A    between atoms: C_11  and  O_12
REMARK    6  A    between atoms: O_12  and  C_13
REMARK    7  A    between atoms: C_15  and  O_16
REMARK    8  A    between atoms: C_23  and  O_24
REMARK    9  A    between atoms: C_32  and  O_33
REMARK                            x       y       z     vdW  Elec       q    Type
REMARK                         _______ _______ _______ _____ _____    ______ ____
ROOT
ATOM      1  C   UNL     1       0.527  10.657  20.992  0.00  0.00    +0.000 A 
ATOM      2  C   UNL     1      -0.399  11.524  21.587  0.00  0.00    +0.000 A 
ATOM      3  C   UNL     1      -1.583  11.902  20.941  0.00  0.00    +0.000 A 
ATOM      4  C   UNL     1      -1.905  11.460  19.646  0.00  0.00    +0.000 A 
ATOM      5  C   UNL     1      -0.896  10.654  19.006  0.00  0.00    +0.000 A 
ATOM      6  C   UNL     1       0.335  10.197  19.653  0.00  0.00    +0.000 A 
ATOM      7  C   UNL     1      -1.274  10.121  17.654  0.00  0.00    +0.000 C 
ATOM      8  C   UNL     1      -2.381  10.667  16.808  0.00  0.00    +0.000 C 
ATOM      9  C   UNL     1      -3.476  11.264  17.630  0.00  0.00    +0.000 A 
ATOM     10  C   UNL     1      -4.719  11.393  16.976  0.00  0.00    +0.000 A 
ATOM     11  C   UNL     1      -5.759  12.043  17.605  0.00  0.00    +0.000 A 
ATOM     12  C   UNL     1      -5.573  12.544  18.876  0.00  0.00    +0.000 A 
ATOM     13  C   UNL     1      -4.344  12.359  19.544  0.00  0.00    +0.000 A 
ATOM     14  C   UNL     1      -3.242  11.717  18.948  0.00  0.00    +0.000 A 
ENDROOT
BRANCH   6  15
ATOM     15  C   UNL     1       1.435   9.272  19.008  0.00  0.00    +0.000 A 
ATOM     16  C   UNL     1       2.231   9.776  17.940  0.00  0.00    +0.000 A 
ATOM     17  C   UNL     1       3.287   9.014  17.417  0.00  0.00    +0.000 A 
ATOM     18  C   UNL     1       3.564   7.710  17.865  0.00  0.00    +0.000 A 
ATOM     19  C   UNL     1       2.800   7.086  18.872  0.00  0.00    +0.000 A 
ATOM     20  C   UNL     1       1.768   7.909  19.443  0.00  0.00    +0.000 A 
ATOM     21  C   UNL     1       0.853   7.223  20.404  0.00  0.00    +0.000 C 
ATOM     22  C   UNL     1       1.177   5.950  21.111  0.00  0.00    +0.000 C 
ATOM     23  C   UNL     1       2.130   5.097  20.350  0.00  0.00    +0.000 A 
ATOM     24  C   UNL     1       2.173   3.754  20.767  0.00  0.00    +0.000 A 
ATOM     25  C   UNL     1       3.104   2.901  20.206  0.00  0.00    +0.000 A 
ATOM     26  C   UNL     1       3.964   3.377  19.250  0.00  0.00    +0.000 A 
ATOM     27  C   UNL     1       3.880   4.720  18.805  0.00  0.00    +0.000 A 
ATOM     28  C   UNL     1       2.954   5.639  19.332  0.00  0.00    +0.000 A 
BRANCH  16  29
ATOM     29  O   UNL     1       1.902  11.019  17.446  0.00  0.00    +0.000 OA
ATOM     30  C   UNL     1       2.552  12.175  17.948  0.00  0.00    +0.000 C 
ENDBRANCH  16  29
BRANCH  18  31
ATOM     31  O   UNL     1       4.597   7.052  17.259  0.00  0.00    +0.000 OA
ATOM     32  H   UNL     1       4.458   6.095  17.311  0.00  0.00    +0.000 HD
ENDBRANCH  18  31
BRANCH  25  33
ATOM     33  O   UNL     1       3.201   1.600  20.617  0.00  0.00    +0.000 OA
ATOM     34  H   UNL     1       2.356   1.157  20.443  0.00  0.00    +0.000 HD
ENDBRANCH  25  33
ENDBRANCH   6  15
BRANCH   1  36
ATOM     35  C   UNL     1       1.448   9.434  22.864  0.00  0.00    +0.000 C 
ATOM     36  O   UNL     1       1.633  10.198  21.675  0.00  0.00    +0.000 OA
ENDBRANCH   1  36
BRANCH   3  37
ATOM     37  O   UNL     1      -2.433  12.712  21.651  0.00  0.00    +0.000 OA
ATOM     38  H   UNL     1      -1.997  13.030  22.457  0.00  0.00    +0.000 HD
ENDBRANCH   3  37
BRANCH  11  39
ATOM     39  O   UNL     1      -6.957  12.218  16.986  0.00  0.00    +0.000 OA
ATOM     40  H   UNL     1      -7.445  12.929  17.428  0.00  0.00    +0.000 HD
ENDBRANCH  11  39
TORSDOF 7
ENDMDL
MODEL 7
REMARK VINA RESULT:      -6.6      3.106      9.148
REMARK  Name = 
REMARK  9 active torsions:
REMARK  status: ('A' for Active; 'I' for Inactive)
REMARK    1  A    between atoms: C_1  and  O_2
REMARK    2  A    between atoms: O_2  and  C_3
REMARK    3  A    between atoms: C_5  and  O_6
REMARK    4  A    between atoms: C_9  and  C_10
REMARK    5  A    between atoms: C_11  and  O_12
REMARK    6  A    between atoms: O_12  and  C_13
REMARK    7  A    between atoms: C_15  and  O_16
REMARK    8  A    between atoms: C_23  and  O_24
REMARK    9  A    between atoms: C_32  and  O_33
REMARK                            x       y       z     vdW  Elec       q    Type
REMARK                         _______ _______ _______ _____ _____    ______ ____
ROOT
ATOM      1  C   UNL     1       0.552  14.542  22.062  0.00  0.00    +0.000 A 
ATOM      2  C   UNL     1      -0.013  15.437  22.979  0.00  0.00    +0.000 A 
ATOM      3  C   UNL     1      -1.394  15.493  23.207  0.00  0.00    +0.000 A 
ATOM      4  C   UNL     1      -2.303  14.677  22.512  0.00  0.00    +0.000 A 
ATOM      5  C   UNL     1      -1.718  13.835  21.499  0.00  0.00    +0.000 A 
ATOM      6  C   UNL     1      -0.281  13.709  21.253  0.00  0.00    +0.000 A 
ATOM      7  C   UNL     1      -2.680  12.909  20.810  0.00  0.00    +0.000 C 
ATOM      8  C   UNL     1      -4.167  13.078  20.815  0.00  0.00    +0.000 C 
ATOM      9  C   UNL     1      -4.653  13.762  22.051  0.00  0.00    +0.000 A 
ATOM     10  C   UNL     1      -6.018  13.572  22.348  0.00  0.00    +0.000 A 
ATOM     11  C   UNL     1      -6.592  14.258  23.396  0.00  0.00    +0.000 A 
ATOM     12  C   UNL     1      -5.816  15.110  24.153  0.00  0.00    +0.000 A 
ATOM     13  C   UNL     1      -4.438  15.249  23.883  0.00  0.00    +0.000 A 
ATOM     14  C   UNL     1      -3.799  14.586  22.818  0.00  0.00    +0.000 A 
ENDROOT
BRANCH   6  15
ATOM     15  C   UNL     1       0.401  12.763  20.194  0.00  0.00    +0.000 A 
ATOM     16  C   UNL     1       0.792  13.294  18.932  0.00  0.00    +0.000 A 
ATOM     17  C   UNL     1       1.494  12.503  18.011  0.00  0.00    +0.000 A 
ATOM     18  C   UNL     1       1.782  11.147  18.253  0.00  0.00    +0.000 A 
ATOM     19  C   UNL     1       1.385  10.499  19.440  0.00  0.00    +0.000 A 
ATOM     20  C   UNL     1       0.729  11.345  20.399  0.00  0.00    +0.000 A 
ATOM     21  C   UNL     1       0.169  10.650  21.598  0.00  0.00    +0.000 C 
ATOM     22  C   UNL     1       0.599   9.300  22.064  0.00  0.00    +0.000 C 
ATOM     23  C   UNL     1       1.109   8.446  20.957  0.00  0.00    +0.000 A 
ATOM     24  C   UNL     1       1.165   7.072  21.258  0.00  0.00    +0.000 A 
ATOM     25  C   UNL     1       1.729   6.203  20.344  0.00  0.00    +0.000 A 
ATOM     26  C   UNL     1       2.217   6.693  19.159  0.00  0.00    +0.000 A 
ATOM     27  C   UNL     1       2.113   8.072  18.850  0.00  0.00    +0.000 A 
ATOM     28  C   UNL     1       1.549   9.010  19.733  0.00  0.00    +0.000 A 
BRANCH  16  29
ATOM     29  O   UNL     1       0.433  14.597  18.664  0.00  0.00    +0.000 OA
ATOM     30  C   UNL     1       1.421  15.615  18.649  0.00  0.00    +0.000 C 
ENDBRANCH  16  29
BRANCH  18  31
ATOM     31  O   UNL     1       2.443  10.468  17.270  0.00  0.00    +0.000 OA
ATOM     32  H   UNL     1       2.450  10.988  16.453  0.00  0.00    +0.000 HD
ENDBRANCH  18  31
BRANCH  25  33
ATOM     33  O   UNL     1       1.836   4.868  20.620  0.00  0.00    +0.000 OA
ATOM     34  H   UNL     1       1.443   4.699  21.491  0.00  0.00    +0.000 HD
ENDBRANCH  25  33
ENDBRANCH   6  15
BRANCH   1  36
ATOM     35  C   UNL     1       2.746  15.558  22.085  0.00  0.00    +0.000 C 
ATOM     36  O   UNL     1       1.918  14.410  21.924  0.00  0.00    +0.000 OA
ENDBRANCH   1  36
BRANCH   3  37
ATOM     37  O   UNL     1      -1.817  16.375  24.169  0.00  0.00    +0.000 OA
ATOM     38  H   UNL     1      -1.956  17.253  23.781  0.00  0.00    +0.000 HD
ENDBRANCH   3  37
BRANCH  11  39
ATOM     39  O   UNL     1      -7.916  14.126  23.683  0.00  0.00    +0.000 OA
ATOM     40  H   UNL     1      -8.046  14.220  24.639  0.00  0.00    +0.000 HD
ENDBRANCH  11  39
TORSDOF 7
ENDMDL
MODEL 8
REMARK VINA RESULT:      -6.5      7.314      9.600
REMARK  Name = 
REMARK  9 active torsions:
REMARK  status: ('A' for Active; 'I' for Inactive)
REMARK    1  A    between atoms: C_1  and  O_2
REMARK    2  A    between atoms: O_2  and  C_3
REMARK    3  A    between atoms: C_5  and  O_6
REMARK    4  A    between atoms: C_9  and  C_10
REMARK    5  A    between atoms: C_11  and  O_12
REMARK    6  A    between atoms: O_12  and  C_13
REMARK    7  A    between atoms: C_15  and  O_16
REMARK    8  A    between atoms: C_23  and  O_24
REMARK    9  A    between atoms: C_32  and  O_33
REMARK                            x       y       z     vdW  Elec       q    Type
REMARK                         _______ _______ _______ _____ _____    ______ ____
ROOT
ATOM      1  C   UNL     1       7.422  12.736  23.009  0.00  0.00    +0.000 A 
ATOM      2  C   UNL     1       8.144  11.608  22.596  0.00  0.00    +0.000 A 
ATOM      3  C   UNL     1       8.873  11.591  21.401  0.00  0.00    +0.000 A 
ATOM      4  C   UNL     1       8.905  12.690  20.525  0.00  0.00    +0.000 A 
ATOM      5  C   UNL     1       8.076  13.804  20.911  0.00  0.00    +0.000 A 
ATOM      6  C   UNL     1       7.331  13.888  22.169  0.00  0.00    +0.000 A 
ATOM      7  C   UNL     1       8.170  15.006  20.015  0.00  0.00    +0.000 C 
ATOM      8  C   UNL     1       8.713  14.980  18.620  0.00  0.00    +0.000 C 
ATOM      9  C   UNL     1       9.746  13.916  18.437  0.00  0.00    +0.000 A 
ATOM     10  C   UNL     1      10.607  14.096  17.336  0.00  0.00    +0.000 A 
ATOM     11  C   UNL     1      11.513  13.110  17.007  0.00  0.00    +0.000 A 
ATOM     12  C   UNL     1      11.575  11.966  17.773  0.00  0.00    +0.000 A 
ATOM     13  C   UNL     1      10.748  11.822  18.908  0.00  0.00    +0.000 A 
ATOM     14  C   UNL     1       9.795  12.786  19.284  0.00  0.00    +0.000 A 
ENDROOT
BRANCH   6  15
ATOM     15  C   UNL     1       6.458  15.107  22.651  0.00  0.00    +0.000 A 
ATOM     16  C   UNL     1       7.076  16.161  23.383  0.00  0.00    +0.000 A 
ATOM     17  C   UNL     1       6.349  17.308  23.734  0.00  0.00    +0.000 A 
ATOM     18  C   UNL     1       4.978  17.442  23.449  0.00  0.00    +0.000 A 
ATOM     19  C   UNL     1       4.249  16.434  22.787  0.00  0.00    +0.000 A 
ATOM     20  C   UNL     1       5.028  15.298  22.374  0.00  0.00    +0.000 A 
ATOM     21  C   UNL     1       4.253  14.155  21.805  0.00  0.00    +0.000 C 
ATOM     22  C   UNL     1       2.870  14.267  21.255  0.00  0.00    +0.000 C 
ATOM     23  C   UNL     1       2.095  15.376  21.875  0.00  0.00    +0.000 A 
ATOM     24  C   UNL     1       0.703  15.291  21.685  0.00  0.00    +0.000 A 
ATOM     25  C   UNL     1      -0.102  16.327  22.120  0.00  0.00    +0.000 A 
ATOM     26  C   UNL     1       0.468  17.413  22.733  0.00  0.00    +0.000 A 
ATOM     27  C   UNL     1       1.866  17.464  22.959  0.00  0.00    +0.000 A 
ATOM     28  C   UNL     1       2.742  16.444  22.545  0.00  0.00    +0.000 A 
BRANCH  16  29
ATOM     29  O   UNL     1       8.396  15.988  23.735  0.00  0.00    +0.000 OA
ATOM     30  C   UNL     1       9.346  17.001  23.445  0.00  0.00    +0.000 C 
ENDBRANCH  16  29
BRANCH  18  31
ATOM     31  O   UNL     1       4.367  18.590  23.868  0.00  0.00    +0.000 OA
ATOM     32  H   UNL     1       3.664  18.838  23.249  0.00  0.00    +0.000 HD
ENDBRANCH  18  31
BRANCH  25  33
ATOM     33  O   UNL     1      -1.455  16.297  21.915  0.00  0.00    +0.000 OA
ATOM     34  H   UNL     1      -1.834  15.589  22.460  0.00  0.00    +0.000 HD
ENDBRANCH  25  33
ENDBRANCH   6  15
BRANCH   1  36
ATOM     35  C   UNL     1       6.419  11.575  24.878  0.00  0.00    +0.000 C 
ATOM     36  O   UNL     1       6.801  12.789  24.239  0.00  0.00    +0.000 OA
ENDBRANCH   1  36
BRANCH   3  37
ATOM     37  O   UNL     1       9.580  10.445  21.135  0.00  0.00    +0.000 OA
ATOM     38  H   UNL     1       9.190   9.693  21.607  0.00  0.00    +0.000 HD
ENDBRANCH   3  37
BRANCH  11  39
ATOM     39  O   UNL     1      12.330  13.237  15.927  0.00  0.00    +0.000 OA
ATOM     40  H   UNL     1      13.218  12.925  16.160  0.00  0.00    +0.000 HD
ENDBRANCH  11  39
TORSDOF 7
ENDMDL
MODEL 9
REMARK VINA RESULT:      -6.5      6.384      8.831
REMARK  Name = 
REMARK  9 active torsions:
REMARK  status: ('A' for Active; 'I' for Inactive)
REMARK    1  A    between atoms: C_1  and  O_2
REMARK    2  A    between atoms: O_2  and  C_3
REMARK    3  A    between atoms: C_5  and  O_6
REMARK    4  A    between atoms: C_9  and  C_10
REMARK    5  A    between atoms: C_11  and  O_12
REMARK    6  A    between atoms: O_12  and  C_13
REMARK    7  A    between atoms: C_15  and  O_16
REMARK    8  A    between atoms: C_23  and  O_24
REMARK    9  A    between atoms: C_32  and  O_33
REMARK                            x       y       z     vdW  Elec       q    Type
REMARK                         _______ _______ _______ _____ _____    ______ ____
ROOT
ATOM      1  C   UNL     1       6.540  14.092  23.070  0.00  0.00    +0.000 A 
ATOM      2  C   UNL     1       7.524  13.128  23.325  0.00  0.00    +0.000 A 
ATOM      3  C   UNL     1       8.426  12.709  22.339  0.00  0.00    +0.000 A 
ATOM      4  C   UNL     1       8.384  13.205  21.024  0.00  0.00    +0.000 A 
ATOM      5  C   UNL     1       7.302  14.116  20.749  0.00  0.00    +0.000 A 
ATOM      6  C   UNL     1       6.362  14.617  21.753  0.00  0.00    +0.000 A 
ATOM      7  C   UNL     1       7.303  14.703  19.366  0.00  0.00    +0.000 C 
ATOM      8  C   UNL     1       8.059  14.133  18.206  0.00  0.00    +0.000 C 
ATOM      9  C   UNL     1       9.295  13.413  18.637  0.00  0.00    +0.000 A 
ATOM     10  C   UNL     1      10.271  13.238  17.635  0.00  0.00    +0.000 A 
ATOM     11  C   UNL     1      11.392  12.481  17.897  0.00  0.00    +0.000 A 
ATOM     12  C   UNL     1      11.552  11.919  19.145  0.00  0.00    +0.000 A 
ATOM     13  C   UNL     1      10.597  12.148  20.159  0.00  0.00    +0.000 A 
ATOM     14  C   UNL     1       9.426  12.899  19.947  0.00  0.00    +0.000 A 
ENDROOT
BRANCH   6  15
ATOM     15  C   UNL     1       5.202  15.653  21.504  0.00  0.00    +0.000 A 
ATOM     16  C   UNL     1       5.479  17.047  21.596  0.00  0.00    +0.000 A 
ATOM     17  C   UNL     1       4.494  17.993  21.277  0.00  0.00    +0.000 A 
ATOM     18  C   UNL     1       3.184  17.621  20.925  0.00  0.00    +0.000 A 
ATOM     19  C   UNL     1       2.779  16.273  20.865  0.00  0.00    +0.000 A 
ATOM     20  C   UNL     1       3.822  15.318  21.128  0.00  0.00    +0.000 A 
ATOM     21  C   UNL     1       3.385  13.892  21.216  0.00  0.00    +0.000 C 
ATOM     22  C   UNL     1       2.108  13.366  20.650  0.00  0.00    +0.000 C 
ATOM     23  C   UNL     1       1.043  14.403  20.578  0.00  0.00    +0.000 A 
ATOM     24  C   UNL     1      -0.259  13.892  20.420  0.00  0.00    +0.000 A 
ATOM     25  C   UNL     1      -1.310  14.768  20.228  0.00  0.00    +0.000 A 
ATOM     26  C   UNL     1      -1.067  16.118  20.201  0.00  0.00    +0.000 A 
ATOM     27  C   UNL     1       0.242  16.621  20.407  0.00  0.00    +0.000 A 
ATOM     28  C   UNL     1       1.356  15.786  20.610  0.00  0.00    +0.000 A 
BRANCH  16  29
ATOM     29  O   UNL     1       6.738  17.407  22.024  0.00  0.00    +0.000 OA
ATOM     30  C   UNL     1       6.891  18.176  23.207  0.00  0.00    +0.000 C 
ENDBRANCH  16  29
BRANCH  18  31
ATOM     31  O   UNL     1       2.301  18.631  20.667  0.00  0.00    +0.000 OA
ATOM     32  H   UNL     1       1.548  18.293  20.159  0.00  0.00    +0.000 HD
ENDBRANCH  18  31
BRANCH  25  33
ATOM     33  O   UNL     1      -2.582  14.305  20.031  0.00  0.00    +0.000 OA
ATOM     34  H   UNL     1      -2.533  13.452  19.572  0.00  0.00    +0.000 HD
ENDBRANCH  25  33
ENDBRANCH   6  15
BRANCH   1  36
ATOM     35  C   UNL     1       5.752  13.962  25.353  0.00  0.00    +0.000 C 
ATOM     36  O   UNL     1       5.729  14.584  24.071  0.00  0.00    +0.000 OA
ENDBRANCH   1  36
BRANCH   3  37
ATOM     37  O   UNL     1       9.377  11.801  22.730  0.00  0.00    +0.000 OA
ATOM     38  H   UNL     1       8.954  11.021  23.123  0.00  0.00    +0.000 HD
ENDBRANCH   3  37
BRANCH  11  39
ATOM     39  O   UNL     1      12.333  12.261  16.939  0.00  0.00    +0.000 OA
ATOM     40  H   UNL     1      12.149  11.418  16.498  0.00  0.00    +0.000 HD
ENDBRANCH  11  39
TORSDOF 7
ENDMDL
