MODEL 1
REMARK VINA RESULT:      -8.1      0.000      0.000
REMARK  Name = 
REMARK  4 active torsions:
REMARK  status: ('A' for Active; 'I' for Inactive)
REMARK    1  A    between atoms: C_4  and  O_5
REMARK    2  A    between atoms: C_7  and  C_8
REMARK    3  A    between atoms: C_8  and  C_9
REMARK    4  A    between atoms: C_9  and  C_10
REMARK                            x       y       z     vdW  Elec       q    Type
REMARK                         _______ _______ _______ _____ _____    ______ ____
ROOT
ATOM      1  C   UNL     1       3.930   4.236  16.694  0.00  0.00    +0.000 C 
ENDROOT
BRANCH   1   2
ATOM      2  C   UNL     1       3.323   5.089  17.791  0.00  0.00    +0.000 A 
ATOM      3  C   UNL     1       3.213   6.466  17.533  0.00  0.00    +0.000 A 
ATOM      4  C   UNL     1       2.647   7.318  18.470  0.00  0.00    +0.000 A 
ATOM      5  C   UNL     1       2.179   6.810  19.680  0.00  0.00    +0.000 A 
ATOM      6 BR   UNL     1       1.402   8.080  20.872  0.00  0.00    +0.000 Br
ATOM      7  C   UNL     1       2.284   5.429  19.993  0.00  0.00    +0.000 A 
ATOM      8  C   UNL     1       1.820   4.870  21.210  0.00  0.00    +0.000 A 
ATOM      9  C   UNL     1       1.945   3.511  21.498  0.00  0.00    +0.000 A 
ATOM     10  C   UNL     1       2.541   2.670  20.576  0.00  0.00    +0.000 A 
ATOM     11  C   UNL     1       3.002   3.187  19.366  0.00  0.00    +0.000 A 
ATOM     12  C   UNL     1       2.879   4.558  19.036  0.00  0.00    +0.000 A 
ENDBRANCH   1   2
BRANCH   1  13
ATOM     13  C   UNL     1       4.902   5.032  15.817  0.00  0.00    +0.000 C 
BRANCH  13  19
ATOM     14  O   UNL     1       7.943   8.187  17.282  0.00  0.00    +0.000 OA
ATOM     15  C   UNL     1       7.504   7.050  17.430  0.00  0.00    +0.000 C 
ATOM     16  C   UNL     1       7.805   6.259  18.670  0.00  0.00    +0.000 C 
ATOM     17  C   UNL     1       7.624   4.764  18.518  0.00  0.00    +0.000 C 
ATOM     18  C   UNL     1       6.319   4.450  17.815  0.00  0.00    +0.000 C 
ATOM     19  C   UNL     1       6.295   5.127  16.456  0.00  0.00    +0.000 C 
ATOM     20  O   UNL     1       6.649   6.524  16.530  0.00  0.00    +0.000 OA
BRANCH  17  21
ATOM     21  O   UNL     1       8.721   4.163  17.834  0.00  0.00    +0.000 OA
ATOM     22  H   UNL     1       8.447   3.324  17.425  0.00  0.00    +0.000 HD
ENDBRANCH  17  21
ENDBRANCH  13  19
ENDBRANCH   1  13
TORSDOF 4
ENDMDL
MODEL 2
REMARK VINA RESULT:      -8.0      3.925      5.906
REMARK  Name = 
REMARK  4 active torsions:
REMARK  status: ('A' for Active; 'I' for Inactive)
REMARK    1  A    between atoms: C_4  and  O_5
REMARK    2  A    between atoms: C_7  and  C_8
REMARK    3  A    between atoms: C_8  and  C_9
REMARK    4  A    between atoms: C_9  and  C_10
REMARK                            x       y       z     vdW  Elec       q    Type
REMARK                         _______ _______ _______ _____ _____    ______ ____
ROOT
ATOM      1  C   UNL     1       2.409   7.108  19.831  0.00  0.00    +0.000 C 
ENDROOT
BRANCH   1   2
ATOM      2  C   UNL     1       1.585   8.356  19.579  0.00  0.00    +0.000 A 
ATOM      3  C   UNL     1       1.514   8.810  18.251  0.00  0.00    +0.000 A 
ATOM      4  C   UNL     1       0.762   9.928  17.924  0.00  0.00    +0.000 A 
ATOM      5  C   UNL     1       0.064  10.612  18.919  0.00  0.00    +0.000 A 
ATOM      6 BR   UNL     1      -0.951  12.119  18.338  0.00  0.00    +0.000 Br
ATOM      7  C   UNL     1       0.119  10.202  20.277  0.00  0.00    +0.000 A 
ATOM      8  C   UNL     1      -0.574  10.868  21.319  0.00  0.00    +0.000 A 
ATOM      9  C   UNL     1      -0.495  10.451  22.647  0.00  0.00    +0.000 A 
ATOM     10  C   UNL     1       0.284   9.356  22.974  0.00  0.00    +0.000 A 
ATOM     11  C   UNL     1       0.973   8.674  21.972  0.00  0.00    +0.000 A 
ATOM     12  C   UNL     1       0.904   9.062  20.612  0.00  0.00    +0.000 A 
ENDBRANCH   1   2
BRANCH   1  13
ATOM     13  C   UNL     1       2.602   6.279  18.556  0.00  0.00    +0.000 C 
BRANCH  13  19
ATOM     14  O   UNL     1       2.203   3.344  22.101  0.00  0.00    +0.000 OA
ATOM     15  C   UNL     1       1.990   3.533  20.907  0.00  0.00    +0.000 C 
ATOM     16  C   UNL     1       1.043   2.655  20.141  0.00  0.00    +0.000 C 
ATOM     17  C   UNL     1       1.238   2.687  18.640  0.00  0.00    +0.000 C 
ATOM     18  C   UNL     1       1.388   4.112  18.147  0.00  0.00    +0.000 C 
ATOM     19  C   UNL     1       2.563   4.773  18.847  0.00  0.00    +0.000 C 
ATOM     20  O   UNL     1       2.518   4.604  20.279  0.00  0.00    +0.000 OA
BRANCH  17  21
ATOM     21  O   UNL     1       2.349   1.893  18.232  0.00  0.00    +0.000 OA
ATOM     22  H   UNL     1       2.904   1.667  19.000  0.00  0.00    +0.000 HD
ENDBRANCH  17  21
ENDBRANCH  13  19
ENDBRANCH   1  13
TORSDOF 4
ENDMDL
MODEL 3
REMARK VINA RESULT:      -7.8      5.564      8.373
REMARK  Name = 
REMARK  4 active torsions:
REMARK  status: ('A' for Active; 'I' for Inactive)
REMARK    1  A    between atoms: C_4  and  O_5
REMARK    2  A    between atoms: C_7  and  C_8
REMARK    3  A    between atoms: C_8  and  C_9
REMARK    4  A    between atoms: C_9  and  C_10
REMARK                            x       y       z     vdW  Elec       q    Type
REMARK                         _______ _______ _______ _____ _____    ______ ____
ROOT
ATOM      1  C   UNL     1       8.990   9.504  19.123  0.00  0.00    +0.000 C 
ENDROOT
BRANCH   1   2
ATOM      2  C   UNL     1       9.644  10.866  18.988  0.00  0.00    +0.000 A 
ATOM      3  C   UNL     1      10.272  11.147  17.764  0.00  0.00    +0.000 A 
ATOM      4  C   UNL     1      10.873  12.377  17.542  0.00  0.00    +0.000 A 
ATOM      5  C   UNL     1      10.856  13.350  18.541  0.00  0.00    +0.000 A 
ATOM      6 BR   UNL     1      11.697  15.006  18.105  0.00  0.00    +0.000 Br
ATOM      7  C   UNL     1      10.249  13.106  19.800  0.00  0.00    +0.000 A 
ATOM      8  C   UNL     1      10.208  14.066  20.842  0.00  0.00    +0.000 A 
ATOM      9  C   UNL     1       9.614  13.798  22.076  0.00  0.00    +0.000 A 
ATOM     10  C   UNL     1       9.046  12.558  22.305  0.00  0.00    +0.000 A 
ATOM     11  C   UNL     1       9.063  11.593  21.298  0.00  0.00    +0.000 A 
ATOM     12  C   UNL     1       9.645  11.837  20.030  0.00  0.00    +0.000 A 
ENDBRANCH   1   2
BRANCH   1  13
ATOM     13  C   UNL     1       8.132   9.155  17.902  0.00  0.00    +0.000 C 
BRANCH  13  19
ATOM     14  O   UNL     1       8.056   5.234  20.343  0.00  0.00    +0.000 OA
ATOM     15  C   UNL     1       7.677   5.808  19.326  0.00  0.00    +0.000 C 
ATOM     16  C   UNL     1       6.558   5.250  18.494  0.00  0.00    +0.000 C 
ATOM     17  C   UNL     1       6.522   5.765  17.071  0.00  0.00    +0.000 C 
ATOM     18  C   UNL     1       6.704   7.269  17.039  0.00  0.00    +0.000 C 
ATOM     19  C   UNL     1       8.021   7.637  17.701  0.00  0.00    +0.000 C 
ATOM     20  O   UNL     1       8.183   7.012  18.991  0.00  0.00    +0.000 OA
BRANCH  17  21
ATOM     21  O   UNL     1       7.492   5.122  16.248  0.00  0.00    +0.000 OA
ATOM     22  H   UNL     1       8.355   5.101  16.697  0.00  0.00    +0.000 HD
ENDBRANCH  17  21
ENDBRANCH  13  19
ENDBRANCH   1  13
TORSDOF 4
ENDMDL
MODEL 4
REMARK VINA RESULT:      -7.8      4.419      6.516
REMARK  Name = 
REMARK  4 active torsions:
REMARK  status: ('A' for Active; 'I' for Inactive)
REMARK    1  A    between atoms: C_4  and  O_5
REMARK    2  A    between atoms: C_7  and  C_8
REMARK    3  A    between atoms: C_8  and  C_9
REMARK    4  A    between atoms: C_9  and  C_10
REMARK                            x       y       z     vdW  Elec       q    Type
REMARK                         _______ _______ _______ _____ _____    ______ ____
ROOT
ATOM      1  C   UNL     1       2.253   7.540  18.850  0.00  0.00    +0.000 C 
ENDROOT
BRANCH   1   2
ATOM      2  C   UNL     1       3.099   6.570  18.047  0.00  0.00    +0.000 A 
ATOM      3  C   UNL     1       4.182   7.113  17.337  0.00  0.00    +0.000 A 
ATOM      4  C   UNL     1       5.024   6.296  16.597  0.00  0.00    +0.000 A 
ATOM      5  C   UNL     1       4.800   4.921  16.555  0.00  0.00    +0.000 A 
ATOM      6 BR   UNL     1       6.041   3.905  15.522  0.00  0.00    +0.000 Br
ATOM      7  C   UNL     1       3.708   4.328  17.241  0.00  0.00    +0.000 A 
ATOM      8  C   UNL     1       3.443   2.936  17.226  0.00  0.00    +0.000 A 
ATOM      9  C   UNL     1       2.356   2.380  17.900  0.00  0.00    +0.000 A 
ATOM     10  C   UNL     1       1.498   3.202  18.608  0.00  0.00    +0.000 A 
ATOM     11  C   UNL     1       1.735   4.575  18.650  0.00  0.00    +0.000 A 
ATOM     12  C   UNL     1       2.836   5.171  17.988  0.00  0.00    +0.000 A 
ENDBRANCH   1   2
BRANCH   1  13
ATOM     13  C   UNL     1       1.764   8.717  17.998  0.00  0.00    +0.000 C 
BRANCH  13  19
ATOM     14  O   UNL     1      -1.491  11.992  18.160  0.00  0.00    +0.000 OA
ATOM     15  C   UNL     1      -0.739  11.271  18.810  0.00  0.00    +0.000 C 
ATOM     16  C   UNL     1      -0.939  11.071  20.284  0.00  0.00    +0.000 C 
ATOM     17  C   UNL     1       0.288  10.578  21.021  0.00  0.00    +0.000 C 
ATOM     18  C   UNL     1       0.945   9.439  20.267  0.00  0.00    +0.000 C 
ATOM     19  C   UNL     1       1.317   9.900  18.868  0.00  0.00    +0.000 C 
ATOM     20  O   UNL     1       0.221  10.552  18.193  0.00  0.00    +0.000 OA
BRANCH  17  21
ATOM     21  O   UNL     1       1.221  11.628  21.260  0.00  0.00    +0.000 OA
ATOM     22  H   UNL     1       2.128  11.325  21.075  0.00  0.00    +0.000 HD
ENDBRANCH  17  21
ENDBRANCH  13  19
ENDBRANCH   1  13
TORSDOF 4
ENDMDL
MODEL 5
REMARK VINA RESULT:      -7.7      3.745      5.791
REMARK  Name = 
REMARK  4 active torsions:
REMARK  status: ('A' for Active; 'I' for Inactive)
REMARK    1  A    between atoms: C_4  and  O_5
REMARK    2  A    between atoms: C_7  and  C_8
REMARK    3  A    between atoms: C_8  and  C_9
REMARK    4  A    between atoms: C_9  and  C_10
REMARK                            x       y       z     vdW  Elec       q    Type
REMARK                         _______ _______ _______ _____ _____    ______ ____
ROOT
ATOM      1  C   UNL     1       2.584   7.239  19.627  0.00  0.00    +0.000 C 
ENDROOT
BRANCH   1   2
ATOM      2  C   UNL     1       1.658   8.422  19.418  0.00  0.00    +0.000 A 
ATOM      3  C   UNL     1       1.497   8.874  18.098  0.00  0.00    +0.000 A 
ATOM      4  C   UNL     1       0.649   9.933  17.810  0.00  0.00    +0.000 A 
ATOM      5  C   UNL     1      -0.056  10.559  18.838  0.00  0.00    +0.000 A 
ATOM      6 BR   UNL     1      -1.205  11.987  18.310  0.00  0.00    +0.000 Br
ATOM      7  C   UNL     1       0.087  10.149  20.189  0.00  0.00    +0.000 A 
ATOM      8  C   UNL     1      -0.610  10.756  21.263  0.00  0.00    +0.000 A 
ATOM      9  C   UNL     1      -0.444  10.342  22.585  0.00  0.00    +0.000 A 
ATOM     10  C   UNL     1       0.429   9.308  22.872  0.00  0.00    +0.000 A 
ATOM     11  C   UNL     1       1.125   8.684  21.837  0.00  0.00    +0.000 A 
ATOM     12  C   UNL     1       0.970   9.071  20.483  0.00  0.00    +0.000 A 
ENDBRANCH   1   2
BRANCH   1  13
ATOM     13  C   UNL     1       2.442   6.194  18.515  0.00  0.00    +0.000 C 
BRANCH  13  19
ATOM     14  O   UNL     1       4.209   1.997  19.292  0.00  0.00    +0.000 OA
ATOM     15  C   UNL     1       3.393   2.841  19.651  0.00  0.00    +0.000 C 
ATOM     16  C   UNL     1       2.731   2.755  20.996  0.00  0.00    +0.000 C 
ATOM     17  C   UNL     1       1.443   3.542  21.111  0.00  0.00    +0.000 C 
ATOM     18  C   UNL     1       1.608   4.930  20.526  0.00  0.00    +0.000 C 
ATOM     19  C   UNL     1       2.035   4.823  19.072  0.00  0.00    +0.000 C 
ATOM     20  O   UNL     1       3.152   3.927  18.890  0.00  0.00    +0.000 OA
BRANCH  17  21
ATOM     21  O   UNL     1       0.350   2.864  20.498  0.00  0.00    +0.000 OA
ATOM     22  H   UNL     1       0.347   1.925  20.755  0.00  0.00    +0.000 HD
ENDBRANCH  17  21
ENDBRANCH  13  19
ENDBRANCH   1  13
TORSDOF 4
ENDMDL
MODEL 6
REMARK VINA RESULT:      -7.7      5.474      8.229
REMARK  Name = 
REMARK  4 active torsions:
REMARK  status: ('A' for Active; 'I' for Inactive)
REMARK    1  A    between atoms: C_4  and  O_5
REMARK    2  A    between atoms: C_7  and  C_8
REMARK    3  A    between atoms: C_8  and  C_9
REMARK    4  A    between atoms: C_9  and  C_10
REMARK                            x       y       z     vdW  Elec       q    Type
REMARK                         _______ _______ _______ _____ _____    ______ ____
ROOT
ATOM      1  C   UNL     1       8.947   9.427  19.057  0.00  0.00    +0.000 C 
ENDROOT
BRANCH   1   2
ATOM      2  C   UNL     1       9.569  10.808  18.970  0.00  0.00    +0.000 A 
ATOM      3  C   UNL     1      10.190  11.146  17.757  0.00  0.00    +0.000 A 
ATOM      4  C   UNL     1      10.761  12.398  17.578  0.00  0.00    +0.000 A 
ATOM      5  C   UNL     1      10.720  13.335  18.610  0.00  0.00    +0.000 A 
ATOM      6 BR   UNL     1      11.521  15.024  18.233  0.00  0.00    +0.000 Br
ATOM      7  C   UNL     1      10.119  13.033  19.860  0.00  0.00    +0.000 A 
ATOM      8  C   UNL     1      10.055  13.955  20.935  0.00  0.00    +0.000 A 
ATOM      9  C   UNL     1       9.468  13.630  22.158  0.00  0.00    +0.000 A 
ATOM     10  C   UNL     1       8.930  12.369  22.343  0.00  0.00    +0.000 A 
ATOM     11  C   UNL     1       8.970  11.441  21.303  0.00  0.00    +0.000 A 
ATOM     12  C   UNL     1       9.546  11.742  20.045  0.00  0.00    +0.000 A 
ENDBRANCH   1   2
BRANCH   1  13
ATOM     13  C   UNL     1       8.242   9.031  17.755  0.00  0.00    +0.000 C 
BRANCH  13  19
ATOM     14  O   UNL     1       6.593   5.528  15.235  0.00  0.00    +0.000 OA
ATOM     15  C   UNL     1       7.018   5.882  16.331  0.00  0.00    +0.000 C 
ATOM     16  C   UNL     1       7.442   4.874  17.360  0.00  0.00    +0.000 C 
ATOM     17  C   UNL     1       7.478   5.405  18.777  0.00  0.00    +0.000 C 
ATOM     18  C   UNL     1       8.165   6.754  18.828  0.00  0.00    +0.000 C 
ATOM     19  C   UNL     1       7.442   7.731  17.916  0.00  0.00    +0.000 C 
ATOM     20  O   UNL     1       7.217   7.189  16.597  0.00  0.00    +0.000 OA
BRANCH  17  21
ATOM     21  O   UNL     1       6.174   5.482  19.348  0.00  0.00    +0.000 OA
ATOM     22  H   UNL     1       5.583   6.000  18.773  0.00  0.00    +0.000 HD
ENDBRANCH  17  21
ENDBRANCH  13  19
ENDBRANCH   1  13
TORSDOF 4
ENDMDL
MODEL 7
REMARK VINA RESULT:      -7.7      4.663      6.709
REMARK  Name = 
REMARK  4 active torsions:
REMARK  status: ('A' for Active; 'I' for Inactive)
REMARK    1  A    between atoms: C_4  and  O_5
REMARK    2  A    between atoms: C_7  and  C_8
REMARK    3  A    between atoms: C_8  and  C_9
REMARK    4  A    between atoms: C_9  and  C_10
REMARK                            x       y       z     vdW  Elec       q    Type
REMARK                         _______ _______ _______ _____ _____    ______ ____
ROOT
ATOM      1  C   UNL     1       1.736   6.870  20.460  0.00  0.00    +0.000 C 
ENDROOT
BRANCH   1   2
ATOM      2  C   UNL     1       2.482   6.160  19.345  0.00  0.00    +0.000 A 
ATOM      3  C   UNL     1       3.456   6.905  18.662  0.00  0.00    +0.000 A 
ATOM      4  C   UNL     1       4.205   6.329  17.647  0.00  0.00    +0.000 A 
ATOM      5  C   UNL     1       3.994   4.996  17.297  0.00  0.00    +0.000 A 
ATOM      6 BR   UNL     1       5.102   4.315  15.901  0.00  0.00    +0.000 Br
ATOM      7  C   UNL     1       3.009   4.208  17.947  0.00  0.00    +0.000 A 
ATOM      8  C   UNL     1       2.761   2.850  17.624  0.00  0.00    +0.000 A 
ATOM      9  C   UNL     1       1.779   2.100  18.271  0.00  0.00    +0.000 A 
ATOM     10  C   UNL     1       1.012   2.688  19.259  0.00  0.00    +0.000 A 
ATOM     11  C   UNL     1       1.234   4.020  19.606  0.00  0.00    +0.000 A 
ATOM     12  C   UNL     1       2.231   4.806  18.980  0.00  0.00    +0.000 A 
ENDBRANCH   1   2
BRANCH   1  13
ATOM     13  C   UNL     1       1.423   8.327  20.104  0.00  0.00    +0.000 C 
BRANCH  13  19
ATOM     14  O   UNL     1       0.641  12.700  21.374  0.00  0.00    +0.000 OA
ATOM     15  C   UNL     1       0.392  11.517  21.589  0.00  0.00    +0.000 C 
ATOM     16  C   UNL     1      -0.773  11.114  22.445  0.00  0.00    +0.000 C 
ATOM     17  C   UNL     1      -0.681   9.712  23.008  0.00  0.00    +0.000 C 
ATOM     18  C   UNL     1      -0.259   8.729  21.934  0.00  0.00    +0.000 C 
ATOM     19  C   UNL     1       1.077   9.154  21.350  0.00  0.00    +0.000 C 
ATOM     20  O   UNL     1       1.095  10.547  20.970  0.00  0.00    +0.000 OA
BRANCH  17  21
ATOM     21  O   UNL     1       0.200   9.645  24.126  0.00  0.00    +0.000 OA
ATOM     22  H   UNL     1      -0.296   9.765  24.955  0.00  0.00    +0.000 HD
ENDBRANCH  17  21
ENDBRANCH  13  19
ENDBRANCH   1  13
TORSDOF 4
ENDMDL
MODEL 8
REMARK VINA RESULT:      -7.7      1.702      3.162
REMARK  Name = 
REMARK  4 active torsions:
REMARK  status: ('A' for Active; 'I' for Inactive)
REMARK    1  A    between atoms: C_4  and  O_5
REMARK    2  A    between atoms: C_7  and  C_8
REMARK    3  A    between atoms: C_8  and  C_9
REMARK    4  A    between atoms: C_9  and  C_10
REMARK                            x       y       z     vdW  Elec       q    Type
REMARK                         _______ _______ _______ _____ _____    ______ ____
ROOT
ATOM      1  C   UNL     1       4.246   3.911  16.328  0.00  0.00    +0.000 C 
ENDROOT
BRANCH   1   2
ATOM      2  C   UNL     1       3.530   3.708  17.649  0.00  0.00    +0.000 A 
ATOM      3  C   UNL     1       3.406   2.386  18.105  0.00  0.00    +0.000 A 
ATOM      4  C   UNL     1       2.789   2.109  19.316  0.00  0.00    +0.000 A 
ATOM      5  C   UNL     1       2.287   3.150  20.095  0.00  0.00    +0.000 A 
ATOM      6 BR   UNL     1       1.482   2.640  21.748  0.00  0.00    +0.000 Br
ATOM      7  C   UNL     1       2.373   4.501  19.669  0.00  0.00    +0.000 A 
ATOM      8  C   UNL     1       1.877   5.589  20.429  0.00  0.00    +0.000 A 
ATOM      9  C   UNL     1       1.964   6.908  19.982  0.00  0.00    +0.000 A 
ATOM     10  C   UNL     1       2.549   7.177  18.758  0.00  0.00    +0.000 A 
ATOM     11  C   UNL     1       3.054   6.129  17.989  0.00  0.00    +0.000 A 
ATOM     12  C   UNL     1       2.994   4.781  18.418  0.00  0.00    +0.000 A 
ENDBRANCH   1   2
BRANCH   1  13
ATOM     13  C   UNL     1       5.761   4.053  16.510  0.00  0.00    +0.000 C 
BRANCH  13  19
ATOM     14  O   UNL     1       7.679   5.324  20.517  0.00  0.00    +0.000 OA
ATOM     15  C   UNL     1       7.484   5.621  19.342  0.00  0.00    +0.000 C 
ATOM     16  C   UNL     1       8.275   6.710  18.677  0.00  0.00    +0.000 C 
ATOM     17  C   UNL     1       7.627   7.284  17.434  0.00  0.00    +0.000 C 
ATOM     18  C   UNL     1       7.113   6.176  16.537  0.00  0.00    +0.000 C 
ATOM     19  C   UNL     1       6.121   5.318  17.302  0.00  0.00    +0.000 C 
ATOM     20  O   UNL     1       6.629   4.901  18.587  0.00  0.00    +0.000 OA
BRANCH  17  21
ATOM     21  O   UNL     1       6.582   8.199  17.754  0.00  0.00    +0.000 OA
ATOM     22  H   UNL     1       5.740   7.899  17.369  0.00  0.00    +0.000 HD
ENDBRANCH  17  21
ENDBRANCH  13  19
ENDBRANCH   1  13
TORSDOF 4
ENDMDL
MODEL 9
REMARK VINA RESULT:      -7.7      3.863      5.653
REMARK  Name = 
REMARK  4 active torsions:
REMARK  status: ('A' for Active; 'I' for Inactive)
REMARK    1  A    between atoms: C_4  and  O_5
REMARK    2  A    between atoms: C_7  and  C_8
REMARK    3  A    between atoms: C_8  and  C_9
REMARK    4  A    between atoms: C_9  and  C_10
REMARK                            x       y       z     vdW  Elec       q    Type
REMARK                         _______ _______ _______ _____ _____    ______ ____
ROOT
ATOM      1  C   UNL     1       2.352   7.222  19.703  0.00  0.00    +0.000 C 
ENDROOT
BRANCH   1   2
ATOM      2  C   UNL     1       1.533   8.484  19.508  0.00  0.00    +0.000 A 
ATOM      3  C   UNL     1       1.451   8.989  18.200  0.00  0.00    +0.000 A 
ATOM      4  C   UNL     1       0.702  10.123  17.925  0.00  0.00    +0.000 A 
ATOM      5  C   UNL     1       0.020  10.773  18.953  0.00  0.00    +0.000 A 
ATOM      6 BR   UNL     1      -0.992  12.307  18.442  0.00  0.00    +0.000 Br
ATOM      7  C   UNL     1       0.086  10.310  20.293  0.00  0.00    +0.000 A 
ATOM      8  C   UNL     1      -0.591  10.938  21.368  0.00  0.00    +0.000 A 
ATOM      9  C   UNL     1      -0.501  10.470  22.678  0.00  0.00    +0.000 A 
ATOM     10  C   UNL     1       0.275   9.358  22.954  0.00  0.00    +0.000 A 
ATOM     11  C   UNL     1       0.949   8.712  21.918  0.00  0.00    +0.000 A 
ATOM     12  C   UNL     1       0.868   9.153  20.575  0.00  0.00    +0.000 A 
ENDBRANCH   1   2
BRANCH   1  13
ATOM     13  C   UNL     1       2.513   6.434  18.398  0.00  0.00    +0.000 C 
BRANCH  13  19
ATOM     14  O   UNL     1       0.362   2.365  18.798  0.00  0.00    +0.000 OA
ATOM     15  C   UNL     1       1.395   2.943  18.473  0.00  0.00    +0.000 C 
ATOM     16  C   UNL     1       2.447   2.248  17.658  0.00  0.00    +0.000 C 
ATOM     17  C   UNL     1       3.821   2.880  17.741  0.00  0.00    +0.000 C 
ATOM     18  C   UNL     1       3.730   4.385  17.587  0.00  0.00    +0.000 C 
ATOM     19  C   UNL     1       2.820   4.954  18.662  0.00  0.00    +0.000 C 
ATOM     20  O   UNL     1       1.561   4.254  18.746  0.00  0.00    +0.000 OA
BRANCH  17  21
ATOM     21  O   UNL     1       4.490   2.537  18.952  0.00  0.00    +0.000 OA
ATOM     22  H   UNL     1       5.449   2.462  18.799  0.00  0.00    +0.000 HD
ENDBRANCH  17  21
ENDBRANCH  13  19
ENDBRANCH   1  13
TORSDOF 4
ENDMDL
