MODEL 1
REMARK VINA RESULT:      -8.1      0.000      0.000
REMARK  Name = 
REMARK  5 active torsions:
REMARK  status: ('A' for Active; 'I' for Inactive)
REMARK    1  A    between atoms: C_1  and  C_2
REMARK    2  A    between atoms: C_2  and  C_3
REMARK    3  A    between atoms: C_2  and  N_9
REMARK    4  A    between atoms: C_18  and  C_19
REMARK    5  A    between atoms: C_22  and  C_23
REMARK                            x       y       z     vdW  Elec       q    Type
REMARK                         _______ _______ _______ _____ _____    ______ ____
ROOT
ATOM      1  N   UNL     1       5.975   5.670  16.153  0.00  0.00    +0.000 N 
ATOM      2  N   UNL     1       7.159   6.406  16.148  0.00  0.00    +0.000 NA
ATOM      3  N   UNL     1       7.511   6.522  17.420  0.00  0.00    +0.000 NA
ATOM      4  C   UNL     1       6.407   6.186  18.131  0.00  0.00    +0.000 A 
ATOM      5  C   UNL     1       6.246   5.700  19.420  0.00  0.00    +0.000 A 
ATOM      6  N   UNL     1       5.093   5.020  19.698  0.00  0.00    +0.000 NA
ATOM      7  C   UNL     1       3.978   5.309  19.018  0.00  0.00    +0.000 A 
ATOM      8  C   UNL     1       2.802   5.014  19.664  0.00  0.00    +0.000 A 
ATOM      9  C   UNL     1       1.870   6.026  19.925  0.00  0.00    +0.000 A 
ATOM     10  C   UNL     1       2.119   7.352  19.559  0.00  0.00    +0.000 A 
ATOM     11  C   UNL     1       3.128   7.447  18.510  0.00  0.00    +0.000 A 
ATOM     12  C   UNL     1       3.982   6.288  18.044  0.00  0.00    +0.000 A 
ATOM     13  C   UNL     1       5.266   6.245  17.293  0.00  0.00    +0.000 A 
ENDROOT
BRANCH  10  14
ATOM     14  C   UNL     1       1.399   8.454  20.403  0.00  0.00    +0.000 A 
ATOM     15  C   UNL     1       0.710   9.538  19.772  0.00  0.00    +0.000 A 
ATOM     16  C   UNL     1       0.040  10.578  20.467  0.00  0.00    +0.000 A 
ATOM     17  C   UNL     1       0.019  10.545  21.848  0.00  0.00    +0.000 A 
ATOM     18  N   UNL     1       0.640   9.542  22.523  0.00  0.00    +0.000 NA
ATOM     19  C   UNL     1       1.297   8.548  21.795  0.00  0.00    +0.000 A 
BRANCH  17  20
ATOM     20  C   UNL     1      -0.678  11.577  22.632  0.00  0.00    +0.000 C 
ATOM     21  N   UNL     1      -1.182  12.381  23.315  0.00  0.00    +0.000 NA
ENDBRANCH  17  20
ENDBRANCH  10  14
BRANCH   1  23
ATOM     22  C   UNL     1       5.576   3.070  16.040  0.00  0.00    +0.000 C 
ATOM     23  C   UNL     1       6.199   4.353  15.425  0.00  0.00    +0.000 C 
BRANCH  23  24
ATOM     24  C   UNL     1       6.233   4.182  13.901  0.00  0.00    +0.000 A 
ATOM     25  C   UNL     1       5.391   3.315  13.215  0.00  0.00    +0.000 A 
ATOM     26  C   UNL     1       5.633   3.009  11.863  0.00  0.00    +0.000 A 
ATOM     27  C   UNL     1       6.723   3.549  11.173  0.00  0.00    +0.000 A 
ATOM     28  C   UNL     1       7.583   4.415  11.830  0.00  0.00    +0.000 A 
ATOM     29  C   UNL     1       7.341   4.728  13.174  0.00  0.00    +0.000 A 
ENDBRANCH  23  24
ENDBRANCH   1  23
TORSDOF 4
ENDMDL
MODEL 2
REMARK VINA RESULT:      -7.9      0.542      1.248
REMARK  Name = 
REMARK  5 active torsions:
REMARK  status: ('A' for Active; 'I' for Inactive)
REMARK    1  A    between atoms: C_1  and  C_2
REMARK    2  A    between atoms: C_2  and  C_3
REMARK    3  A    between atoms: C_2  and  N_9
REMARK    4  A    between atoms: C_18  and  C_19
REMARK    5  A    between atoms: C_22  and  C_23
REMARK                            x       y       z     vdW  Elec       q    Type
REMARK                         _______ _______ _______ _____ _____    ______ ____
ROOT
ATOM      1  N   UNL     1       6.049   5.596  16.154  0.00  0.00    +0.000 N 
ATOM      2  N   UNL     1       7.225   6.344  16.148  0.00  0.00    +0.000 NA
ATOM      3  N   UNL     1       7.554   6.500  17.421  0.00  0.00    +0.000 NA
ATOM      4  C   UNL     1       6.443   6.172  18.123  0.00  0.00    +0.000 A 
ATOM      5  C   UNL     1       6.265   5.721  19.423  0.00  0.00    +0.000 A 
ATOM      6  N   UNL     1       5.114   5.037  19.701  0.00  0.00    +0.000 NA
ATOM      7  C   UNL     1       4.008   5.295  18.995  0.00  0.00    +0.000 A 
ATOM      8  C   UNL     1       2.824   5.006  19.630  0.00  0.00    +0.000 A 
ATOM      9  C   UNL     1       1.877   6.015  19.847  0.00  0.00    +0.000 A 
ATOM     10  C   UNL     1       2.119   7.333  19.447  0.00  0.00    +0.000 A 
ATOM     11  C   UNL     1       3.145   7.409  18.412  0.00  0.00    +0.000 A 
ATOM     12  C   UNL     1       4.019   6.246  17.993  0.00  0.00    +0.000 A 
ATOM     13  C   UNL     1       5.315   6.195  17.265  0.00  0.00    +0.000 A 
ENDROOT
BRANCH  10  14
ATOM     14  C   UNL     1       1.375   8.451  20.248  0.00  0.00    +0.000 A 
ATOM     15  C   UNL     1       0.903   8.217  21.579  0.00  0.00    +0.000 A 
ATOM     16  C   UNL     1       0.214   9.175  22.368  0.00  0.00    +0.000 A 
ATOM     17  C   UNL     1      -0.004  10.433  21.840  0.00  0.00    +0.000 A 
ATOM     18  N   UNL     1       0.425  10.739  20.587  0.00  0.00    +0.000 NA
ATOM     19  C   UNL     1       1.087   9.759  19.844  0.00  0.00    +0.000 A 
BRANCH  17  20
ATOM     20  C   UNL     1      -0.688  11.483  22.611  0.00  0.00    +0.000 C 
ATOM     21  N   UNL     1      -1.185  12.370  23.189  0.00  0.00    +0.000 NA
ENDBRANCH  17  20
ENDBRANCH  10  14
BRANCH   1  23
ATOM     22  C   UNL     1       5.509   3.025  15.979  0.00  0.00    +0.000 C 
ATOM     23  C   UNL     1       6.298   4.260  15.467  0.00  0.00    +0.000 C 
BRANCH  23  24
ATOM     24  C   UNL     1       6.554   4.074  13.967  0.00  0.00    +0.000 A 
ATOM     25  C   UNL     1       7.517   4.790  13.267  0.00  0.00    +0.000 A 
ATOM     26  C   UNL     1       7.538   4.767  11.860  0.00  0.00    +0.000 A 
ATOM     27  C   UNL     1       6.594   4.042  11.125  0.00  0.00    +0.000 A 
ATOM     28  C   UNL     1       5.619   3.319  11.793  0.00  0.00    +0.000 A 
ATOM     29  C   UNL     1       5.600   3.334  13.194  0.00  0.00    +0.000 A 
ENDBRANCH  23  24
ENDBRANCH   1  23
TORSDOF 4
ENDMDL
MODEL 3
REMARK VINA RESULT:      -7.5      0.889      1.191
REMARK  Name = 
REMARK  5 active torsions:
REMARK  status: ('A' for Active; 'I' for Inactive)
REMARK    1  A    between atoms: C_1  and  C_2
REMARK    2  A    between atoms: C_2  and  C_3
REMARK    3  A    between atoms: C_2  and  N_9
REMARK    4  A    between atoms: C_18  and  C_19
REMARK    5  A    between atoms: C_22  and  C_23
REMARK                            x       y       z     vdW  Elec       q    Type
REMARK                         _______ _______ _______ _____ _____    ______ ____
ROOT
ATOM      1  N   UNL     1       5.738   5.543  15.567  0.00  0.00    +0.000 N 
ATOM      2  N   UNL     1       6.814   6.388  15.298  0.00  0.00    +0.000 NA
ATOM      3  N   UNL     1       7.319   6.707  16.480  0.00  0.00    +0.000 NA
ATOM      4  C   UNL     1       6.371   6.357  17.383  0.00  0.00    +0.000 A 
ATOM      5  C   UNL     1       6.447   6.033  18.730  0.00  0.00    +0.000 A 
ATOM      6  N   UNL     1       5.432   5.282  19.255  0.00  0.00    +0.000 NA
ATOM      7  C   UNL     1       4.209   5.364  18.721  0.00  0.00    +0.000 A 
ATOM      8  C   UNL     1       3.175   5.040  19.567  0.00  0.00    +0.000 A 
ATOM      9  C   UNL     1       2.173   5.977  19.846  0.00  0.00    +0.000 A 
ATOM     10  C   UNL     1       2.209   7.262  19.293  0.00  0.00    +0.000 A 
ATOM     11  C   UNL     1       3.047   7.318  18.101  0.00  0.00    +0.000 A 
ATOM     12  C   UNL     1       3.962   6.200  17.650  0.00  0.00    +0.000 A 
ATOM     13  C   UNL     1       5.127   6.188  16.725  0.00  0.00    +0.000 A 
ENDROOT
BRANCH  10  14
ATOM     14  C   UNL     1       1.485   8.386  20.102  0.00  0.00    +0.000 A 
ATOM     15  C   UNL     1       0.974   8.140  21.417  0.00  0.00    +0.000 A 
ATOM     16  C   UNL     1       0.301   9.105  22.211  0.00  0.00    +0.000 A 
ATOM     17  C   UNL     1       0.139  10.381  21.707  0.00  0.00    +0.000 A 
ATOM     18  N   UNL     1       0.607  10.698  20.472  0.00  0.00    +0.000 NA
ATOM     19  C   UNL     1       1.252   9.712  19.722  0.00  0.00    +0.000 A 
BRANCH  17  20
ATOM     20  C   UNL     1      -0.527  11.437  22.486  0.00  0.00    +0.000 C 
ATOM     21  N   UNL     1      -1.023  12.330  23.056  0.00  0.00    +0.000 NA
ENDBRANCH  17  20
ENDBRANCH  10  14
BRANCH   1  23
ATOM     22  C   UNL     1       5.701   2.924  15.844  0.00  0.00    +0.000 C 
ATOM     23  C   UNL     1       6.016   4.169  14.972  0.00  0.00    +0.000 C 
BRANCH  23  24
ATOM     24  C   UNL     1       5.807   3.786  13.502  0.00  0.00    +0.000 A 
ATOM     25  C   UNL     1       4.583   3.902  12.854  0.00  0.00    +0.000 A 
ATOM     26  C   UNL     1       4.385   3.304  11.595  0.00  0.00    +0.000 A 
ATOM     27  C   UNL     1       5.396   2.570  10.965  0.00  0.00    +0.000 A 
ATOM     28  C   UNL     1       6.627   2.434  11.586  0.00  0.00    +0.000 A 
ATOM     29  C   UNL     1       6.830   3.034  12.836  0.00  0.00    +0.000 A 
ENDBRANCH  23  24
ENDBRANCH   1  23
TORSDOF 4
ENDMDL
MODEL 4
REMARK VINA RESULT:      -7.4      3.380     11.612
REMARK  Name = 
REMARK  5 active torsions:
REMARK  status: ('A' for Active; 'I' for Inactive)
REMARK    1  A    between atoms: C_1  and  C_2
REMARK    2  A    between atoms: C_2  and  C_3
REMARK    3  A    between atoms: C_2  and  N_9
REMARK    4  A    between atoms: C_18  and  C_19
REMARK    5  A    between atoms: C_22  and  C_23
REMARK                            x       y       z     vdW  Elec       q    Type
REMARK                         _______ _______ _______ _____ _____    ______ ____
ROOT
ATOM      1  N   UNL     1      -2.198  12.411  22.331  0.00  0.00    +0.000 N 
ATOM      2  N   UNL     1      -1.597  12.880  23.498  0.00  0.00    +0.000 NA
ATOM      3  N   UNL     1      -0.406  13.326  23.130  0.00  0.00    +0.000 NA
ATOM      4  C   UNL     1      -0.196  12.815  21.893  0.00  0.00    +0.000 A 
ATOM      5  C   UNL     1       0.603  13.234  20.839  0.00  0.00    +0.000 A 
ATOM      6  N   UNL     1       0.265  12.808  19.584  0.00  0.00    +0.000 NA
ATOM      7  C   UNL     1      -0.371  11.641  19.434  0.00  0.00    +0.000 A 
ATOM      8  C   UNL     1      -0.207  11.035  18.211  0.00  0.00    +0.000 A 
ATOM      9  C   UNL     1       0.350   9.753  18.129  0.00  0.00    +0.000 A 
ATOM     10  C   UNL     1       0.771   9.072  19.276  0.00  0.00    +0.000 A 
ATOM     11  C   UNL     1       0.137   9.592  20.482  0.00  0.00    +0.000 A 
ATOM     12  C   UNL     1      -0.683  10.863  20.532  0.00  0.00    +0.000 A 
ATOM     13  C   UNL     1      -1.087  11.736  21.668  0.00  0.00    +0.000 A 
ENDROOT
BRANCH  10  14
ATOM     14  C   UNL     1       1.904   8.013  19.079  0.00  0.00    +0.000 A 
ATOM     15  C   UNL     1       2.763   8.054  17.934  0.00  0.00    +0.000 A 
ATOM     16  C   UNL     1       3.808   7.127  17.680  0.00  0.00    +0.000 A 
ATOM     17  C   UNL     1       4.042   6.124  18.601  0.00  0.00    +0.000 A 
ATOM     18  N   UNL     1       3.278   6.025  19.721  0.00  0.00    +0.000 NA
ATOM     19  C   UNL     1       2.254   6.953  19.921  0.00  0.00    +0.000 A 
BRANCH  17  20
ATOM     20  C   UNL     1       5.124   5.145  18.415  0.00  0.00    +0.000 C 
ATOM     21  N   UNL     1       6.003   4.377  18.342  0.00  0.00    +0.000 NA
ENDBRANCH  17  20
ENDBRANCH  10  14
BRANCH   1  23
ATOM     22  C   UNL     1      -3.451  14.094  20.740  0.00  0.00    +0.000 C 
ATOM     23  C   UNL     1      -3.440  13.241  22.037  0.00  0.00    +0.000 C 
BRANCH  23  24
ATOM     24  C   UNL     1      -4.881  12.808  22.333  0.00  0.00    +0.000 A 
ATOM     25  C   UNL     1      -5.816  12.547  21.338  0.00  0.00    +0.000 A 
ATOM     26  C   UNL     1      -7.177  12.404  21.662  0.00  0.00    +0.000 A 
ATOM     27  C   UNL     1      -7.636  12.529  22.977  0.00  0.00    +0.000 A 
ATOM     28  C   UNL     1      -6.729  12.791  23.992  0.00  0.00    +0.000 A 
ATOM     29  C   UNL     1      -5.372  12.927  23.675  0.00  0.00    +0.000 A 
ENDBRANCH  23  24
ENDBRANCH   1  23
TORSDOF 4
ENDMDL
MODEL 5
REMARK VINA RESULT:      -7.3      3.136      4.602
REMARK  Name = 
REMARK  5 active torsions:
REMARK  status: ('A' for Active; 'I' for Inactive)
REMARK    1  A    between atoms: C_1  and  C_2
REMARK    2  A    between atoms: C_2  and  C_3
REMARK    3  A    between atoms: C_2  and  N_9
REMARK    4  A    between atoms: C_18  and  C_19
REMARK    5  A    between atoms: C_22  and  C_23
REMARK                            x       y       z     vdW  Elec       q    Type
REMARK                         _______ _______ _______ _____ _____    ______ ____
ROOT
ATOM      1  N   UNL     1       3.549   4.682  20.204  0.00  0.00    +0.000 N 
ATOM      2  N   UNL     1       2.746   3.598  20.558  0.00  0.00    +0.000 NA
ATOM      3  N   UNL     1       1.732   3.614  19.706  0.00  0.00    +0.000 NA
ATOM      4  C   UNL     1       1.763   4.842  19.132  0.00  0.00    +0.000 A 
ATOM      5  C   UNL     1       1.285   5.311  17.917  0.00  0.00    +0.000 A 
ATOM      6  N   UNL     1       1.859   6.443  17.409  0.00  0.00    +0.000 NA
ATOM      7  C   UNL     1       2.379   7.349  18.245  0.00  0.00    +0.000 A 
ATOM      8  C   UNL     1       2.441   8.632  17.755  0.00  0.00    +0.000 A 
ATOM      9  C   UNL     1       1.780   9.672  18.421  0.00  0.00    +0.000 A 
ATOM     10  C   UNL     1       1.028   9.431  19.575  0.00  0.00    +0.000 A 
ATOM     11  C   UNL     1       1.416   8.184  20.226  0.00  0.00    +0.000 A 
ATOM     12  C   UNL     1       2.337   7.153  19.611  0.00  0.00    +0.000 A 
ATOM     13  C   UNL     1       2.556   5.714  19.919  0.00  0.00    +0.000 A 
ENDROOT
BRANCH  10  14
ATOM     14  C   UNL     1      -0.136  10.431  19.868  0.00  0.00    +0.000 A 
ATOM     15  C   UNL     1      -1.050  10.824  18.838  0.00  0.00    +0.000 A 
ATOM     16  C   UNL     1      -2.127  11.730  19.022  0.00  0.00    +0.000 A 
ATOM     17  C   UNL     1      -2.338  12.261  20.280  0.00  0.00    +0.000 A 
ATOM     18  N   UNL     1      -1.521  11.929  21.314  0.00  0.00    +0.000 NA
ATOM     19  C   UNL     1      -0.468  11.043  21.082  0.00  0.00    +0.000 A 
BRANCH  17  20
ATOM     20  C   UNL     1      -3.449  13.187  20.548  0.00  0.00    +0.000 C 
ATOM     21  N   UNL     1      -4.370  13.893  20.697  0.00  0.00    +0.000 NA
ENDBRANCH  17  20
ENDBRANCH  10  14
BRANCH   1  23
ATOM     22  C   UNL     1       5.031   2.672  19.369  0.00  0.00    +0.000 C 
ATOM     23  C   UNL     1       4.909   4.173  19.749  0.00  0.00    +0.000 C 
BRANCH  23  24
ATOM     24  C   UNL     1       5.905   4.963  18.891  0.00  0.00    +0.000 A 
ATOM     25  C   UNL     1       7.074   5.515  19.400  0.00  0.00    +0.000 A 
ATOM     26  C   UNL     1       7.816   6.437  18.638  0.00  0.00    +0.000 A 
ATOM     27  C   UNL     1       7.402   6.835  17.363  0.00  0.00    +0.000 A 
ATOM     28  C   UNL     1       6.239   6.304  16.828  0.00  0.00    +0.000 A 
ATOM     29  C   UNL     1       5.502   5.381  17.581  0.00  0.00    +0.000 A 
ENDBRANCH  23  24
ENDBRANCH   1  23
TORSDOF 4
ENDMDL
MODEL 6
REMARK VINA RESULT:      -7.2      2.804      4.292
REMARK  Name = 
REMARK  5 active torsions:
REMARK  status: ('A' for Active; 'I' for Inactive)
REMARK    1  A    between atoms: C_1  and  C_2
REMARK    2  A    between atoms: C_2  and  C_3
REMARK    3  A    between atoms: C_2  and  N_9
REMARK    4  A    between atoms: C_18  and  C_19
REMARK    5  A    between atoms: C_22  and  C_23
REMARK                            x       y       z     vdW  Elec       q    Type
REMARK                         _______ _______ _______ _____ _____    ______ ____
ROOT
ATOM      1  N   UNL     1       3.447   4.111  20.195  0.00  0.00    +0.000 N 
ATOM      2  N   UNL     1       2.574   3.090  20.568  0.00  0.00    +0.000 NA
ATOM      3  N   UNL     1       1.538   3.190  19.749  0.00  0.00    +0.000 NA
ATOM      4  C   UNL     1       1.647   4.415  19.179  0.00  0.00    +0.000 A 
ATOM      5  C   UNL     1       1.171   4.928  17.982  0.00  0.00    +0.000 A 
ATOM      6  N   UNL     1       1.815   6.016  17.461  0.00  0.00    +0.000 NA
ATOM      7  C   UNL     1       2.428   6.873  18.284  0.00  0.00    +0.000 A 
ATOM      8  C   UNL     1       2.575   8.151  17.799  0.00  0.00    +0.000 A 
ATOM      9  C   UNL     1       2.016   9.234  18.488  0.00  0.00    +0.000 A 
ATOM     10  C   UNL     1       1.283   9.044  19.664  0.00  0.00    +0.000 A 
ATOM     11  C   UNL     1       1.593   7.767  20.298  0.00  0.00    +0.000 A 
ATOM     12  C   UNL     1       2.412   6.672  19.650  0.00  0.00    +0.000 A 
ATOM     13  C   UNL     1       2.529   5.218  19.945  0.00  0.00    +0.000 A 
ENDROOT
BRANCH  10  14
ATOM     14  C   UNL     1       0.209  10.130  19.997  0.00  0.00    +0.000 A 
ATOM     15  C   UNL     1       0.115  10.701  21.306  0.00  0.00    +0.000 A 
ATOM     16  C   UNL     1      -0.834  11.684  21.688  0.00  0.00    +0.000 A 
ATOM     17  C   UNL     1      -1.722  12.151  20.738  0.00  0.00    +0.000 A 
ATOM     18  N   UNL     1      -1.690  11.668  19.468  0.00  0.00    +0.000 NA
ATOM     19  C   UNL     1      -0.746  10.693  19.143  0.00  0.00    +0.000 A 
BRANCH  17  20
ATOM     20  C   UNL     1      -2.716  13.188  21.057  0.00  0.00    +0.000 C 
ATOM     21  N   UNL     1      -3.488  14.047  21.243  0.00  0.00    +0.000 NA
ENDBRANCH  17  20
ENDBRANCH  10  14
BRANCH   1  23
ATOM     22  C   UNL     1       4.963   1.977  19.904  0.00  0.00    +0.000 C 
ATOM     23  C   UNL     1       4.749   3.501  19.696  0.00  0.00    +0.000 C 
BRANCH  23  24
ATOM     24  C   UNL     1       5.482   3.914  18.413  0.00  0.00    +0.000 A 
ATOM     25  C   UNL     1       6.677   4.622  18.416  0.00  0.00    +0.000 A 
ATOM     26  C   UNL     1       7.170   5.191  17.227  0.00  0.00    +0.000 A 
ATOM     27  C   UNL     1       6.477   5.077  16.018  0.00  0.00    +0.000 A 
ATOM     28  C   UNL     1       5.280   4.379  15.982  0.00  0.00    +0.000 A 
ATOM     29  C   UNL     1       4.791   3.805  17.163  0.00  0.00    +0.000 A 
ENDBRANCH  23  24
ENDBRANCH   1  23
TORSDOF 4
ENDMDL
MODEL 7
REMARK VINA RESULT:      -7.2      3.078     11.038
REMARK  Name = 
REMARK  5 active torsions:
REMARK  status: ('A' for Active; 'I' for Inactive)
REMARK    1  A    between atoms: C_1  and  C_2
REMARK    2  A    between atoms: C_2  and  C_3
REMARK    3  A    between atoms: C_2  and  N_9
REMARK    4  A    between atoms: C_18  and  C_19
REMARK    5  A    between atoms: C_22  and  C_23
REMARK                            x       y       z     vdW  Elec       q    Type
REMARK                         _______ _______ _______ _____ _____    ______ ____
ROOT
ATOM      1  N   UNL     1      -1.061  12.920  22.359  0.00  0.00    +0.000 N 
ATOM      2  N   UNL     1      -0.155  13.675  23.102  0.00  0.00    +0.000 NA
ATOM      3  N   UNL     1       0.785  14.047  22.246  0.00  0.00    +0.000 NA
ATOM      4  C   UNL     1       0.618  13.253  21.160  0.00  0.00    +0.000 A 
ATOM      5  C   UNL     1       0.961  13.420  19.826  0.00  0.00    +0.000 A 
ATOM      6  N   UNL     1       0.266  12.691  18.901  0.00  0.00    +0.000 NA
ATOM      7  C   UNL     1      -0.251  11.507  19.249  0.00  0.00    +0.000 A 
ATOM      8  C   UNL     1      -0.446  10.625  18.214  0.00  0.00    +0.000 A 
ATOM      9  C   UNL     1       0.187   9.376  18.225  0.00  0.00    +0.000 A 
ATOM     10  C   UNL     1       1.044   9.007  19.267  0.00  0.00    +0.000 A 
ATOM     11  C   UNL     1       0.803   9.792  20.472  0.00  0.00    +0.000 A 
ATOM     12  C   UNL     1      -0.086  11.016  20.529  0.00  0.00    +0.000 A 
ATOM     13  C   UNL     1      -0.173  12.130  21.510  0.00  0.00    +0.000 A 
ENDROOT
BRANCH  10  14
ATOM     14  C   UNL     1       2.152   7.960  18.919  0.00  0.00    +0.000 A 
ATOM     15  C   UNL     1       2.946   8.090  17.735  0.00  0.00    +0.000 A 
ATOM     16  C   UNL     1       3.964   7.180  17.346  0.00  0.00    +0.000 A 
ATOM     17  C   UNL     1       4.238   6.103  18.167  0.00  0.00    +0.000 A 
ATOM     18  N   UNL     1       3.537   5.916  19.316  0.00  0.00    +0.000 NA
ATOM     19  C   UNL     1       2.536   6.832  19.650  0.00  0.00    +0.000 A 
BRANCH  17  20
ATOM     20  C   UNL     1       5.296   5.135  17.839  0.00  0.00    +0.000 C 
ATOM     21  N   UNL     1       6.169   4.420  17.531  0.00  0.00    +0.000 NA
ENDBRANCH  17  20
ENDBRANCH  10  14
BRANCH   1  23
ATOM     22  C   UNL     1      -2.426  15.164  22.173  0.00  0.00    +0.000 C 
ATOM     23  C   UNL     1      -2.412  13.621  22.350  0.00  0.00    +0.000 C 
BRANCH  23  24
ATOM     24  C   UNL     1      -3.694  13.058  21.723  0.00  0.00    +0.000 A 
ATOM     25  C   UNL     1      -3.815  12.771  20.369  0.00  0.00    +0.000 A 
ATOM     26  C   UNL     1      -5.077  12.502  19.809  0.00  0.00    +0.000 A 
ATOM     27  C   UNL     1      -6.242  12.525  20.582  0.00  0.00    +0.000 A 
ATOM     28  C   UNL     1      -6.156  12.810  21.936  0.00  0.00    +0.000 A 
ATOM     29  C   UNL     1      -4.900  13.072  22.498  0.00  0.00    +0.000 A 
ENDBRANCH  23  24
ENDBRANCH   1  23
TORSDOF 4
ENDMDL
MODEL 8
REMARK VINA RESULT:      -7.2      3.308     10.690
REMARK  Name = 
REMARK  5 active torsions:
REMARK  status: ('A' for Active; 'I' for Inactive)
REMARK    1  A    between atoms: C_1  and  C_2
REMARK    2  A    between atoms: C_2  and  C_3
REMARK    3  A    between atoms: C_2  and  N_9
REMARK    4  A    between atoms: C_18  and  C_19
REMARK    5  A    between atoms: C_22  and  C_23
REMARK                            x       y       z     vdW  Elec       q    Type
REMARK                         _______ _______ _______ _____ _____    ______ ____
ROOT
ATOM      1  N   UNL     1      -2.144  12.074  22.077  0.00  0.00    +0.000 N 
ATOM      2  N   UNL     1      -1.639  12.476  23.313  0.00  0.00    +0.000 NA
ATOM      3  N   UNL     1      -0.418  12.925  23.069  0.00  0.00    +0.000 NA
ATOM      4  C   UNL     1      -0.109  12.473  21.829  0.00  0.00    +0.000 A 
ATOM      5  C   UNL     1       0.779  12.933  20.868  0.00  0.00    +0.000 A 
ATOM      6  N   UNL     1       0.545  12.574  19.570  0.00  0.00    +0.000 NA
ATOM      7  C   UNL     1      -0.087  11.424  19.308  0.00  0.00    +0.000 A 
ATOM      8  C   UNL     1       0.174  10.878  18.074  0.00  0.00    +0.000 A 
ATOM      9  C   UNL     1       0.725   9.594  17.975  0.00  0.00    +0.000 A 
ATOM     10  C   UNL     1       1.042   8.852  19.117  0.00  0.00    +0.000 A 
ATOM     11  C   UNL     1       0.313   9.320  20.290  0.00  0.00    +0.000 A 
ATOM     12  C   UNL     1      -0.497  10.598  20.336  0.00  0.00    +0.000 A 
ATOM     13  C   UNL     1      -0.987  11.418  21.476  0.00  0.00    +0.000 A 
ENDROOT
BRANCH  10  14
ATOM     14  C   UNL     1       2.179   7.789  18.962  0.00  0.00    +0.000 A 
ATOM     15  C   UNL     1       3.094   7.841  17.862  0.00  0.00    +0.000 A 
ATOM     16  C   UNL     1       4.146   6.912  17.648  0.00  0.00    +0.000 A 
ATOM     17  C   UNL     1       4.329   5.896  18.566  0.00  0.00    +0.000 A 
ATOM     18  N   UNL     1       3.509   5.785  19.644  0.00  0.00    +0.000 NA
ATOM     19  C   UNL     1       2.481   6.716  19.806  0.00  0.00    +0.000 A 
BRANCH  17  20
ATOM     20  C   UNL     1       5.414   4.913  18.420  0.00  0.00    +0.000 C 
ATOM     21  N   UNL     1       6.320   4.176  18.352  0.00  0.00    +0.000 NA
ENDBRANCH  17  20
ENDBRANCH  10  14
BRANCH   1  23
ATOM     22  C   UNL     1      -3.282  14.449  22.052  0.00  0.00    +0.000 C 
ATOM     23  C   UNL     1      -3.350  12.933  21.722  0.00  0.00    +0.000 C 
BRANCH  23  24
ATOM     24  C   UNL     1      -4.222  12.756  20.474  0.00  0.00    +0.000 A 
ATOM     25  C   UNL     1      -5.600  12.933  20.479  0.00  0.00    +0.000 A 
ATOM     26  C   UNL     1      -6.376  12.515  19.382  0.00  0.00    +0.000 A 
ATOM     27  C   UNL     1      -5.797  11.902  18.266  0.00  0.00    +0.000 A 
ATOM     28  C   UNL     1      -4.425  11.709  18.231  0.00  0.00    +0.000 A 
ATOM     29  C   UNL     1      -3.649  12.131  19.318  0.00  0.00    +0.000 A 
ENDBRANCH  23  24
ENDBRANCH   1  23
TORSDOF 4
ENDMDL
MODEL 9
REMARK VINA RESULT:      -7.2      3.119      4.438
REMARK  Name = 
REMARK  5 active torsions:
REMARK  status: ('A' for Active; 'I' for Inactive)
REMARK    1  A    between atoms: C_1  and  C_2
REMARK    2  A    between atoms: C_2  and  C_3
REMARK    3  A    between atoms: C_2  and  N_9
REMARK    4  A    between atoms: C_18  and  C_19
REMARK    5  A    between atoms: C_22  and  C_23
REMARK                            x       y       z     vdW  Elec       q    Type
REMARK                         _______ _______ _______ _____ _____    ______ ____
ROOT
ATOM      1  N   UNL     1       4.018   4.699  19.649  0.00  0.00    +0.000 N 
ATOM      2  N   UNL     1       3.389   3.511  20.018  0.00  0.00    +0.000 NA
ATOM      3  N   UNL     1       2.197   3.547  19.441  0.00  0.00    +0.000 NA
ATOM      4  C   UNL     1       2.018   4.836  19.063  0.00  0.00    +0.000 A 
ATOM      5  C   UNL     1       1.231   5.414  18.077  0.00  0.00    +0.000 A 
ATOM      6  N   UNL     1       1.599   6.649  17.621  0.00  0.00    +0.000 NA
ATOM      7  C   UNL     1       2.257   7.482  18.434  0.00  0.00    +0.000 A 
ATOM      8  C   UNL     1       2.125   8.818  18.138  0.00  0.00    +0.000 A 
ATOM      9  C   UNL     1       1.592   9.699  19.086  0.00  0.00    +0.000 A 
ATOM     10  C   UNL     1       1.161   9.245  20.337  0.00  0.00    +0.000 A 
ATOM     11  C   UNL     1       1.765   7.964  20.687  0.00  0.00    +0.000 A 
ATOM     12  C   UNL     1       2.563   7.108  19.728  0.00  0.00    +0.000 A 
ATOM     13  C   UNL     1       2.931   5.666  19.760  0.00  0.00    +0.000 A 
ENDROOT
BRANCH  10  14
ATOM     14  C   UNL     1       0.050  10.091  21.040  0.00  0.00    +0.000 A 
ATOM     15  C   UNL     1      -0.235   9.926  22.433  0.00  0.00    +0.000 A 
ATOM     16  C   UNL     1      -1.230  10.649  23.141  0.00  0.00    +0.000 A 
ATOM     17  C   UNL     1      -1.967  11.599  22.461  0.00  0.00    +0.000 A 
ATOM     18  N   UNL     1      -1.749  11.825  21.139  0.00  0.00    +0.000 NA
ATOM     19  C   UNL     1      -0.767  11.080  20.482  0.00  0.00    +0.000 A 
BRANCH  17  20
ATOM     20  C   UNL     1      -2.997  12.404  23.137  0.00  0.00    +0.000 C 
ATOM     21  N   UNL     1      -3.757  13.083  23.711  0.00  0.00    +0.000 NA
ENDBRANCH  17  20
ENDBRANCH  10  14
BRANCH   1  23
ATOM     22  C   UNL     1       5.103   3.335  17.675  0.00  0.00    +0.000 C 
ATOM     23  C   UNL     1       5.251   4.377  18.816  0.00  0.00    +0.000 C 
BRANCH  23  24
ATOM     24  C   UNL     1       6.323   5.391  18.398  0.00  0.00    +0.000 A 
ATOM     25  C   UNL     1       7.454   5.658  19.159  0.00  0.00    +0.000 A 
ATOM     26  C   UNL     1       8.266   6.768  18.862  0.00  0.00    +0.000 A 
ATOM     27  C   UNL     1       7.962   7.638  17.810  0.00  0.00    +0.000 A 
ATOM     28  C   UNL     1       6.840   7.401  17.033  0.00  0.00    +0.000 A 
ATOM     29  C   UNL     1       6.033   6.293  17.322  0.00  0.00    +0.000 A 
ENDBRANCH  23  24
ENDBRANCH   1  23
TORSDOF 4
ENDMDL
