MODEL 1
REMARK VINA RESULT:      -6.8      0.000      0.000
REMARK  Name = 
REMARK  5 active torsions:
REMARK  status: ('A' for Active; 'I' for Inactive)
REMARK    1  A    between atoms: C_1  and  C_2
REMARK    2  A    between atoms: C_2  and  N_3
REMARK    3  A    between atoms: N_6  and  C_7
REMARK    4  A    between atoms: C_10  and  N_11
REMARK    5  A    between atoms: C_13  and  C_14
REMARK                            x       y       z     vdW  Elec       q    Type
REMARK                         _______ _______ _______ _____ _____    ______ ____
ROOT
ATOM      1  C   UNL     1       4.922   4.450  17.277  0.00  0.00    +0.000 A 
ATOM      2  C   UNL     1       4.770   4.082  15.922  0.00  0.00    +0.000 A 
ATOM      3  C   UNL     1       5.743   4.344  14.948  0.00  0.00    +0.000 A 
ATOM      4  C   UNL     1       6.929   4.969  15.290  0.00  0.00    +0.000 A 
ATOM      5  C   UNL     1       7.085   5.391  16.608  0.00  0.00    +0.000 A 
ATOM      6  C   UNL     1       6.127   5.104  17.613  0.00  0.00    +0.000 A 
ATOM      7  C   UNL     1       6.497   5.507  19.015  0.00  0.00    +0.000 C 
ENDROOT
BRANCH   1  11
ATOM      8  N   UNL     1       1.589   2.808  19.450  0.00  0.00    +0.000 NA
ATOM      9  C   UNL     1       1.424   3.767  18.332  0.00  0.00    +0.000 C 
ATOM     10  C   UNL     1       2.561   4.799  18.089  0.00  0.00    +0.000 C 
ATOM     11  N   UNL     1       3.892   4.182  18.164  0.00  0.00    +0.000 N 
ATOM     12  C   UNL     1       4.090   3.297  19.320  0.00  0.00    +0.000 C 
ATOM     13  C   UNL     1       2.959   2.244  19.381  0.00  0.00    +0.000 C 
BRANCH   8  15
ATOM     14  C   UNL     1       1.829   2.505  21.921  0.00  0.00    +0.000 C 
ATOM     15  C   UNL     1       1.319   3.375  20.776  0.00  0.00    +0.000 C 
ENDBRANCH   8  15
ENDBRANCH   1  11
BRANCH   4  16
ATOM     16  N   UNL     1       7.837   5.367  14.302  0.00  0.00    +0.000 N 
ATOM     17  H   UNL     1       7.603   6.255  13.867  0.00  0.00    +0.000 HD
ATOM     18  H   UNL     1       8.044   4.646  13.620  0.00  0.00    +0.000 HD
ENDBRANCH   4  16
TORSDOF 3
ENDMDL
MODEL 2
REMARK VINA RESULT:      -6.7      1.096      1.172
REMARK  Name = 
REMARK  5 active torsions:
REMARK  status: ('A' for Active; 'I' for Inactive)
REMARK    1  A    between atoms: C_1  and  C_2
REMARK    2  A    between atoms: C_2  and  N_3
REMARK    3  A    between atoms: N_6  and  C_7
REMARK    4  A    between atoms: C_10  and  N_11
REMARK    5  A    between atoms: C_13  and  C_14
REMARK                            x       y       z     vdW  Elec       q    Type
REMARK                         _______ _______ _______ _____ _____    ______ ____
ROOT
ATOM      1  C   UNL     1       4.564   4.496  17.043  0.00  0.00    +0.000 A 
ATOM      2  C   UNL     1       5.340   3.519  16.381  0.00  0.00    +0.000 A 
ATOM      3  C   UNL     1       6.324   3.839  15.435  0.00  0.00    +0.000 A 
ATOM      4  C   UNL     1       6.595   5.160  15.124  0.00  0.00    +0.000 A 
ATOM      5  C   UNL     1       5.810   6.143  15.721  0.00  0.00    +0.000 A 
ATOM      6  C   UNL     1       4.835   5.840  16.704  0.00  0.00    +0.000 A 
ATOM      7  C   UNL     1       4.161   7.017  17.356  0.00  0.00    +0.000 C 
ENDROOT
BRANCH   1  11
ATOM      8  N   UNL     1       1.823   2.300  19.532  0.00  0.00    +0.000 NA
ATOM      9  C   UNL     1       1.485   2.738  18.157  0.00  0.00    +0.000 C 
ATOM     10  C   UNL     1       2.155   4.036  17.625  0.00  0.00    +0.000 C 
ATOM     11  N   UNL     1       3.589   4.085  17.938  0.00  0.00    +0.000 N 
ATOM     12  C   UNL     1       3.924   3.735  19.325  0.00  0.00    +0.000 C 
ATOM     13  C   UNL     1       3.297   2.371  19.693  0.00  0.00    +0.000 C 
BRANCH   8  15
ATOM     14  C   UNL     1       1.636   2.708  21.992  0.00  0.00    +0.000 C 
ATOM     15  C   UNL     1       1.142   3.054  20.591  0.00  0.00    +0.000 C 
ENDBRANCH   8  15
ENDBRANCH   1  11
BRANCH   4  16
ATOM     16  N   UNL     1       7.466   5.482  14.076  0.00  0.00    +0.000 N 
ATOM     17  H   UNL     1       8.396   5.748  14.387  0.00  0.00    +0.000 HD
ATOM     18  H   UNL     1       7.079   6.140  13.409  0.00  0.00    +0.000 HD
ENDBRANCH   4  16
TORSDOF 3
ENDMDL
MODEL 3
REMARK VINA RESULT:      -6.7      1.284      1.657
REMARK  Name = 
REMARK  5 active torsions:
REMARK  status: ('A' for Active; 'I' for Inactive)
REMARK    1  A    between atoms: C_1  and  C_2
REMARK    2  A    between atoms: C_2  and  N_3
REMARK    3  A    between atoms: N_6  and  C_7
REMARK    4  A    between atoms: C_10  and  N_11
REMARK    5  A    between atoms: C_13  and  C_14
REMARK                            x       y       z     vdW  Elec       q    Type
REMARK                         _______ _______ _______ _____ _____    ______ ____
ROOT
ATOM      1  C   UNL     1       4.736   4.494  16.983  0.00  0.00    +0.000 A 
ATOM      2  C   UNL     1       5.520   3.518  16.329  0.00  0.00    +0.000 A 
ATOM      3  C   UNL     1       6.482   3.835  15.361  0.00  0.00    +0.000 A 
ATOM      4  C   UNL     1       6.722   5.154  15.016  0.00  0.00    +0.000 A 
ATOM      5  C   UNL     1       5.929   6.135  15.604  0.00  0.00    +0.000 A 
ATOM      6  C   UNL     1       4.975   5.835  16.610  0.00  0.00    +0.000 A 
ATOM      7  C   UNL     1       4.290   7.014  17.246  0.00  0.00    +0.000 C 
ENDROOT
BRANCH   1  11
ATOM      8  N   UNL     1       1.357   4.108  19.620  0.00  0.00    +0.000 NA
ATOM      9  C   UNL     1       2.643   4.710  20.046  0.00  0.00    +0.000 C 
ATOM     10  C   UNL     1       3.942   4.205  19.357  0.00  0.00    +0.000 C 
ATOM     11  N   UNL     1       3.784   4.085  17.902  0.00  0.00    +0.000 N 
ATOM     12  C   UNL     1       2.550   3.411  17.475  0.00  0.00    +0.000 C 
ATOM     13  C   UNL     1       1.324   4.081  18.137  0.00  0.00    +0.000 C 
BRANCH   8  15
ATOM     14  C   UNL     1       1.505   2.644  21.642  0.00  0.00    +0.000 C 
ATOM     15  C   UNL     1       1.100   2.775  20.177  0.00  0.00    +0.000 C 
ENDBRANCH   8  15
ENDBRANCH   1  11
BRANCH   4  16
ATOM     16  N   UNL     1       7.570   5.469  13.948  0.00  0.00    +0.000 N 
ATOM     17  H   UNL     1       7.303   5.030  13.071  0.00  0.00    +0.000 HD
ATOM     18  H   UNL     1       8.555   5.347  14.156  0.00  0.00    +0.000 HD
ENDBRANCH   4  16
TORSDOF 3
ENDMDL
MODEL 4
REMARK VINA RESULT:      -6.5      1.080      1.646
REMARK  Name = 
REMARK  5 active torsions:
REMARK  status: ('A' for Active; 'I' for Inactive)
REMARK    1  A    between atoms: C_1  and  C_2
REMARK    2  A    between atoms: C_2  and  N_3
REMARK    3  A    between atoms: N_6  and  C_7
REMARK    4  A    between atoms: C_10  and  N_11
REMARK    5  A    between atoms: C_13  and  C_14
REMARK                            x       y       z     vdW  Elec       q    Type
REMARK                         _______ _______ _______ _____ _____    ______ ____
ROOT
ATOM      1  C   UNL     1       5.256   4.536  16.763  0.00  0.00    +0.000 A 
ATOM      2  C   UNL     1       4.918   4.286  15.414  0.00  0.00    +0.000 A 
ATOM      3  C   UNL     1       5.806   4.507  14.352  0.00  0.00    +0.000 A 
ATOM      4  C   UNL     1       7.088   4.969  14.594  0.00  0.00    +0.000 A 
ATOM      5  C   UNL     1       7.433   5.274  15.908  0.00  0.00    +0.000 A 
ATOM      6  C   UNL     1       6.560   5.024  16.997  0.00  0.00    +0.000 A 
ATOM      7  C   UNL     1       7.122   5.280  18.369  0.00  0.00    +0.000 C 
ENDROOT
BRANCH   1  11
ATOM      8  N   UNL     1       2.982   4.285  20.408  0.00  0.00    +0.000 NA
ATOM      9  C   UNL     1       3.886   3.204  19.951  0.00  0.00    +0.000 C 
ATOM     10  C   UNL     1       4.094   3.033  18.419  0.00  0.00    +0.000 C 
ATOM     11  N   UNL     1       4.302   4.321  17.744  0.00  0.00    +0.000 N 
ATOM     12  C   UNL     1       3.352   5.374  18.130  0.00  0.00    +0.000 C 
ATOM     13  C   UNL     1       3.326   5.524  19.668  0.00  0.00    +0.000 C 
BRANCH   8  15
ATOM     14  C   UNL     1       1.102   2.822  21.171  0.00  0.00    +0.000 C 
ATOM     15  C   UNL     1       1.554   3.974  20.278  0.00  0.00    +0.000 C 
ENDBRANCH   8  15
ENDBRANCH   1  11
BRANCH   4  16
ATOM     16  N   UNL     1       7.927   5.334  13.534  0.00  0.00    +0.000 N 
ATOM     17  H   UNL     1       8.283   4.543  13.005  0.00  0.00    +0.000 HD
ATOM     18  H   UNL     1       8.660   5.984  13.797  0.00  0.00    +0.000 HD
ENDBRANCH   4  16
TORSDOF 3
ENDMDL
MODEL 5
REMARK VINA RESULT:      -6.5      1.822      5.834
REMARK  Name = 
REMARK  5 active torsions:
REMARK  status: ('A' for Active; 'I' for Inactive)
REMARK    1  A    between atoms: C_1  and  C_2
REMARK    2  A    between atoms: C_2  and  N_3
REMARK    3  A    between atoms: N_6  and  C_7
REMARK    4  A    between atoms: C_10  and  N_11
REMARK    5  A    between atoms: C_13  and  C_14
REMARK                            x       y       z     vdW  Elec       q    Type
REMARK                         _______ _______ _______ _____ _____    ______ ____
ROOT
ATOM      1  C   UNL     1       3.741   4.564  18.150  0.00  0.00    +0.000 A 
ATOM      2  C   UNL     1       3.753   3.300  17.518  0.00  0.00    +0.000 A 
ATOM      3  C   UNL     1       2.724   2.361  17.673  0.00  0.00    +0.000 A 
ATOM      4  C   UNL     1       1.618   2.654  18.452  0.00  0.00    +0.000 A 
ATOM      5  C   UNL     1       1.603   3.870  19.129  0.00  0.00    +0.000 A 
ATOM      6  C   UNL     1       2.617   4.845  18.958  0.00  0.00    +0.000 A 
ATOM      7  C   UNL     1       2.396   6.162  19.651  0.00  0.00    +0.000 C 
ENDROOT
BRANCH   1  11
ATOM      8  N   UNL     1       7.411   6.478  16.970  0.00  0.00    +0.000 NA
ATOM      9  C   UNL     1       7.315   5.583  18.147  0.00  0.00    +0.000 C 
ATOM     10  C   UNL     1       5.954   5.513  18.895  0.00  0.00    +0.000 C 
ATOM     11  N   UNL     1       4.819   5.414  17.968  0.00  0.00    +0.000 N 
ATOM     12  C   UNL     1       4.865   6.360  16.844  0.00  0.00    +0.000 C 
ATOM     13  C   UNL     1       6.222   6.247  16.113  0.00  0.00    +0.000 C 
BRANCH   8  15
ATOM     14  C   UNL     1       8.446   8.152  18.513  0.00  0.00    +0.000 C 
ATOM     15  C   UNL     1       7.553   7.900  17.302  0.00  0.00    +0.000 C 
ENDBRANCH   8  15
ENDBRANCH   1  11
BRANCH   4  16
ATOM     16  N   UNL     1       0.662   1.670  18.732  0.00  0.00    +0.000 N 
ATOM     17  H   UNL     1       0.474   1.554  19.724  0.00  0.00    +0.000 HD
ATOM     18  H   UNL     1       0.834   0.786  18.266  0.00  0.00    +0.000 HD
ENDBRANCH   4  16
TORSDOF 3
ENDMDL
MODEL 6
REMARK VINA RESULT:      -6.4      0.805      1.266
REMARK  Name = 
REMARK  5 active torsions:
REMARK  status: ('A' for Active; 'I' for Inactive)
REMARK    1  A    between atoms: C_1  and  C_2
REMARK    2  A    between atoms: C_2  and  N_3
REMARK    3  A    between atoms: N_6  and  C_7
REMARK    4  A    between atoms: C_10  and  N_11
REMARK    5  A    between atoms: C_13  and  C_14
REMARK                            x       y       z     vdW  Elec       q    Type
REMARK                         _______ _______ _______ _____ _____    ______ ____
ROOT
ATOM      1  C   UNL     1       5.008   4.329  17.179  0.00  0.00    +0.000 A 
ATOM      2  C   UNL     1       4.896   3.983  15.814  0.00  0.00    +0.000 A 
ATOM      3  C   UNL     1       5.868   4.317  14.861  0.00  0.00    +0.000 A 
ATOM      4  C   UNL     1       7.014   4.995  15.236  0.00  0.00    +0.000 A 
ATOM      5  C   UNL     1       7.128   5.396  16.564  0.00  0.00    +0.000 A 
ATOM      6  C   UNL     1       6.172   5.037  17.548  0.00  0.00    +0.000 A 
ATOM      7  C   UNL     1       6.499   5.428  18.964  0.00  0.00    +0.000 C 
ENDROOT
BRANCH   1  11
ATOM      8  N   UNL     1       1.460   4.173  19.611  0.00  0.00    +0.000 NA
ATOM      9  C   UNL     1       2.750   4.708  20.106  0.00  0.00    +0.000 C 
ATOM     10  C   UNL     1       4.057   4.121  19.504  0.00  0.00    +0.000 C 
ATOM     11  N   UNL     1       3.980   3.988  18.043  0.00  0.00    +0.000 N 
ATOM     12  C   UNL     1       2.738   3.377  17.550  0.00  0.00    +0.000 C 
ATOM     13  C   UNL     1       1.515   4.125  18.129  0.00  0.00    +0.000 C 
BRANCH   8  15
ATOM     14  C   UNL     1       1.522   2.686  21.620  0.00  0.00    +0.000 C 
ATOM     15  C   UNL     1       1.095   2.865  20.167  0.00  0.00    +0.000 C 
ENDBRANCH   8  15
ENDBRANCH   1  11
BRANCH   4  16
ATOM     16  N   UNL     1       7.915   5.463  14.271  0.00  0.00    +0.000 N 
ATOM     17  H   UNL     1       7.472   5.739  13.399  0.00  0.00    +0.000 HD
ATOM     18  H   UNL     1       8.711   4.852  14.122  0.00  0.00    +0.000 HD
ENDBRANCH   4  16
TORSDOF 3
ENDMDL
MODEL 7
REMARK VINA RESULT:      -6.2      1.489      6.003
REMARK  Name = 
REMARK  5 active torsions:
REMARK  status: ('A' for Active; 'I' for Inactive)
REMARK    1  A    between atoms: C_1  and  C_2
REMARK    2  A    between atoms: C_2  and  N_3
REMARK    3  A    between atoms: N_6  and  C_7
REMARK    4  A    between atoms: C_10  and  N_11
REMARK    5  A    between atoms: C_13  and  C_14
REMARK                            x       y       z     vdW  Elec       q    Type
REMARK                         _______ _______ _______ _____ _____    ______ ____
ROOT
ATOM      1  C   UNL     1       4.030   4.057  19.004  0.00  0.00    +0.000 A 
ATOM      2  C   UNL     1       4.033   2.738  19.512  0.00  0.00    +0.000 A 
ATOM      3  C   UNL     1       3.221   2.332  20.580  0.00  0.00    +0.000 A 
ATOM      4  C   UNL     1       2.348   3.224  21.177  0.00  0.00    +0.000 A 
ATOM      5  C   UNL     1       2.361   4.544  20.733  0.00  0.00    +0.000 A 
ATOM      6  C   UNL     1       3.149   4.964  19.632  0.00  0.00    +0.000 A 
ATOM      7  C   UNL     1       2.957   6.388  19.184  0.00  0.00    +0.000 C 
ENDROOT
BRANCH   1  11
ATOM      8  N   UNL     1       6.499   5.996  16.060  0.00  0.00    +0.000 NA
ATOM      9  C   UNL     1       5.080   5.648  15.814  0.00  0.00    +0.000 C 
ATOM     10  C   UNL     1       4.499   4.410  16.552  0.00  0.00    +0.000 C 
ATOM     11  N   UNL     1       4.892   4.377  17.967  0.00  0.00    +0.000 N 
ATOM     12  C   UNL     1       6.318   4.636  18.212  0.00  0.00    +0.000 C 
ATOM     13  C   UNL     1       6.742   5.954  17.523  0.00  0.00    +0.000 C 
BRANCH   8  15
ATOM     14  C   UNL     1       6.977   4.723  13.960  0.00  0.00    +0.000 C 
ATOM     15  C   UNL     1       7.461   5.152  15.342  0.00  0.00    +0.000 C 
ENDBRANCH   8  15
ENDBRANCH   1  11
BRANCH   4  16
ATOM     16  N   UNL     1       1.647   2.869  22.336  0.00  0.00    +0.000 N 
ATOM     17  H   UNL     1       1.241   3.662  22.826  0.00  0.00    +0.000 HD
ATOM     18  H   UNL     1       2.163   2.255  22.956  0.00  0.00    +0.000 HD
ENDBRANCH   4  16
TORSDOF 3
ENDMDL
MODEL 8
REMARK VINA RESULT:      -6.2      1.909      6.125
REMARK  Name = 
REMARK  5 active torsions:
REMARK  status: ('A' for Active; 'I' for Inactive)
REMARK    1  A    between atoms: C_1  and  C_2
REMARK    2  A    between atoms: C_2  and  N_3
REMARK    3  A    between atoms: N_6  and  C_7
REMARK    4  A    between atoms: C_10  and  N_11
REMARK    5  A    between atoms: C_13  and  C_14
REMARK                            x       y       z     vdW  Elec       q    Type
REMARK                         _______ _______ _______ _____ _____    ______ ____
ROOT
ATOM      1  C   UNL     1       3.746   4.914  18.890  0.00  0.00    +0.000 A 
ATOM      2  C   UNL     1       2.971   5.301  20.007  0.00  0.00    +0.000 A 
ATOM      3  C   UNL     1       1.854   4.578  20.446  0.00  0.00    +0.000 A 
ATOM      4  C   UNL     1       1.471   3.416  19.801  0.00  0.00    +0.000 A 
ATOM      5  C   UNL     1       2.183   3.038  18.665  0.00  0.00    +0.000 A 
ATOM      6  C   UNL     1       3.336   3.737  18.227  0.00  0.00    +0.000 A 
ATOM      7  C   UNL     1       4.076   3.132  17.065  0.00  0.00    +0.000 C 
ENDROOT
BRANCH   1  11
ATOM      8  N   UNL     1       7.156   6.703  16.967  0.00  0.00    +0.000 NA
ATOM      9  C   UNL     1       7.280   5.703  18.054  0.00  0.00    +0.000 C 
ATOM     10  C   UNL     1       6.148   5.645  19.118  0.00  0.00    +0.000 C 
ATOM     11  N   UNL     1       4.813   5.710  18.507  0.00  0.00    +0.000 N 
ATOM     12  C   UNL     1       4.658   6.758  17.488  0.00  0.00    +0.000 C 
ATOM     13  C   UNL     1       5.775   6.634  16.427  0.00  0.00    +0.000 C 
BRANCH   8  15
ATOM     14  C   UNL     1       8.499   8.138  18.514  0.00  0.00    +0.000 C 
ATOM     15  C   UNL     1       7.497   8.073  17.365  0.00  0.00    +0.000 C 
ENDBRANCH   8  15
ENDBRANCH   1  11
BRANCH   4  16
ATOM     16  N   UNL     1       0.275   2.772  20.138  0.00  0.00    +0.000 N 
ATOM     17  H   UNL     1      -0.115   2.213  19.384  0.00  0.00    +0.000 HD
ATOM     18  H   UNL     1      -0.415   3.384  20.561  0.00  0.00    +0.000 HD
ENDBRANCH   4  16
TORSDOF 3
ENDMDL
MODEL 9
REMARK VINA RESULT:      -6.2      1.428      6.111
REMARK  Name = 
REMARK  5 active torsions:
REMARK  status: ('A' for Active; 'I' for Inactive)
REMARK    1  A    between atoms: C_1  and  C_2
REMARK    2  A    between atoms: C_2  and  N_3
REMARK    3  A    between atoms: N_6  and  C_7
REMARK    4  A    between atoms: C_10  and  N_11
REMARK    5  A    between atoms: C_13  and  C_14
REMARK                            x       y       z     vdW  Elec       q    Type
REMARK                         _______ _______ _______ _____ _____    ______ ____
ROOT
ATOM      1  C   UNL     1       3.940   4.090  19.117  0.00  0.00    +0.000 A 
ATOM      2  C   UNL     1       4.060   2.817  19.717  0.00  0.00    +0.000 A 
ATOM      3  C   UNL     1       3.217   2.378  20.747  0.00  0.00    +0.000 A 
ATOM      4  C   UNL     1       2.195   3.187  21.212  0.00  0.00    +0.000 A 
ATOM      5  C   UNL     1       2.085   4.468  20.676  0.00  0.00    +0.000 A 
ATOM      6  C   UNL     1       2.906   4.915  19.611  0.00  0.00    +0.000 A 
ATOM      7  C   UNL     1       2.580   6.273  19.049  0.00  0.00    +0.000 C 
ENDROOT
BRANCH   1  11
ATOM      8  N   UNL     1       7.071   4.277  16.170  0.00  0.00    +0.000 NA
ATOM      9  C   UNL     1       7.281   4.648  17.589  0.00  0.00    +0.000 C 
ATOM     10  C   UNL     1       6.068   5.220  18.376  0.00  0.00    +0.000 C 
ATOM     11  N   UNL     1       4.840   4.453  18.128  0.00  0.00    +0.000 N 
ATOM     12  C   UNL     1       4.580   4.156  16.712  0.00  0.00    +0.000 C 
ATOM     13  C   UNL     1       5.820   3.485  16.077  0.00  0.00    +0.000 C 
BRANCH   8  15
ATOM     14  C   UNL     1       7.007   5.003  13.777  0.00  0.00    +0.000 C 
ATOM     15  C   UNL     1       7.043   5.416  15.246  0.00  0.00    +0.000 C 
ENDBRANCH   8  15
ENDBRANCH   1  11
BRANCH   4  16
ATOM     16  N   UNL     1       1.448   2.819  22.337  0.00  0.00    +0.000 N 
ATOM     17  H   UNL     1       0.467   2.646  22.136  0.00  0.00    +0.000 HD
ATOM     18  H   UNL     1       1.577   3.432  23.134  0.00  0.00    +0.000 HD
ENDBRANCH   4  16
TORSDOF 3
ENDMDL
