MODEL 1
REMARK VINA RESULT:      -8.3      0.000      0.000
REMARK  Name = 
REMARK  7 active torsions:
REMARK  status: ('A' for Active; 'I' for Inactive)
REMARK    1  A    between atoms: O_1  and  C_2
REMARK    2  A    between atoms: C_2  and  C_3
REMARK    3  A    between atoms: C_3  and  C_4
REMARK    4  A    between atoms: N_12  and  C_13
REMARK    5  A    between atoms: C_13  and  C_14
REMARK    6  A    between atoms: C_18  and  C_19
REMARK    7  A    between atoms: N_25  and  C_26
REMARK                            x       y       z     vdW  Elec       q    Type
REMARK                         _______ _______ _______ _____ _____    ______ ____
ROOT
ATOM      1  C   UNL     1       0.808  13.067  19.695  0.00  0.00    +0.000 A 
ATOM      2  C   UNL     1      -0.191  13.188  18.721  0.00  0.00    +0.000 A 
ATOM      3  C   UNL     1      -0.815  12.049  18.207  0.00  0.00    +0.000 A 
ATOM      4  C   UNL     1      -0.429  10.776  18.637  0.00  0.00    +0.000 A 
ATOM      5  C   UNL     1       0.562  10.632  19.613  0.00  0.00    +0.000 A 
ATOM      6  C   UNL     1       1.132  11.789  20.167  0.00  0.00    +0.000 A 
ENDROOT
BRANCH   5   7
ATOM      7  C   UNL     1       1.077   9.326  20.004  0.00  0.00    +0.000 A 
ATOM      8  C   UNL     1       0.909   8.737  21.246  0.00  0.00    +0.000 A 
ATOM      9  N   UNL     1       1.550   7.518  21.235  0.00  0.00    +0.000 N 
ATOM     10  C   UNL     1       2.116   7.303  20.005  0.00  0.00    +0.000 A 
ATOM     11  N   UNL     1       2.828   6.221  19.651  0.00  0.00    +0.000 NA
ATOM     12  C   UNL     1       3.237   6.258  18.370  0.00  0.00    +0.000 A 
ATOM     13  N   UNL     1       4.026   5.195  17.951  0.00  0.00    +0.000 N 
ATOM     14  N   UNL     1       2.969   7.244  17.492  0.00  0.00    +0.000 NA
ATOM     15  C   UNL     1       2.257   8.315  17.897  0.00  0.00    +0.000 A 
ATOM     16  C   UNL     1       1.810   8.390  19.207  0.00  0.00    +0.000 A 
ATOM     17  H   UNL     1       1.605   6.862  21.998  0.00  0.00    +0.000 HD
ATOM     18  H   UNL     1       4.395   4.753  18.784  0.00  0.00    +0.000 HD
BRANCH  13  19
ATOM     19  C   UNL     1       4.971   5.481  16.883  0.00  0.00    +0.000 C 
ATOM     20  C   UNL     1       6.418   5.569  17.369  0.00  0.00    +0.000 C 
ATOM     21  C   UNL     1       7.244   5.309  16.118  0.00  0.00    +0.000 C 
ATOM     22  C   UNL     1       6.401   4.383  15.248  0.00  0.00    +0.000 C 
ATOM     23  C   UNL     1       5.017   4.320  15.889  0.00  0.00    +0.000 C 
ENDBRANCH  13  19
ENDBRANCH   5   7
BRANCH   1  24
ATOM     24  C   UNL     1       1.545  14.283  20.216  0.00  0.00    +0.000 C 
BRANCH  24  28
ATOM     25  C   UNL     1       5.324  16.077  18.981  0.00  0.00    +0.000 C 
ATOM     26  C   UNL     1       4.268  15.676  17.934  0.00  0.00    +0.000 C 
ATOM     27  C   UNL     1       2.873  15.487  18.546  0.00  0.00    +0.000 C 
ATOM     28  N   UNL     1       2.891  14.481  19.623  0.00  0.00    +0.000 NA
ATOM     29  C   UNL     1       3.813  14.923  20.686  0.00  0.00    +0.000 C 
ATOM     30  C   UNL     1       5.241  15.117  20.174  0.00  0.00    +0.000 C 
BRANCH  25  31
ATOM     31  O   UNL     1       5.005  17.405  19.431  0.00  0.00    +0.000 OA
ATOM     32  H   UNL     1       4.962  17.390  20.400  0.00  0.00    +0.000 HD
ENDBRANCH  25  31
BRANCH  25  33
ATOM     33  C   UNL     1       6.737  16.072  18.334  0.00  0.00    +0.000 C 
BRANCH  33  34
ATOM     34  C   UNL     1       7.486  14.754  18.352  0.00  0.00    +0.000 A 
ATOM     35  C   UNL     1       7.223  13.768  17.388  0.00  0.00    +0.000 A 
ATOM     36  C   UNL     1       7.927  12.562  17.387  0.00  0.00    +0.000 A 
ATOM     37  C   UNL     1       8.914  12.330  18.342  0.00  0.00    +0.000 A 
ATOM     38  C   UNL     1       9.187  13.299  19.304  0.00  0.00    +0.000 A 
ATOM     39  C   UNL     1       8.473  14.501  19.314  0.00  0.00    +0.000 A 
ENDBRANCH  33  34
ENDBRANCH  25  33
ENDBRANCH  24  28
ENDBRANCH   1  24
TORSDOF 7
ENDMDL
MODEL 2
REMARK VINA RESULT:      -8.3      5.057     10.260
REMARK  Name = 
REMARK  7 active torsions:
REMARK  status: ('A' for Active; 'I' for Inactive)
REMARK    1  A    between atoms: O_1  and  C_2
REMARK    2  A    between atoms: C_2  and  C_3
REMARK    3  A    between atoms: C_3  and  C_4
REMARK    4  A    between atoms: N_12  and  C_13
REMARK    5  A    between atoms: C_13  and  C_14
REMARK    6  A    between atoms: C_18  and  C_19
REMARK    7  A    between atoms: N_25  and  C_26
REMARK                            x       y       z     vdW  Elec       q    Type
REMARK                         _______ _______ _______ _____ _____    ______ ____
ROOT
ATOM      1  C   UNL     1       3.685   5.527  19.656  0.00  0.00    +0.000 A 
ATOM      2  C   UNL     1       2.842   4.775  20.483  0.00  0.00    +0.000 A 
ATOM      3  C   UNL     1       1.575   5.255  20.820  0.00  0.00    +0.000 A 
ATOM      4  C   UNL     1       1.146   6.503  20.360  0.00  0.00    +0.000 A 
ATOM      5  C   UNL     1       1.969   7.269  19.528  0.00  0.00    +0.000 A 
ATOM      6  C   UNL     1       3.213   6.742  19.145  0.00  0.00    +0.000 A 
ENDROOT
BRANCH   5   7
ATOM      7  C   UNL     1       1.613   8.623  19.122  0.00  0.00    +0.000 A 
ATOM      8  C   UNL     1       1.972   9.222  17.926  0.00  0.00    +0.000 A 
ATOM      9  N   UNL     1       1.464  10.502  17.915  0.00  0.00    +0.000 N 
ATOM     10  C   UNL     1       0.772  10.736  19.076  0.00  0.00    +0.000 A 
ATOM     11  N   UNL     1       0.159  11.885  19.402  0.00  0.00    +0.000 NA
ATOM     12  C   UNL     1      -0.473  11.824  20.589  0.00  0.00    +0.000 A 
ATOM     13  N   UNL     1      -1.083  12.996  21.015  0.00  0.00    +0.000 N 
ATOM     14  N   UNL     1      -0.530  10.742  21.390  0.00  0.00    +0.000 NA
ATOM     15  C   UNL     1       0.109   9.613  21.023  0.00  0.00    +0.000 A 
ATOM     16  C   UNL     1       0.815   9.576  19.830  0.00  0.00    +0.000 A 
ATOM     17  H   UNL     1       1.565  11.182  17.179  0.00  0.00    +0.000 HD
ATOM     18  H   UNL     1      -0.668  13.755  20.489  0.00  0.00    +0.000 HD
BRANCH  13  19
ATOM     19  C   UNL     1      -1.192  13.173  22.455  0.00  0.00    +0.000 C 
ATOM     20  C   UNL     1      -0.643  14.516  22.937  0.00  0.00    +0.000 C 
ATOM     21  C   UNL     1      -1.330  14.737  24.277  0.00  0.00    +0.000 C 
ATOM     22  C   UNL     1      -2.686  14.046  24.167  0.00  0.00    +0.000 C 
ATOM     23  C   UNL     1      -2.661  13.238  22.872  0.00  0.00    +0.000 C 
ENDBRANCH  13  19
ENDBRANCH   5   7
BRANCH   1  24
ATOM     24  C   UNL     1       5.089   5.058  19.335  0.00  0.00    +0.000 C 
BRANCH  24  28
ATOM     25  C   UNL     1       6.219   4.260  15.199  0.00  0.00    +0.000 C 
ATOM     26  C   UNL     1       7.225   4.896  16.176  0.00  0.00    +0.000 C 
ATOM     27  C   UNL     1       6.825   4.696  17.645  0.00  0.00    +0.000 C 
ATOM     28  N   UNL     1       5.482   5.237  17.915  0.00  0.00    +0.000 NA
ATOM     29  C   UNL     1       4.498   4.543  17.064  0.00  0.00    +0.000 C 
ATOM     30  C   UNL     1       4.801   4.705  15.573  0.00  0.00    +0.000 C 
BRANCH  25  31
ATOM     31  O   UNL     1       6.313   2.833  15.349  0.00  0.00    +0.000 OA
ATOM     32  H   UNL     1       6.833   2.487  14.605  0.00  0.00    +0.000 HD
ENDBRANCH  25  31
BRANCH  25  33
ATOM     33  C   UNL     1       6.582   4.653  13.739  0.00  0.00    +0.000 C 
BRANCH  33  34
ATOM     34  C   UNL     1       6.368   3.590  12.679  0.00  0.00    +0.000 A 
ATOM     35  C   UNL     1       5.074   3.264  12.243  0.00  0.00    +0.000 A 
ATOM     36  C   UNL     1       4.874   2.303  11.250  0.00  0.00    +0.000 A 
ATOM     37  C   UNL     1       5.966   1.664  10.668  0.00  0.00    +0.000 A 
ATOM     38  C   UNL     1       7.256   1.977  11.089  0.00  0.00    +0.000 A 
ATOM     39  C   UNL     1       7.456   2.930  12.093  0.00  0.00    +0.000 A 
ENDBRANCH  33  34
ENDBRANCH  25  33
ENDBRANCH  24  28
ENDBRANCH   1  24
TORSDOF 7
ENDMDL
MODEL 3
REMARK VINA RESULT:      -8.3      5.109     10.091
REMARK  Name = 
REMARK  7 active torsions:
REMARK  status: ('A' for Active; 'I' for Inactive)
REMARK    1  A    between atoms: O_1  and  C_2
REMARK    2  A    between atoms: C_2  and  C_3
REMARK    3  A    between atoms: C_3  and  C_4
REMARK    4  A    between atoms: N_12  and  C_13
REMARK    5  A    between atoms: C_13  and  C_14
REMARK    6  A    between atoms: C_18  and  C_19
REMARK    7  A    between atoms: N_25  and  C_26
REMARK                            x       y       z     vdW  Elec       q    Type
REMARK                         _______ _______ _______ _____ _____    ______ ____
ROOT
ATOM      1  C   UNL     1       2.088   7.758  19.323  0.00  0.00    +0.000 A 
ATOM      2  C   UNL     1       2.088   8.457  18.111  0.00  0.00    +0.000 A 
ATOM      3  C   UNL     1       1.442   9.692  18.010  0.00  0.00    +0.000 A 
ATOM      4  C   UNL     1       0.766  10.228  19.110  0.00  0.00    +0.000 A 
ATOM      5  C   UNL     1       0.758   9.548  20.333  0.00  0.00    +0.000 A 
ATOM      6  C   UNL     1       1.468   8.342  20.434  0.00  0.00    +0.000 A 
ENDROOT
BRANCH   5   7
ATOM      7  C   UNL     1      -0.030  10.010  21.468  0.00  0.00    +0.000 A 
ATOM      8  C   UNL     1      -0.158   9.348  22.678  0.00  0.00    +0.000 A 
ATOM      9  N   UNL     1      -0.992  10.086  23.487  0.00  0.00    +0.000 N 
ATOM     10  C   UNL     1      -1.394  11.219  22.829  0.00  0.00    +0.000 A 
ATOM     11  N   UNL     1      -2.221  12.156  23.319  0.00  0.00    +0.000 NA
ATOM     12  C   UNL     1      -2.418  13.180  22.468  0.00  0.00    +0.000 A 
ATOM     13  N   UNL     1      -3.307  14.159  22.888  0.00  0.00    +0.000 N 
ATOM     14  N   UNL     1      -1.852  13.305  21.252  0.00  0.00    +0.000 NA
ATOM     15  C   UNL     1      -1.034  12.334  20.799  0.00  0.00    +0.000 A 
ATOM     16  C   UNL     1      -0.785  11.220  21.587  0.00  0.00    +0.000 A 
ATOM     17  H   UNL     1      -1.276   9.856  24.426  0.00  0.00    +0.000 HD
ATOM     18  H   UNL     1      -3.870  13.753  23.626  0.00  0.00    +0.000 HD
BRANCH  13  19
ATOM     19  C   UNL     1      -4.014  14.875  21.838  0.00  0.00    +0.000 C 
ATOM     20  C   UNL     1      -5.531  14.692  21.903  0.00  0.00    +0.000 C 
ATOM     21  C   UNL     1      -6.081  15.893  21.146  0.00  0.00    +0.000 C 
ATOM     22  C   UNL     1      -5.070  17.016  21.357  0.00  0.00    +0.000 C 
ATOM     23  C   UNL     1      -3.847  16.384  22.018  0.00  0.00    +0.000 C 
ENDBRANCH  13  19
ENDBRANCH   5   7
BRANCH   1  24
ATOM     24  C   UNL     1       2.723   6.386  19.436  0.00  0.00    +0.000 C 
BRANCH  24  28
ATOM     25  C   UNL     1       5.916   4.662  17.017  0.00  0.00    +0.000 C 
ATOM     26  C   UNL     1       6.192   5.133  18.457  0.00  0.00    +0.000 C 
ATOM     27  C   UNL     1       4.907   5.288  19.283  0.00  0.00    +0.000 C 
ATOM     28  N   UNL     1       3.965   6.222  18.641  0.00  0.00    +0.000 NA
ATOM     29  C   UNL     1       3.605   5.710  17.306  0.00  0.00    +0.000 C 
ATOM     30  C   UNL     1       4.824   5.543  16.398  0.00  0.00    +0.000 C 
BRANCH  25  31
ATOM     31  O   UNL     1       5.435   3.309  17.089  0.00  0.00    +0.000 OA
ATOM     32  H   UNL     1       4.703   3.217  16.458  0.00  0.00    +0.000 HD
ENDBRANCH  25  31
BRANCH  25  33
ATOM     33  C   UNL     1       7.231   4.702  16.188  0.00  0.00    +0.000 C 
BRANCH  33  34
ATOM     34  C   UNL     1       7.089   4.537  14.687  0.00  0.00    +0.000 A 
ATOM     35  C   UNL     1       6.189   3.602  14.152  0.00  0.00    +0.000 A 
ATOM     36  C   UNL     1       6.038   3.464  12.771  0.00  0.00    +0.000 A 
ATOM     37  C   UNL     1       6.774   4.268  11.905  0.00  0.00    +0.000 A 
ATOM     38  C   UNL     1       7.671   5.200  12.420  0.00  0.00    +0.000 A 
ATOM     39  C   UNL     1       7.833   5.330  13.803  0.00  0.00    +0.000 A 
ENDBRANCH  33  34
ENDBRANCH  25  33
ENDBRANCH  24  28
ENDBRANCH   1  24
TORSDOF 7
ENDMDL
MODEL 4
REMARK VINA RESULT:      -8.3      4.917      8.331
REMARK  Name = 
REMARK  7 active torsions:
REMARK  status: ('A' for Active; 'I' for Inactive)
REMARK    1  A    between atoms: O_1  and  C_2
REMARK    2  A    between atoms: C_2  and  C_3
REMARK    3  A    between atoms: C_3  and  C_4
REMARK    4  A    between atoms: N_12  and  C_13
REMARK    5  A    between atoms: C_13  and  C_14
REMARK    6  A    between atoms: C_18  and  C_19
REMARK    7  A    between atoms: N_25  and  C_26
REMARK                            x       y       z     vdW  Elec       q    Type
REMARK                         _______ _______ _______ _____ _____    ______ ____
ROOT
ATOM      1  C   UNL     1      -0.813  12.306  22.387  0.00  0.00    +0.000 A 
ATOM      2  C   UNL     1      -1.280  11.378  23.325  0.00  0.00    +0.000 A 
ATOM      3  C   UNL     1      -1.019  10.016  23.159  0.00  0.00    +0.000 A 
ATOM      4  C   UNL     1      -0.315   9.562  22.040  0.00  0.00    +0.000 A 
ATOM      5  C   UNL     1       0.166  10.472  21.093  0.00  0.00    +0.000 A 
ATOM      6  C   UNL     1      -0.048  11.843  21.310  0.00  0.00    +0.000 A 
ENDROOT
BRANCH   5   7
ATOM      7  C   UNL     1       0.800  10.037  19.854  0.00  0.00    +0.000 A 
ATOM      8  C   UNL     1       0.871  10.777  18.687  0.00  0.00    +0.000 A 
ATOM      9  N   UNL     1       1.530  10.026  17.739  0.00  0.00    +0.000 N 
ATOM     10  C   UNL     1       1.898   8.820  18.278  0.00  0.00    +0.000 A 
ATOM     11  N   UNL     1       2.545   7.839  17.628  0.00  0.00    +0.000 NA
ATOM     12  C   UNL     1       2.809   6.777  18.411  0.00  0.00    +0.000 A 
ATOM     13  N   UNL     1       3.429   5.701  17.790  0.00  0.00    +0.000 N 
ATOM     14  N   UNL     1       2.495   6.670  19.716  0.00  0.00    +0.000 NA
ATOM     15  C   UNL     1       1.836   7.678  20.323  0.00  0.00    +0.000 A 
ATOM     16  C   UNL     1       1.491   8.810  19.600  0.00  0.00    +0.000 A 
ATOM     17  H   UNL     1       1.730  10.297  16.790  0.00  0.00    +0.000 HD
ATOM     18  H   UNL     1       3.283   5.809  16.793  0.00  0.00    +0.000 HD
BRANCH  13  19
ATOM     19  C   UNL     1       3.157   4.390  18.358  0.00  0.00    +0.000 C 
ATOM     20  C   UNL     1       1.760   3.868  18.022  0.00  0.00    +0.000 C 
ATOM     21  C   UNL     1       1.878   2.360  18.195  0.00  0.00    +0.000 C 
ATOM     22  C   UNL     1       3.323   2.014  17.854  0.00  0.00    +0.000 C 
ATOM     23  C   UNL     1       4.073   3.339  17.730  0.00  0.00    +0.000 C 
ENDBRANCH  13  19
ENDBRANCH   5   7
BRANCH   1  24
ATOM     24  C   UNL     1      -1.143  13.779  22.511  0.00  0.00    +0.000 C 
BRANCH  24  28
ATOM     25  C   UNL     1      -5.404  13.627  21.595  0.00  0.00    +0.000 C 
ATOM     26  C   UNL     1      -4.360  13.659  20.463  0.00  0.00    +0.000 C 
ATOM     27  C   UNL     1      -2.956  13.269  20.946  0.00  0.00    +0.000 C 
ATOM     28  N   UNL     1      -2.503  14.141  22.043  0.00  0.00    +0.000 NA
ATOM     29  C   UNL     1      -3.438  14.021  23.178  0.00  0.00    +0.000 C 
ATOM     30  C   UNL     1      -4.867  14.413  22.798  0.00  0.00    +0.000 C 
BRANCH  25  31
ATOM     31  O   UNL     1      -5.584  12.254  21.980  0.00  0.00    +0.000 OA
ATOM     32  H   UNL     1      -4.744  11.934  22.348  0.00  0.00    +0.000 HD
ENDBRANCH  25  31
BRANCH  25  33
ATOM     33  C   UNL     1      -6.754  14.205  21.084  0.00  0.00    +0.000 C 
BRANCH  33  34
ATOM     34  C   UNL     1      -6.972  14.187  19.583  0.00  0.00    +0.000 A 
ATOM     35  C   UNL     1      -7.279  12.989  18.919  0.00  0.00    +0.000 A 
ATOM     36  C   UNL     1      -7.504  12.972  17.541  0.00  0.00    +0.000 A 
ATOM     37  C   UNL     1      -7.440  14.155  16.809  0.00  0.00    +0.000 A 
ATOM     38  C   UNL     1      -7.138  15.352  17.454  0.00  0.00    +0.000 A 
ATOM     39  C   UNL     1      -6.898  15.367  18.832  0.00  0.00    +0.000 A 
ENDBRANCH  33  34
ENDBRANCH  25  33
ENDBRANCH  24  28
ENDBRANCH   1  24
TORSDOF 7
ENDMDL
MODEL 5
REMARK VINA RESULT:      -8.2      1.296      1.902
REMARK  Name = 
REMARK  7 active torsions:
REMARK  status: ('A' for Active; 'I' for Inactive)
REMARK    1  A    between atoms: O_1  and  C_2
REMARK    2  A    between atoms: C_2  and  C_3
REMARK    3  A    between atoms: C_3  and  C_4
REMARK    4  A    between atoms: N_12  and  C_13
REMARK    5  A    between atoms: C_13  and  C_14
REMARK    6  A    between atoms: C_18  and  C_19
REMARK    7  A    between atoms: N_25  and  C_26
REMARK                            x       y       z     vdW  Elec       q    Type
REMARK                         _______ _______ _______ _____ _____    ______ ____
ROOT
ATOM      1  C   UNL     1       1.947  14.195  19.795  0.00  0.00    +0.000 A 
ATOM      2  C   UNL     1       1.023  14.564  18.810  0.00  0.00    +0.000 A 
ATOM      3  C   UNL     1       0.008  13.684  18.431  0.00  0.00    +0.000 A 
ATOM      4  C   UNL     1      -0.080  12.414  19.009  0.00  0.00    +0.000 A 
ATOM      5  C   UNL     1       0.829  12.026  19.999  0.00  0.00    +0.000 A 
ATOM      6  C   UNL     1       1.803  12.948  20.415  0.00  0.00    +0.000 A 
ENDROOT
BRANCH   5   7
ATOM      7  C   UNL     1       0.849  10.674  20.544  0.00  0.00    +0.000 A 
ATOM      8  C   UNL     1       0.319  10.294  21.765  0.00  0.00    +0.000 A 
ATOM      9  N   UNL     1       0.545   8.946  21.932  0.00  0.00    +0.000 N 
ATOM     10  C   UNL     1       1.197   8.446  20.834  0.00  0.00    +0.000 A 
ATOM     11  N   UNL     1       1.584   7.171  20.669  0.00  0.00    +0.000 NA
ATOM     12  C   UNL     1       2.175   6.952  19.480  0.00  0.00    +0.000 A 
ATOM     13  N   UNL     1       2.650   5.665  19.264  0.00  0.00    +0.000 N 
ATOM     14  N   UNL     1       2.362   7.876  18.518  0.00  0.00    +0.000 NA
ATOM     15  C   UNL     1       1.964   9.146  18.734  0.00  0.00    +0.000 A 
ATOM     16  C   UNL     1       1.368   9.486  19.939  0.00  0.00    +0.000 A 
ATOM     17  H   UNL     1       0.277   8.386  22.725  0.00  0.00    +0.000 HD
ATOM     18  H   UNL     1       2.732   5.222  20.171  0.00  0.00    +0.000 HD
BRANCH  13  19
ATOM     19  C   UNL     1       3.788   5.546  18.366  0.00  0.00    +0.000 C 
ATOM     20  C   UNL     1       5.071   5.117  19.077  0.00  0.00    +0.000 C 
ATOM     21  C   UNL     1       5.929   4.526  17.968  0.00  0.00    +0.000 C 
ATOM     22  C   UNL     1       4.952   3.940  16.954  0.00  0.00    +0.000 C 
ATOM     23  C   UNL     1       3.559   4.412  17.366  0.00  0.00    +0.000 C 
ENDBRANCH  13  19
ENDBRANCH   5   7
BRANCH   1  24
ATOM     24  C   UNL     1       3.097  15.107  20.172  0.00  0.00    +0.000 C 
BRANCH  24  28
ATOM     25  C   UNL     1       7.153  15.131  18.570  0.00  0.00    +0.000 C 
ATOM     26  C   UNL     1       5.981  14.600  17.724  0.00  0.00    +0.000 C 
ATOM     27  C   UNL     1       4.616  15.067  18.250  0.00  0.00    +0.000 C 
ATOM     28  N   UNL     1       4.417  14.669  19.655  0.00  0.00    +0.000 NA
ATOM     29  C   UNL     1       5.473  15.276  20.487  0.00  0.00    +0.000 C 
ATOM     30  C   UNL     1       6.875  14.849  20.051  0.00  0.00    +0.000 C 
BRANCH  25  31
ATOM     31  O   UNL     1       7.221  16.553  18.373  0.00  0.00    +0.000 OA
ATOM     32  H   UNL     1       6.918  16.745  17.470  0.00  0.00    +0.000 HD
ENDBRANCH  25  31
BRANCH  25  33
ATOM     33  C   UNL     1       8.482  14.477  18.097  0.00  0.00    +0.000 C 
BRANCH  33  34
ATOM     34  C   UNL     1       8.769  13.079  18.610  0.00  0.00    +0.000 A 
ATOM     35  C   UNL     1       8.573  11.960  17.784  0.00  0.00    +0.000 A 
ATOM     36  C   UNL     1       8.859  10.673  18.244  0.00  0.00    +0.000 A 
ATOM     37  C   UNL     1       9.357  10.487  19.531  0.00  0.00    +0.000 A 
ATOM     38  C   UNL     1       9.557  11.587  20.361  0.00  0.00    +0.000 A 
ATOM     39  C   UNL     1       9.258  12.875  19.906  0.00  0.00    +0.000 A 
ENDBRANCH  33  34
ENDBRANCH  25  33
ENDBRANCH  24  28
ENDBRANCH   1  24
TORSDOF 7
ENDMDL
MODEL 6
REMARK VINA RESULT:      -8.1      4.848     10.119
REMARK  Name = 
REMARK  7 active torsions:
REMARK  status: ('A' for Active; 'I' for Inactive)
REMARK    1  A    between atoms: O_1  and  C_2
REMARK    2  A    between atoms: C_2  and  C_3
REMARK    3  A    between atoms: C_3  and  C_4
REMARK    4  A    between atoms: N_12  and  C_13
REMARK    5  A    between atoms: C_13  and  C_14
REMARK    6  A    between atoms: C_18  and  C_19
REMARK    7  A    between atoms: N_25  and  C_26
REMARK                            x       y       z     vdW  Elec       q    Type
REMARK                         _______ _______ _______ _____ _____    ______ ____
ROOT
ATOM      1  C   UNL     1       3.697   5.067  19.202  0.00  0.00    +0.000 A 
ATOM      2  C   UNL     1       3.018   4.471  20.270  0.00  0.00    +0.000 A 
ATOM      3  C   UNL     1       1.932   5.117  20.863  0.00  0.00    +0.000 A 
ATOM      4  C   UNL     1       1.530   6.379  20.417  0.00  0.00    +0.000 A 
ATOM      5  C   UNL     1       2.191   6.992  19.347  0.00  0.00    +0.000 A 
ATOM      6  C   UNL     1       3.237   6.299  18.719  0.00  0.00    +0.000 A 
ENDROOT
BRANCH   5   7
ATOM      7  C   UNL     1       1.883   8.353  18.926  0.00  0.00    +0.000 A 
ATOM      8  C   UNL     1       2.310   8.944  17.748  0.00  0.00    +0.000 A 
ATOM      9  N   UNL     1       1.831  10.235  17.715  0.00  0.00    +0.000 N 
ATOM     10  C   UNL     1       1.092  10.484  18.843  0.00  0.00    +0.000 A 
ATOM     11  N   UNL     1       0.490  11.646  19.142  0.00  0.00    +0.000 NA
ATOM     12  C   UNL     1      -0.197  11.599  20.298  0.00  0.00    +0.000 A 
ATOM     13  N   UNL     1      -0.800  12.785  20.696  0.00  0.00    +0.000 N 
ATOM     14  N   UNL     1      -0.314  10.520  21.094  0.00  0.00    +0.000 NA
ATOM     15  C   UNL     1       0.316   9.376  20.757  0.00  0.00    +0.000 A 
ATOM     16  C   UNL     1       1.075   9.324  19.597  0.00  0.00    +0.000 A 
ATOM     17  H   UNL     1       1.980  10.912  16.985  0.00  0.00    +0.000 HD
ATOM     18  H   UNL     1      -0.345  13.535  20.190  0.00  0.00    +0.000 HD
BRANCH  13  19
ATOM     19  C   UNL     1      -0.971  12.965  22.129  0.00  0.00    +0.000 C 
ATOM     20  C   UNL     1      -0.496  14.332  22.623  0.00  0.00    +0.000 C 
ATOM     21  C   UNL     1      -1.241  14.532  23.934  0.00  0.00    +0.000 C 
ATOM     22  C   UNL     1      -2.563  13.786  23.778  0.00  0.00    +0.000 C 
ATOM     23  C   UNL     1      -2.457  12.973  22.491  0.00  0.00    +0.000 C 
ENDBRANCH  13  19
ENDBRANCH   5   7
BRANCH   1  24
ATOM     24  C   UNL     1       4.920   4.416  18.588  0.00  0.00    +0.000 C 
BRANCH  24  28
ATOM     25  C   UNL     1       6.421   5.106  14.552  0.00  0.00    +0.000 C 
ATOM     26  C   UNL     1       5.374   6.051  15.171  0.00  0.00    +0.000 C 
ATOM     27  C   UNL     1       5.299   5.928  16.699  0.00  0.00    +0.000 C 
ATOM     28  N   UNL     1       5.004   4.545  17.113  0.00  0.00    +0.000 NA
ATOM     29  C   UNL     1       6.072   3.653  16.623  0.00  0.00    +0.000 C 
ATOM     30  C   UNL     1       6.208   3.690  15.100  0.00  0.00    +0.000 C 
BRANCH  25  31
ATOM     31  O   UNL     1       7.719   5.572  14.960  0.00  0.00    +0.000 OA
ATOM     32  H   UNL     1       8.387   5.044  14.494  0.00  0.00    +0.000 HD
ENDBRANCH  25  31
BRANCH  25  33
ATOM     33  C   UNL     1       6.318   5.148  13.002  0.00  0.00    +0.000 C 
BRANCH  33  34
ATOM     34  C   UNL     1       6.267   3.809  12.291  0.00  0.00    +0.000 A 
ATOM     35  C   UNL     1       5.036   3.196  12.010  0.00  0.00    +0.000 A 
ATOM     36  C   UNL     1       4.983   1.974  11.334  0.00  0.00    +0.000 A 
ATOM     37  C   UNL     1       6.159   1.356  10.917  0.00  0.00    +0.000 A 
ATOM     38  C   UNL     1       7.388   1.953  11.188  0.00  0.00    +0.000 A 
ATOM     39  C   UNL     1       7.443   3.169  11.877  0.00  0.00    +0.000 A 
ENDBRANCH  33  34
ENDBRANCH  25  33
ENDBRANCH  24  28
ENDBRANCH   1  24
TORSDOF 7
ENDMDL
MODEL 7
REMARK VINA RESULT:      -8.1      4.838      9.977
REMARK  Name = 
REMARK  7 active torsions:
REMARK  status: ('A' for Active; 'I' for Inactive)
REMARK    1  A    between atoms: O_1  and  C_2
REMARK    2  A    between atoms: C_2  and  C_3
REMARK    3  A    between atoms: C_3  and  C_4
REMARK    4  A    between atoms: N_12  and  C_13
REMARK    5  A    between atoms: C_13  and  C_14
REMARK    6  A    between atoms: C_18  and  C_19
REMARK    7  A    between atoms: N_25  and  C_26
REMARK                            x       y       z     vdW  Elec       q    Type
REMARK                         _______ _______ _______ _____ _____    ______ ____
ROOT
ATOM      1  C   UNL     1       4.236   5.099  19.428  0.00  0.00    +0.000 A 
ATOM      2  C   UNL     1       3.307   4.231  20.015  0.00  0.00    +0.000 A 
ATOM      3  C   UNL     1       1.965   4.603  20.120  0.00  0.00    +0.000 A 
ATOM      4  C   UNL     1       1.540   5.855  19.668  0.00  0.00    +0.000 A 
ATOM      5  C   UNL     1       2.450   6.736  19.073  0.00  0.00    +0.000 A 
ATOM      6  C   UNL     1       3.781   6.320  18.915  0.00  0.00    +0.000 A 
ENDROOT
BRANCH   5   7
ATOM      7  C   UNL     1       2.078   8.094  18.696  0.00  0.00    +0.000 A 
ATOM      8  C   UNL     1       2.485   8.746  17.544  0.00  0.00    +0.000 A 
ATOM      9  N   UNL     1       1.941  10.011  17.550  0.00  0.00    +0.000 N 
ATOM     10  C   UNL     1       1.179  10.183  18.677  0.00  0.00    +0.000 A 
ATOM     11  N   UNL     1       0.516  11.302  19.009  0.00  0.00    +0.000 NA
ATOM     12  C   UNL     1      -0.179  11.180  20.155  0.00  0.00    +0.000 A 
ATOM     13  N   UNL     1      -0.846  12.318  20.587  0.00  0.00    +0.000 N 
ATOM     14  N   UNL     1      -0.249  10.069  20.912  0.00  0.00    +0.000 NA
ATOM     15  C   UNL     1       0.442   8.971  20.543  0.00  0.00    +0.000 A 
ATOM     16  C   UNL     1       1.214   8.998  19.391  0.00  0.00    +0.000 A 
ATOM     17  H   UNL     1       2.063  10.721  16.846  0.00  0.00    +0.000 HD
ATOM     18  H   UNL     1      -0.425  13.108  20.112  0.00  0.00    +0.000 HD
BRANCH  13  19
ATOM     19  C   UNL     1      -1.040  12.440  22.023  0.00  0.00    +0.000 C 
ATOM     20  C   UNL     1      -0.628  13.806  22.571  0.00  0.00    +0.000 C 
ATOM     21  C   UNL     1      -1.396  13.927  23.879  0.00  0.00    +0.000 C 
ATOM     22  C   UNL     1      -2.683  13.134  23.680  0.00  0.00    +0.000 C 
ATOM     23  C   UNL     1      -2.529  12.372  22.366  0.00  0.00    +0.000 C 
ENDBRANCH  13  19
ENDBRANCH   5   7
BRANCH   1  24
ATOM     24  C   UNL     1       5.708   4.745  19.366  0.00  0.00    +0.000 C 
BRANCH  24  28
ATOM     25  C   UNL     1       6.441   4.980  15.073  0.00  0.00    +0.000 C 
ATOM     26  C   UNL     1       5.651   3.800  15.669  0.00  0.00    +0.000 C 
ATOM     27  C   UNL     1       5.118   4.099  17.078  0.00  0.00    +0.000 C 
ATOM     28  N   UNL     1       6.210   4.463  17.999  0.00  0.00    +0.000 NA
ATOM     29  C   UNL     1       6.893   5.667  17.491  0.00  0.00    +0.000 C 
ATOM     30  C   UNL     1       7.480   5.458  16.094  0.00  0.00    +0.000 C 
BRANCH  25  31
ATOM     31  O   UNL     1       5.507   6.045  14.827  0.00  0.00    +0.000 OA
ATOM     32  H   UNL     1       4.748   5.673  14.350  0.00  0.00    +0.000 HD
ENDBRANCH  25  31
BRANCH  25  33
ATOM     33  C   UNL     1       7.102   4.549  13.734  0.00  0.00    +0.000 C 
BRANCH  33  34
ATOM     34  C   UNL     1       6.235   3.752  12.777  0.00  0.00    +0.000 A 
ATOM     35  C   UNL     1       6.748   2.622  12.120  0.00  0.00    +0.000 A 
ATOM     36  C   UNL     1       5.946   1.872  11.257  0.00  0.00    +0.000 A 
ATOM     37  C   UNL     1       4.617   2.232  11.050  0.00  0.00    +0.000 A 
ATOM     38  C   UNL     1       4.094   3.350  11.695  0.00  0.00    +0.000 A 
ATOM     39  C   UNL     1       4.900   4.110  12.549  0.00  0.00    +0.000 A 
ENDBRANCH  33  34
ENDBRANCH  25  33
ENDBRANCH  24  28
ENDBRANCH   1  24
TORSDOF 7
ENDMDL
MODEL 8
REMARK VINA RESULT:      -8.0      5.006      9.752
REMARK  Name = 
REMARK  7 active torsions:
REMARK  status: ('A' for Active; 'I' for Inactive)
REMARK    1  A    between atoms: O_1  and  C_2
REMARK    2  A    between atoms: C_2  and  C_3
REMARK    3  A    between atoms: C_3  and  C_4
REMARK    4  A    between atoms: N_12  and  C_13
REMARK    5  A    between atoms: C_13  and  C_14
REMARK    6  A    between atoms: C_18  and  C_19
REMARK    7  A    between atoms: N_25  and  C_26
REMARK                            x       y       z     vdW  Elec       q    Type
REMARK                         _______ _______ _______ _____ _____    ______ ____
ROOT
ATOM      1  C   UNL     1       2.261   6.832  19.526  0.00  0.00    +0.000 A 
ATOM      2  C   UNL     1       2.418   7.435  18.272  0.00  0.00    +0.000 A 
ATOM      3  C   UNL     1       1.957   8.735  18.054  0.00  0.00    +0.000 A 
ATOM      4  C   UNL     1       1.309   9.437  19.074  0.00  0.00    +0.000 A 
ATOM      5  C   UNL     1       1.147   8.856  20.336  0.00  0.00    +0.000 A 
ATOM      6  C   UNL     1       1.675   7.575  20.558  0.00  0.00    +0.000 A 
ENDROOT
BRANCH   5   7
ATOM      7  C   UNL     1       0.375   9.503  21.391  0.00  0.00    +0.000 A 
ATOM      8  C   UNL     1       0.394   9.148  22.729  0.00  0.00    +0.000 A 
ATOM      9  N   UNL     1      -0.473   9.977  23.406  0.00  0.00    +0.000 N 
ATOM     10  C   UNL     1      -1.040  10.868  22.532  0.00  0.00    +0.000 A 
ATOM     11  N   UNL     1      -1.941  11.810  22.853  0.00  0.00    +0.000 NA
ATOM     12  C   UNL     1      -2.303  12.569  21.802  0.00  0.00    +0.000 A 
ATOM     13  N   UNL     1      -3.274  13.529  22.049  0.00  0.00    +0.000 N 
ATOM     14  N   UNL     1      -1.825  12.448  20.548  0.00  0.00    +0.000 NA
ATOM     15  C   UNL     1      -0.927  11.480  20.273  0.00  0.00    +0.000 A 
ATOM     16  C   UNL     1      -0.506  10.624  21.280  0.00  0.00    +0.000 A 
ATOM     17  H   UNL     1      -0.675   9.957  24.393  0.00  0.00    +0.000 HD
ATOM     18  H   UNL     1      -3.744  13.263  22.907  0.00  0.00    +0.000 HD
BRANCH  13  19
ATOM     19  C   UNL     1      -4.118  13.893  20.921  0.00  0.00    +0.000 C 
ATOM     20  C   UNL     1      -5.560  13.408  21.070  0.00  0.00    +0.000 C 
ATOM     21  C   UNL     1      -6.354  14.320  20.146  0.00  0.00    +0.000 C 
ATOM     22  C   UNL     1      -5.606  15.650  20.132  0.00  0.00    +0.000 C 
ATOM     23  C   UNL     1      -4.276  15.411  20.843  0.00  0.00    +0.000 C 
ENDBRANCH  13  19
ENDBRANCH   5   7
BRANCH   1  24
ATOM     24  C   UNL     1       2.691   5.399  19.765  0.00  0.00    +0.000 C 
BRANCH  24  28
ATOM     25  C   UNL     1       5.990   5.366  16.913  0.00  0.00    +0.000 C 
ATOM     26  C   UNL     1       4.705   4.566  16.632  0.00  0.00    +0.000 C 
ATOM     27  C   UNL     1       3.520   5.035  17.489  0.00  0.00    +0.000 C 
ATOM     28  N   UNL     1       3.833   4.957  18.927  0.00  0.00    +0.000 NA
ATOM     29  C   UNL     1       4.993   5.819  19.220  0.00  0.00    +0.000 C 
ATOM     30  C   UNL     1       6.235   5.412  18.426  0.00  0.00    +0.000 C 
BRANCH  25  31
ATOM     31  O   UNL     1       5.779   6.705  16.435  0.00  0.00    +0.000 OA
ATOM     32  H   UNL     1       6.051   7.320  17.136  0.00  0.00    +0.000 HD
ENDBRANCH  25  31
BRANCH  25  33
ATOM     33  C   UNL     1       7.186   4.725  16.153  0.00  0.00    +0.000 C 
BRANCH  33  34
ATOM     34  C   UNL     1       7.033   4.579  14.651  0.00  0.00    +0.000 A 
ATOM     35  C   UNL     1       7.789   5.373  13.775  0.00  0.00    +0.000 A 
ATOM     36  C   UNL     1       7.669   5.225  12.391  0.00  0.00    +0.000 A 
ATOM     37  C   UNL     1       6.802   4.272  11.864  0.00  0.00    +0.000 A 
ATOM     38  C   UNL     1       6.045   3.476  12.721  0.00  0.00    +0.000 A 
ATOM     39  C   UNL     1       6.154   3.633  14.107  0.00  0.00    +0.000 A 
ENDBRANCH  33  34
ENDBRANCH  25  33
ENDBRANCH  24  28
ENDBRANCH   1  24
TORSDOF 7
ENDMDL
MODEL 9
REMARK VINA RESULT:      -8.0      1.677      2.265
REMARK  Name = 
REMARK  7 active torsions:
REMARK  status: ('A' for Active; 'I' for Inactive)
REMARK    1  A    between atoms: O_1  and  C_2
REMARK    2  A    between atoms: C_2  and  C_3
REMARK    3  A    between atoms: C_3  and  C_4
REMARK    4  A    between atoms: N_12  and  C_13
REMARK    5  A    between atoms: C_13  and  C_14
REMARK    6  A    between atoms: C_18  and  C_19
REMARK    7  A    between atoms: N_25  and  C_26
REMARK                            x       y       z     vdW  Elec       q    Type
REMARK                         _______ _______ _______ _____ _____    ______ ____
ROOT
ATOM      1  C   UNL     1       1.152  12.927  18.582  0.00  0.00    +0.000 A 
ATOM      2  C   UNL     1      -0.174  13.113  18.173  0.00  0.00    +0.000 A 
ATOM      3  C   UNL     1      -1.122  12.108  18.377  0.00  0.00    +0.000 A 
ATOM      4  C   UNL     1      -0.751  10.895  18.966  0.00  0.00    +0.000 A 
ATOM      5  C   UNL     1       0.567  10.691  19.388  0.00  0.00    +0.000 A 
ATOM      6  C   UNL     1       1.491  11.736  19.235  0.00  0.00    +0.000 A 
ENDROOT
BRANCH   5   7
ATOM      7  C   UNL     1       1.024   9.403  19.897  0.00  0.00    +0.000 A 
ATOM      8  C   UNL     1       0.758   8.900  21.160  0.00  0.00    +0.000 A 
ATOM      9  N   UNL     1       1.370   7.672  21.271  0.00  0.00    +0.000 N 
ATOM     10  C   UNL     1       2.014   7.366  20.100  0.00  0.00    +0.000 A 
ATOM     11  N   UNL     1       2.723   6.250  19.867  0.00  0.00    +0.000 NA
ATOM     12  C   UNL     1       3.219   6.196  18.617  0.00  0.00    +0.000 A 
ATOM     13  N   UNL     1       4.010   5.094  18.323  0.00  0.00    +0.000 N 
ATOM     14  N   UNL     1       3.034   7.127  17.661  0.00  0.00    +0.000 NA
ATOM     15  C   UNL     1       2.321   8.235  17.946  0.00  0.00    +0.000 A 
ATOM     16  C   UNL     1       1.788   8.404  19.215  0.00  0.00    +0.000 A 
ATOM     17  H   UNL     1       1.358   7.066  22.077  0.00  0.00    +0.000 HD
ATOM     18  H   UNL     1       4.311   4.700  19.206  0.00  0.00    +0.000 HD
BRANCH  13  19
ATOM     19  C   UNL     1       5.032   5.291  17.307  0.00  0.00    +0.000 C 
ATOM     20  C   UNL     1       6.443   4.981  17.806  0.00  0.00    +0.000 C 
ATOM     21  C   UNL     1       7.232   4.703  16.535  0.00  0.00    +0.000 C 
ATOM     22  C   UNL     1       6.232   4.116  15.544  0.00  0.00    +0.000 C 
ATOM     23  C   UNL     1       4.848   4.290  16.166  0.00  0.00    +0.000 C 
ENDBRANCH  13  19
ENDBRANCH   5   7
BRANCH   1  24
ATOM     24  C   UNL     1       2.210  13.976  18.308  0.00  0.00    +0.000 C 
BRANCH  24  28
ATOM     25  C   UNL     1       4.916  15.607  21.315  0.00  0.00    +0.000 C 
ATOM     26  C   UNL     1       5.469  14.982  20.021  0.00  0.00    +0.000 C 
ATOM     27  C   UNL     1       4.406  14.873  18.918  0.00  0.00    +0.000 C 
ATOM     28  N   UNL     1       3.240  14.095  19.370  0.00  0.00    +0.000 NA
ATOM     29  C   UNL     1       2.635  14.760  20.539  0.00  0.00    +0.000 C 
ATOM     30  C   UNL     1       3.616  14.894  21.705  0.00  0.00    +0.000 C 
BRANCH  25  31
ATOM     31  O   UNL     1       4.622  16.987  21.037  0.00  0.00    +0.000 OA
ATOM     32  H   UNL     1       4.944  17.187  20.143  0.00  0.00    +0.000 HD
ENDBRANCH  25  31
BRANCH  25  33
ATOM     33  C   UNL     1       5.983  15.520  22.442  0.00  0.00    +0.000 C 
BRANCH  33  34
ATOM     34  C   UNL     1       6.731  14.206  22.564  0.00  0.00    +0.000 A 
ATOM     35  C   UNL     1       8.056  14.093  22.113  0.00  0.00    +0.000 A 
ATOM     36  C   UNL     1       8.756  12.891  22.246  0.00  0.00    +0.000 A 
ATOM     37  C   UNL     1       8.147  11.791  22.844  0.00  0.00    +0.000 A 
ATOM     38  C   UNL     1       6.834  11.889  23.297  0.00  0.00    +0.000 A 
ATOM     39  C   UNL     1       6.127  13.087  23.152  0.00  0.00    +0.000 A 
ENDBRANCH  33  34
ENDBRANCH  25  33
ENDBRANCH  24  28
ENDBRANCH   1  24
TORSDOF 7
ENDMDL
