MODEL 1
REMARK VINA RESULT:      -8.9      0.000      0.000
REMARK  Name = 
REMARK  5 active torsions:
REMARK  status: ('A' for Active; 'I' for Inactive)
REMARK    1  A    between atoms: C_1  and  C_2
REMARK    2  A    between atoms: C_7  and  C_8
REMARK    3  A    between atoms: N_16  and  C_17
REMARK    4  A    between atoms: N_16  and  C_18
REMARK    5  A    between atoms: C_18  and  C_19
REMARK                            x       y       z     vdW  Elec       q    Type
REMARK                         _______ _______ _______ _____ _____    ______ ____
ROOT
ATOM      1  C   UNL     1       1.905   6.733  20.185  0.00  0.00    +0.000 A 
ATOM      2  C   UNL     1       1.226   5.684  20.808  0.00  0.00    +0.000 A 
ATOM      3  C   UNL     1       1.651   4.358  20.659  0.00  0.00    +0.000 A 
ATOM      4  C   UNL     1       2.694   4.004  19.824  0.00  0.00    +0.000 A 
ATOM      5  N   UNL     1       3.007   2.712  19.725  0.00  0.00    +0.000 NA
ATOM      6  C   UNL     1       4.015   2.410  18.905  0.00  0.00    +0.000 A 
ATOM      7  N   UNL     1       4.729   3.277  18.176  0.00  0.00    +0.000 NA
ATOM      8  C   UNL     1       4.416   4.584  18.263  0.00  0.00    +0.000 A 
ATOM      9  N   UNL     1       5.201   5.473  17.528  0.00  0.00    +0.000 N 
ATOM     10  C   UNL     1       4.611   6.550  16.750  0.00  0.00    +0.000 C 
ATOM     11  C   UNL     1       3.375   5.013  19.125  0.00  0.00    +0.000 A 
ATOM     12  C   UNL     1       2.995   6.359  19.380  0.00  0.00    +0.000 A 
ENDROOT
BRANCH   1  19
ATOM     13  C   UNL     1       1.686   8.687  17.815  0.00  0.00    +0.000 C 
ATOM     14  C   UNL     1       1.429   9.078  19.251  0.00  0.00    +0.000 A 
ATOM     15  C   UNL     1       1.025  10.404  19.492  0.00  0.00    +0.000 A 
ATOM     16  C   UNL     1       0.690  10.844  20.769  0.00  0.00    +0.000 A 
ATOM     17  C   UNL     1       0.785   9.965  21.841  0.00  0.00    +0.000 A 
ATOM     18  C   UNL     1       1.222   8.658  21.621  0.00  0.00    +0.000 A 
ATOM     19  C   UNL     1       1.540   8.168  20.328  0.00  0.00    +0.000 A 
ENDBRANCH   1  19
BRANCH   9  20
ATOM     20  C   UNL     1       6.526   5.014  17.077  0.00  0.00    +0.000 C 
BRANCH  20  21
ATOM     21  C   UNL     1       6.643   4.703  15.619  0.00  0.00    +0.000 A 
ATOM     22  C   UNL     1       6.021   3.803  14.778  0.00  0.00    +0.000 A 
ATOM     23  C   UNL     1       6.562   4.009  13.489  0.00  0.00    +0.000 A 
ATOM     24  C   UNL     1       7.486   5.018  13.621  0.00  0.00    +0.000 A 
ATOM     25  O   UNL     1       7.544   5.448  14.906  0.00  0.00    +0.000 OA
ENDBRANCH  20  21
ENDBRANCH   9  20
TORSDOF 3
ENDMDL
MODEL 2
REMARK VINA RESULT:      -8.5      0.610      1.484
REMARK  Name = 
REMARK  5 active torsions:
REMARK  status: ('A' for Active; 'I' for Inactive)
REMARK    1  A    between atoms: C_1  and  C_2
REMARK    2  A    between atoms: C_7  and  C_8
REMARK    3  A    between atoms: N_16  and  C_17
REMARK    4  A    between atoms: N_16  and  C_18
REMARK    5  A    between atoms: C_18  and  C_19
REMARK                            x       y       z     vdW  Elec       q    Type
REMARK                         _______ _______ _______ _____ _____    ______ ____
ROOT
ATOM      1  C   UNL     1       1.957   7.259  19.967  0.00  0.00    +0.000 A 
ATOM      2  C   UNL     1       1.381   6.297  20.799  0.00  0.00    +0.000 A 
ATOM      3  C   UNL     1       1.900   4.997  20.867  0.00  0.00    +0.000 A 
ATOM      4  C   UNL     1       2.936   4.569  20.060  0.00  0.00    +0.000 A 
ATOM      5  N   UNL     1       3.342   3.305  20.178  0.00  0.00    +0.000 NA
ATOM      6  C   UNL     1       4.340   2.929  19.377  0.00  0.00    +0.000 A 
ATOM      7  N   UNL     1       4.961   3.696  18.472  0.00  0.00    +0.000 NA
ATOM      8  C   UNL     1       4.555   4.973  18.341  0.00  0.00    +0.000 A 
ATOM      9  N   UNL     1       5.245   5.765  17.422  0.00  0.00    +0.000 N 
ATOM     10  C   UNL     1       4.549   6.642  16.494  0.00  0.00    +0.000 C 
ATOM     11  C   UNL     1       3.515   5.479  19.161  0.00  0.00    +0.000 A 
ATOM     12  C   UNL     1       3.045   6.820  19.190  0.00  0.00    +0.000 A 
ENDROOT
BRANCH   1  19
ATOM     13  C   UNL     1       1.170   8.971  22.403  0.00  0.00    +0.000 C 
ATOM     14  C   UNL     1       1.132   9.471  20.978  0.00  0.00    +0.000 A 
ATOM     15  C   UNL     1       0.754  10.811  20.780  0.00  0.00    +0.000 A 
ATOM     16  C   UNL     1       0.759  11.392  19.514  0.00  0.00    +0.000 A 
ATOM     17  C   UNL     1       1.117  10.623  18.413  0.00  0.00    +0.000 A 
ATOM     18  C   UNL     1       1.455   9.282  18.591  0.00  0.00    +0.000 A 
ATOM     19  C   UNL     1       1.491   8.668  19.871  0.00  0.00    +0.000 A 
ENDBRANCH   1  19
BRANCH   9  20
ATOM     20  C   UNL     1       6.584   5.323  16.997  0.00  0.00    +0.000 C 
BRANCH  20  21
ATOM     21  C   UNL     1       6.698   4.875  15.575  0.00  0.00    +0.000 A 
ATOM     22  C   UNL     1       6.076   3.898  14.826  0.00  0.00    +0.000 A 
ATOM     23  C   UNL     1       6.613   3.981  13.521  0.00  0.00    +0.000 A 
ATOM     24  C   UNL     1       7.535   5.000  13.554  0.00  0.00    +0.000 A 
ATOM     25  O   UNL     1       7.595   5.551  14.792  0.00  0.00    +0.000 OA
ENDBRANCH  20  21
ENDBRANCH   9  20
TORSDOF 3
ENDMDL
MODEL 3
REMARK VINA RESULT:      -7.7      4.240      8.470
REMARK  Name = 
REMARK  5 active torsions:
REMARK  status: ('A' for Active; 'I' for Inactive)
REMARK    1  A    between atoms: C_1  and  C_2
REMARK    2  A    between atoms: C_7  and  C_8
REMARK    3  A    between atoms: N_16  and  C_17
REMARK    4  A    between atoms: N_16  and  C_18
REMARK    5  A    between atoms: C_18  and  C_19
REMARK                            x       y       z     vdW  Elec       q    Type
REMARK                         _______ _______ _______ _____ _____    ______ ____
ROOT
ATOM      1  C   UNL     1       2.353   6.247  19.259  0.00  0.00    +0.000 A 
ATOM      2  C   UNL     1       2.829   6.543  17.980  0.00  0.00    +0.000 A 
ATOM      3  C   UNL     1       2.803   7.853  17.484  0.00  0.00    +0.000 A 
ATOM      4  C   UNL     1       2.228   8.898  18.182  0.00  0.00    +0.000 A 
ATOM      5  N   UNL     1       2.226  10.104  17.615  0.00  0.00    +0.000 NA
ATOM      6  C   UNL     1       1.656  11.085  18.317  0.00  0.00    +0.000 A 
ATOM      7  N   UNL     1       1.089  10.968  19.524  0.00  0.00    +0.000 NA
ATOM      8  C   UNL     1       1.080   9.752  20.103  0.00  0.00    +0.000 A 
ATOM      9  N   UNL     1       0.521   9.663  21.379  0.00  0.00    +0.000 N 
ATOM     10  C   UNL     1      -0.388   8.588  21.741  0.00  0.00    +0.000 C 
ATOM     11  C   UNL     1       1.680   8.646  19.449  0.00  0.00    +0.000 A 
ATOM     12  C   UNL     1       1.819   7.333  19.975  0.00  0.00    +0.000 A 
ENDROOT
BRANCH   1  19
ATOM     13  C   UNL     1       4.850   4.445  19.294  0.00  0.00    +0.000 C 
ATOM     14  C   UNL     1       3.524   4.053  19.901  0.00  0.00    +0.000 A 
ATOM     15  C   UNL     1       3.461   2.808  20.553  0.00  0.00    +0.000 A 
ATOM     16  C   UNL     1       2.309   2.386  21.211  0.00  0.00    +0.000 A 
ATOM     17  C   UNL     1       1.181   3.198  21.199  0.00  0.00    +0.000 A 
ATOM     18  C   UNL     1       1.218   4.417  20.523  0.00  0.00    +0.000 A 
ATOM     19  C   UNL     1       2.385   4.892  19.870  0.00  0.00    +0.000 A 
ENDBRANCH   1  19
BRANCH   9  20
ATOM     20  C   UNL     1       0.385  10.903  22.162  0.00  0.00    +0.000 C 
BRANCH  20  21
ATOM     21  C   UNL     1      -0.995  11.471  22.242  0.00  0.00    +0.000 A 
ATOM     22  C   UNL     1      -1.933  11.570  23.249  0.00  0.00    +0.000 A 
ATOM     23  C   UNL     1      -3.054  12.233  22.698  0.00  0.00    +0.000 A 
ATOM     24  C   UNL     1      -2.734  12.494  21.387  0.00  0.00    +0.000 A 
ATOM     25  O   UNL     1      -1.489  12.038  21.098  0.00  0.00    +0.000 OA
ENDBRANCH  20  21
ENDBRANCH   9  20
TORSDOF 3
ENDMDL
MODEL 4
REMARK VINA RESULT:      -7.6      3.995      7.593
REMARK  Name = 
REMARK  5 active torsions:
REMARK  status: ('A' for Active; 'I' for Inactive)
REMARK    1  A    between atoms: C_1  and  C_2
REMARK    2  A    between atoms: C_7  and  C_8
REMARK    3  A    between atoms: N_16  and  C_17
REMARK    4  A    between atoms: N_16  and  C_18
REMARK    5  A    between atoms: C_18  and  C_19
REMARK                            x       y       z     vdW  Elec       q    Type
REMARK                         _______ _______ _______ _____ _____    ______ ____
ROOT
ATOM      1  C   UNL     1       2.837   6.562  18.872  0.00  0.00    +0.000 A 
ATOM      2  C   UNL     1       2.596   5.878  20.064  0.00  0.00    +0.000 A 
ATOM      3  C   UNL     1       1.728   6.399  21.033  0.00  0.00    +0.000 A 
ATOM      4  C   UNL     1       1.142   7.645  20.910  0.00  0.00    +0.000 A 
ATOM      5  N   UNL     1       0.354   8.066  21.898  0.00  0.00    +0.000 NA
ATOM      6  C   UNL     1      -0.189   9.276  21.745  0.00  0.00    +0.000 A 
ATOM      7  N   UNL     1      -0.010  10.097  20.702  0.00  0.00    +0.000 NA
ATOM      8  C   UNL     1       0.790   9.683  19.702  0.00  0.00    +0.000 A 
ATOM      9  N   UNL     1       0.927  10.537  18.606  0.00  0.00    +0.000 N 
ATOM     10  C   UNL     1       2.224  10.809  18.006  0.00  0.00    +0.000 C 
ATOM     11  C   UNL     1       1.397   8.403  19.757  0.00  0.00    +0.000 A 
ATOM     12  C   UNL     1       2.191   7.805  18.740  0.00  0.00    +0.000 A 
ENDROOT
BRANCH   1  19
ATOM     13  C   UNL     1       2.830   3.643  17.889  0.00  0.00    +0.000 C 
ATOM     14  C   UNL     1       3.716   4.721  17.311  0.00  0.00    +0.000 A 
ATOM     15  C   UNL     1       4.546   4.359  16.234  0.00  0.00    +0.000 A 
ATOM     16  C   UNL     1       5.345   5.294  15.581  0.00  0.00    +0.000 A 
ATOM     17  C   UNL     1       5.349   6.612  16.020  0.00  0.00    +0.000 A 
ATOM     18  C   UNL     1       4.560   6.976  17.112  0.00  0.00    +0.000 A 
ATOM     19  C   UNL     1       3.711   6.056  17.779  0.00  0.00    +0.000 A 
ENDBRANCH   1  19
BRANCH   9  20
ATOM     20  C   UNL     1      -0.096  11.578  18.410  0.00  0.00    +0.000 C 
BRANCH  20  21
ATOM     21  C   UNL     1      -1.431  11.095  17.940  0.00  0.00    +0.000 A 
ATOM     22  C   UNL     1      -1.846  10.031  17.165  0.00  0.00    +0.000 A 
ATOM     23  C   UNL     1      -3.256  10.107  17.091  0.00  0.00    +0.000 A 
ATOM     24  C   UNL     1      -3.615  11.216  17.821  0.00  0.00    +0.000 A 
ATOM     25  O   UNL     1      -2.519  11.822  18.341  0.00  0.00    +0.000 OA
ENDBRANCH  20  21
ENDBRANCH   9  20
TORSDOF 3
ENDMDL
MODEL 5
REMARK VINA RESULT:      -7.4      4.660      8.603
REMARK  Name = 
REMARK  5 active torsions:
REMARK  status: ('A' for Active; 'I' for Inactive)
REMARK    1  A    between atoms: C_1  and  C_2
REMARK    2  A    between atoms: C_7  and  C_8
REMARK    3  A    between atoms: N_16  and  C_17
REMARK    4  A    between atoms: N_16  and  C_18
REMARK    5  A    between atoms: C_18  and  C_19
REMARK                            x       y       z     vdW  Elec       q    Type
REMARK                         _______ _______ _______ _____ _____    ______ ____
ROOT
ATOM      1  C   UNL     1       2.105   6.386  19.262  0.00  0.00    +0.000 A 
ATOM      2  C   UNL     1       2.702   6.700  18.040  0.00  0.00    +0.000 A 
ATOM      3  C   UNL     1       2.783   8.026  17.595  0.00  0.00    +0.000 A 
ATOM      4  C   UNL     1       2.203   9.075  18.283  0.00  0.00    +0.000 A 
ATOM      5  N   UNL     1       2.309  10.298  17.765  0.00  0.00    +0.000 NA
ATOM      6  C   UNL     1       1.731  11.284  18.455  0.00  0.00    +0.000 A 
ATOM      7  N   UNL     1       1.058  11.155  19.606  0.00  0.00    +0.000 NA
ATOM      8  C   UNL     1       0.940   9.921  20.134  0.00  0.00    +0.000 A 
ATOM      9  N   UNL     1       0.271   9.817  21.355  0.00  0.00    +0.000 N 
ATOM     10  C   UNL     1      -0.718   8.780  21.598  0.00  0.00    +0.000 C 
ATOM     11  C   UNL     1       1.538   8.809  19.490  0.00  0.00    +0.000 A 
ATOM     12  C   UNL     1       1.566   7.473  19.974  0.00  0.00    +0.000 A 
ENDROOT
BRANCH   1  19
ATOM     13  C   UNL     1       1.459   3.892  17.575  0.00  0.00    +0.000 C 
ATOM     14  C   UNL     1       1.729   3.854  19.061  0.00  0.00    +0.000 A 
ATOM     15  C   UNL     1       1.722   2.590  19.680  0.00  0.00    +0.000 A 
ATOM     16  C   UNL     1       2.034   2.437  21.029  0.00  0.00    +0.000 A 
ATOM     17  C   UNL     1       2.328   3.560  21.793  0.00  0.00    +0.000 A 
ATOM     18  C   UNL     1       2.300   4.822  21.200  0.00  0.00    +0.000 A 
ATOM     19  C   UNL     1       2.018   5.011  19.821  0.00  0.00    +0.000 A 
ENDBRANCH   1  19
BRANCH   9  20
ATOM     20  C   UNL     1       0.131  11.035  22.172  0.00  0.00    +0.000 C 
BRANCH  20  21
ATOM     21  C   UNL     1      -1.224  11.666  22.167  0.00  0.00    +0.000 A 
ATOM     22  C   UNL     1      -1.985  12.294  21.202  0.00  0.00    +0.000 A 
ATOM     23  C   UNL     1      -3.201  12.665  21.821  0.00  0.00    +0.000 A 
ATOM     24  C   UNL     1      -3.107  12.246  23.127  0.00  0.00    +0.000 A 
ATOM     25  O   UNL     1      -1.915  11.638  23.349  0.00  0.00    +0.000 OA
ENDBRANCH  20  21
ENDBRANCH   9  20
TORSDOF 3
ENDMDL
MODEL 6
REMARK VINA RESULT:      -7.3      6.953     10.793
REMARK  Name = 
REMARK  5 active torsions:
REMARK  status: ('A' for Active; 'I' for Inactive)
REMARK    1  A    between atoms: C_1  and  C_2
REMARK    2  A    between atoms: C_7  and  C_8
REMARK    3  A    between atoms: N_16  and  C_17
REMARK    4  A    between atoms: N_16  and  C_18
REMARK    5  A    between atoms: C_18  and  C_19
REMARK                            x       y       z     vdW  Elec       q    Type
REMARK                         _______ _______ _______ _____ _____    ______ ____
ROOT
ATOM      1  C   UNL     1      -0.515  11.150  20.112  0.00  0.00    +0.000 A 
ATOM      2  C   UNL     1      -0.213  12.160  21.027  0.00  0.00    +0.000 A 
ATOM      3  C   UNL     1      -1.181  13.094  21.419  0.00  0.00    +0.000 A 
ATOM      4  C   UNL     1      -2.445  13.128  20.861  0.00  0.00    +0.000 A 
ATOM      5  N   UNL     1      -3.288  14.072  21.278  0.00  0.00    +0.000 NA
ATOM      6  C   UNL     1      -4.496  14.076  20.712  0.00  0.00    +0.000 A 
ATOM      7  N   UNL     1      -4.932  13.230  19.771  0.00  0.00    +0.000 NA
ATOM      8  C   UNL     1      -4.085  12.276  19.338  0.00  0.00    +0.000 A 
ATOM      9  N   UNL     1      -4.576  11.380  18.387  0.00  0.00    +0.000 N 
ATOM     10  C   UNL     1      -3.796  11.003  17.219  0.00  0.00    +0.000 C 
ATOM     11  C   UNL     1      -2.785  12.172  19.892  0.00  0.00    +0.000 A 
ATOM     12  C   UNL     1      -1.822  11.169  19.594  0.00  0.00    +0.000 A 
ENDROOT
BRANCH   1  19
ATOM     13  C   UNL     1       0.464   8.870  21.937  0.00  0.00    +0.000 C 
ATOM     14  C   UNL     1       0.900   9.042  20.501  0.00  0.00    +0.000 A 
ATOM     15  C   UNL     1       1.769   8.069  19.975  0.00  0.00    +0.000 A 
ATOM     16  C   UNL     1       2.170   8.092  18.642  0.00  0.00    +0.000 A 
ATOM     17  C   UNL     1       1.729   9.118  17.814  0.00  0.00    +0.000 A 
ATOM     18  C   UNL     1       0.898  10.111  18.334  0.00  0.00    +0.000 A 
ATOM     19  C   UNL     1       0.445  10.099  19.679  0.00  0.00    +0.000 A 
ENDBRANCH   1  19
BRANCH   9  20
ATOM     20  C   UNL     1      -6.036  11.252  18.246  0.00  0.00    +0.000 C 
BRANCH  20  21
ATOM     21  C   UNL     1      -6.705  10.340  19.224  0.00  0.00    +0.000 A 
ATOM     22  C   UNL     1      -6.780   8.968  19.357  0.00  0.00    +0.000 A 
ATOM     23  C   UNL     1      -7.559   8.713  20.509  0.00  0.00    +0.000 A 
ATOM     24  C   UNL     1      -7.916   9.944  21.006  0.00  0.00    +0.000 A 
ATOM     25  O   UNL     1      -7.404  10.937  20.238  0.00  0.00    +0.000 OA
ENDBRANCH  20  21
ENDBRANCH   9  20
TORSDOF 3
ENDMDL
MODEL 7
REMARK VINA RESULT:      -7.0      5.577      9.252
REMARK  Name = 
REMARK  5 active torsions:
REMARK  status: ('A' for Active; 'I' for Inactive)
REMARK    1  A    between atoms: C_1  and  C_2
REMARK    2  A    between atoms: C_7  and  C_8
REMARK    3  A    between atoms: N_16  and  C_17
REMARK    4  A    between atoms: N_16  and  C_18
REMARK    5  A    between atoms: C_18  and  C_19
REMARK                            x       y       z     vdW  Elec       q    Type
REMARK                         _______ _______ _______ _____ _____    ______ ____
ROOT
ATOM      1  C   UNL     1       0.994   8.860  20.687  0.00  0.00    +0.000 A 
ATOM      2  C   UNL     1       1.149   8.729  22.068  0.00  0.00    +0.000 A 
ATOM      3  C   UNL     1       0.382   9.494  22.957  0.00  0.00    +0.000 A 
ATOM      4  C   UNL     1      -0.490  10.475  22.527  0.00  0.00    +0.000 A 
ATOM      5  N   UNL     1      -1.155  11.171  23.450  0.00  0.00    +0.000 NA
ATOM      6  C   UNL     1      -1.983  12.113  22.996  0.00  0.00    +0.000 A 
ATOM      7  N   UNL     1      -2.201  12.423  21.712  0.00  0.00    +0.000 NA
ATOM      8  C   UNL     1      -1.530  11.731  20.772  0.00  0.00    +0.000 A 
ATOM      9  N   UNL     1      -1.805  12.042  19.439  0.00  0.00    +0.000 N 
ATOM     10  C   UNL     1      -0.745  12.201  18.457  0.00  0.00    +0.000 C 
ATOM     11  C   UNL     1      -0.641  10.692  21.149  0.00  0.00    +0.000 A 
ATOM     12  C   UNL     1       0.064   9.828  20.267  0.00  0.00    +0.000 A 
ENDROOT
BRANCH   1  19
ATOM     13  C   UNL     1       1.972   9.975  17.987  0.00  0.00    +0.000 C 
ATOM     14  C   UNL     1       2.201   8.553  18.441  0.00  0.00    +0.000 A 
ATOM     15  C   UNL     1       2.944   7.720  17.583  0.00  0.00    +0.000 A 
ATOM     16  C   UNL     1       3.276   6.416  17.941  0.00  0.00    +0.000 A 
ATOM     17  C   UNL     1       2.839   5.910  19.159  0.00  0.00    +0.000 A 
ATOM     18  C   UNL     1       2.069   6.713  20.000  0.00  0.00    +0.000 A 
ATOM     19  C   UNL     1       1.740   8.056  19.682  0.00  0.00    +0.000 A 
ENDBRANCH   1  19
BRANCH   9  20
ATOM     20  C   UNL     1      -3.061  12.751  19.141  0.00  0.00    +0.000 C 
BRANCH  20  21
ATOM     21  C   UNL     1      -4.259  11.884  18.924  0.00  0.00    +0.000 A 
ATOM     22  C   UNL     1      -4.577  10.899  18.011  0.00  0.00    +0.000 A 
ATOM     23  C   UNL     1      -5.872  10.439  18.343  0.00  0.00    +0.000 A 
ATOM     24  C   UNL     1      -6.269  11.174  19.434  0.00  0.00    +0.000 A 
ATOM     25  O   UNL     1      -5.300  12.052  19.797  0.00  0.00    +0.000 OA
ENDBRANCH  20  21
ENDBRANCH   9  20
TORSDOF 3
ENDMDL
MODEL 8
REMARK VINA RESULT:      -6.9      6.941     10.028
REMARK  Name = 
REMARK  5 active torsions:
REMARK  status: ('A' for Active; 'I' for Inactive)
REMARK    1  A    between atoms: C_1  and  C_2
REMARK    2  A    between atoms: C_7  and  C_8
REMARK    3  A    between atoms: N_16  and  C_17
REMARK    4  A    between atoms: N_16  and  C_18
REMARK    5  A    between atoms: C_18  and  C_19
REMARK                            x       y       z     vdW  Elec       q    Type
REMARK                         _______ _______ _______ _____ _____    ______ ____
ROOT
ATOM      1  C   UNL     1      -5.798  12.413  19.902  0.00  0.00    +0.000 A 
ATOM      2  C   UNL     1      -6.629  12.191  18.803  0.00  0.00    +0.000 A 
ATOM      3  C   UNL     1      -6.112  11.709  17.593  0.00  0.00    +0.000 A 
ATOM      4  C   UNL     1      -4.759  11.517  17.389  0.00  0.00    +0.000 A 
ATOM      5  N   UNL     1      -4.361  11.082  16.194  0.00  0.00    +0.000 NA
ATOM      6  C   UNL     1      -3.047  10.915  16.034  0.00  0.00    +0.000 A 
ATOM      7  N   UNL     1      -2.102  11.146  16.954  0.00  0.00    +0.000 NA
ATOM      8  C   UNL     1      -2.494  11.592  18.163  0.00  0.00    +0.000 A 
ATOM      9  N   UNL     1      -1.496  11.785  19.120  0.00  0.00    +0.000 N 
ATOM     10  C   UNL     1      -1.458  12.975  19.955  0.00  0.00    +0.000 C 
ATOM     11  C   UNL     1      -3.871  11.781  18.443  0.00  0.00    +0.000 A 
ATOM     12  C   UNL     1      -4.430  12.162  19.693  0.00  0.00    +0.000 A 
ENDROOT
BRANCH   1  19
ATOM     13  C   UNL     1      -7.913  10.932  21.582  0.00  0.00    +0.000 C 
ATOM     14  C   UNL     1      -7.241  12.213  22.018  0.00  0.00    +0.000 A 
ATOM     15  C   UNL     1      -7.585  12.716  23.286  0.00  0.00    +0.000 A 
ATOM     16  C   UNL     1      -6.968  13.847  23.813  0.00  0.00    +0.000 A 
ATOM     17  C   UNL     1      -6.012  14.517  23.060  0.00  0.00    +0.000 A 
ATOM     18  C   UNL     1      -5.691  14.051  21.785  0.00  0.00    +0.000 A 
ATOM     19  C   UNL     1      -6.276  12.883  21.230  0.00  0.00    +0.000 A 
ENDBRANCH   1  19
BRANCH   9  20
ATOM     20  C   UNL     1      -0.203  11.109  18.916  0.00  0.00    +0.000 C 
BRANCH  20  21
ATOM     21  C   UNL     1       0.138  10.048  19.913  0.00  0.00    +0.000 A 
ATOM     22  C   UNL     1       1.164   9.132  20.024  0.00  0.00    +0.000 A 
ATOM     23  C   UNL     1       0.933   8.404  21.213  0.00  0.00    +0.000 A 
ATOM     24  C   UNL     1      -0.224   8.915  21.753  0.00  0.00    +0.000 A 
ATOM     25  O   UNL     1      -0.714   9.912  20.975  0.00  0.00    +0.000 OA
ENDBRANCH  20  21
ENDBRANCH   9  20
TORSDOF 3
ENDMDL
MODEL 9
REMARK VINA RESULT:      -6.9      8.497     11.664
REMARK  Name = 
REMARK  5 active torsions:
REMARK  status: ('A' for Active; 'I' for Inactive)
REMARK    1  A    between atoms: C_1  and  C_2
REMARK    2  A    between atoms: C_7  and  C_8
REMARK    3  A    between atoms: N_16  and  C_17
REMARK    4  A    between atoms: N_16  and  C_18
REMARK    5  A    between atoms: C_18  and  C_19
REMARK                            x       y       z     vdW  Elec       q    Type
REMARK                         _______ _______ _______ _____ _____    ______ ____
ROOT
ATOM      1  C   UNL     1      -1.509  12.697  21.407  0.00  0.00    +0.000 A 
ATOM      2  C   UNL     1      -1.184  12.859  22.755  0.00  0.00    +0.000 A 
ATOM      3  C   UNL     1      -2.176  12.849  23.744  0.00  0.00    +0.000 A 
ATOM      4  C   UNL     1      -3.523  12.773  23.442  0.00  0.00    +0.000 A 
ATOM      5  N   UNL     1      -4.394  12.799  24.450  0.00  0.00    +0.000 NA
ATOM      6  C   UNL     1      -5.684  12.730  24.118  0.00  0.00    +0.000 A 
ATOM      7  N   UNL     1      -6.178  12.643  22.876  0.00  0.00    +0.000 NA
ATOM      8  C   UNL     1      -5.306  12.623  21.850  0.00  0.00    +0.000 A 
ATOM      9  N   UNL     1      -5.841  12.489  20.568  0.00  0.00    +0.000 N 
ATOM     10  C   UNL     1      -5.380  13.307  19.457  0.00  0.00    +0.000 C 
ATOM     11  C   UNL     1      -3.911  12.669  22.097  0.00  0.00    +0.000 A 
ATOM     12  C   UNL     1      -2.881  12.569  21.123  0.00  0.00    +0.000 A 
ENDROOT
BRANCH   1  19
ATOM     13  C   UNL     1      -0.551  15.189  19.871  0.00  0.00    +0.000 C 
ATOM     14  C   UNL     1      -0.055  13.789  19.594  0.00  0.00    +0.000 A 
ATOM     15  C   UNL     1       0.933  13.645  18.602  0.00  0.00    +0.000 A 
ATOM     16  C   UNL     1       1.512  12.411  18.323  0.00  0.00    +0.000 A 
ATOM     17  C   UNL     1       1.084  11.284  19.016  0.00  0.00    +0.000 A 
ATOM     18  C   UNL     1       0.077  11.407  19.973  0.00  0.00    +0.000 A 
ATOM     19  C   UNL     1      -0.511  12.655  20.305  0.00  0.00    +0.000 A 
ENDBRANCH   1  19
BRANCH   9  20
ATOM     20  C   UNL     1      -7.210  11.959  20.442  0.00  0.00    +0.000 C 
BRANCH  20  21
ATOM     21  C   UNL     1      -7.328  10.469  20.407  0.00  0.00    +0.000 A 
ATOM     22  C   UNL     1      -6.958   9.500  19.497  0.00  0.00    +0.000 A 
ATOM     23  C   UNL     1      -7.333   8.256  20.051  0.00  0.00    +0.000 A 
ATOM     24  C   UNL     1      -7.915   8.540  21.264  0.00  0.00    +0.000 A 
ATOM     25  O   UNL     1      -7.917   9.877  21.492  0.00  0.00    +0.000 OA
ENDBRANCH  20  21
ENDBRANCH   9  20
TORSDOF 3
ENDMDL
