MODEL 1
REMARK VINA RESULT:      -7.6      0.000      0.000
REMARK  Name = 
REMARK  5 active torsions:
REMARK  status: ('A' for Active; 'I' for Inactive)
REMARK    1  A    between atoms: C_1  and  O_2
REMARK    2  A    between atoms: O_2  and  C_3
REMARK    3  A    between atoms: C_6  and  C_7
REMARK    4  A    between atoms: N_15  and  C_16
REMARK    5  A    between atoms: C_20  and  C_21
REMARK                            x       y       z     vdW  Elec       q    Type
REMARK                         _______ _______ _______ _____ _____    ______ ____
ROOT
ATOM      1  C   UNL     1       0.752   9.396  20.828  0.00  0.00    +0.000 A 
ATOM      2  C   UNL     1       0.025   8.915  21.922  0.00  0.00    +0.000 A 
ATOM      3  C   UNL     1      -0.677   9.792  22.770  0.00  0.00    +0.000 A 
ATOM      4  C   UNL     1      -0.670  11.170  22.584  0.00  0.00    +0.000 A 
ATOM      5  N   UNL     1      -1.343  11.966  23.421  0.00  0.00    +0.000 NA
ATOM      6  C   UNL     1      -1.247  13.288  23.203  0.00  0.00    +0.000 A 
ATOM      7  N   UNL     1      -0.533  13.890  22.241  0.00  0.00    +0.000 NA
ATOM      8  C   UNL     1       0.120  13.074  21.405  0.00  0.00    +0.000 A 
ATOM      9  N   UNL     1       0.852  13.617  20.341  0.00  0.00    +0.000 N 
ATOM     10  C   UNL     1       0.065  11.673  21.513  0.00  0.00    +0.000 A 
ATOM     11  C   UNL     1       0.746  10.786  20.642  0.00  0.00    +0.000 A 
ATOM     12  H   UNL     1       0.297  13.496  19.497  0.00  0.00    +0.000 HD
ENDROOT
BRANCH   9  13
ATOM     13  C   UNL     1       1.422  14.957  20.451  0.00  0.00    +0.000 C 
ATOM     14  C   UNL     1       2.763  15.101  19.717  0.00  0.00    +0.000 C 
ATOM     15  C   UNL     1       2.756  16.538  19.221  0.00  0.00    +0.000 C 
ATOM     16  N   UNL     1       1.371  16.770  18.871  0.00  0.00    +0.000 N 
ATOM     17  C   UNL     1       1.005  17.593  17.833  0.00  0.00    +0.000 C 
ATOM     18  C   UNL     1      -0.463  17.683  17.487  0.00  0.00    +0.000 C 
ATOM     19  O   UNL     1       1.830  18.227  17.175  0.00  0.00    +0.000 OA
ATOM     20  C   UNL     1       0.501  15.922  19.665  0.00  0.00    +0.000 C 
ENDBRANCH   9  13
BRANCH   1  24
ATOM     21  C   UNL     1       2.978   6.785  18.318  0.00  0.00    +0.000 A 
ATOM     22  C   UNL     1       2.596   8.008  17.798  0.00  0.00    +0.000 A 
ATOM     23  C   UNL     1       1.861   8.878  18.609  0.00  0.00    +0.000 A 
ATOM     24  C   UNL     1       1.509   8.509  19.916  0.00  0.00    +0.000 A 
ATOM     25  C   UNL     1       1.938   7.238  20.314  0.00  0.00    +0.000 A 
ATOM     26  N   UNL     1       2.667   6.380  19.563  0.00  0.00    +0.000 NA
BRANCH  21  28
ATOM     27  C   UNL     1       4.710   6.647  16.761  0.00  0.00    +0.000 C 
ATOM     28  O   UNL     1       3.702   5.950  17.492  0.00  0.00    +0.000 OA
ENDBRANCH  21  28
ENDBRANCH   1  24
TORSDOF 3
ENDMDL
MODEL 2
REMARK VINA RESULT:      -7.3      0.674      1.018
REMARK  Name = 
REMARK  5 active torsions:
REMARK  status: ('A' for Active; 'I' for Inactive)
REMARK    1  A    between atoms: C_1  and  O_2
REMARK    2  A    between atoms: O_2  and  C_3
REMARK    3  A    between atoms: C_6  and  C_7
REMARK    4  A    between atoms: N_15  and  C_16
REMARK    5  A    between atoms: C_20  and  C_21
REMARK                            x       y       z     vdW  Elec       q    Type
REMARK                         _______ _______ _______ _____ _____    ______ ____
ROOT
ATOM      1  C   UNL     1       0.956   8.996  20.683  0.00  0.00    +0.000 A 
ATOM      2  C   UNL     1       0.188   8.469  21.726  0.00  0.00    +0.000 A 
ATOM      3  C   UNL     1      -0.569   9.307  22.567  0.00  0.00    +0.000 A 
ATOM      4  C   UNL     1      -0.577  10.690  22.424  0.00  0.00    +0.000 A 
ATOM      5  N   UNL     1      -1.303  11.447  23.253  0.00  0.00    +0.000 NA
ATOM      6  C   UNL     1      -1.220  12.777  23.081  0.00  0.00    +0.000 A 
ATOM      7  N   UNL     1      -0.472  13.422  22.172  0.00  0.00    +0.000 NA
ATOM      8  C   UNL     1       0.233  12.644  21.344  0.00  0.00    +0.000 A 
ATOM      9  N   UNL     1       1.004  13.232  20.333  0.00  0.00    +0.000 N 
ATOM     10  C   UNL     1       0.198  11.239  21.405  0.00  0.00    +0.000 A 
ATOM     11  C   UNL     1       0.934  10.391  20.540  0.00  0.00    +0.000 A 
ATOM     12  H   UNL     1       0.491  13.129  19.460  0.00  0.00    +0.000 HD
ENDROOT
BRANCH   9  13
ATOM     13  C   UNL     1       1.544  14.577  20.512  0.00  0.00    +0.000 C 
ATOM     14  C   UNL     1       2.880  14.788  19.783  0.00  0.00    +0.000 C 
ATOM     15  C   UNL     1       2.839  16.249  19.362  0.00  0.00    +0.000 C 
ATOM     16  N   UNL     1       1.448  16.467  19.028  0.00  0.00    +0.000 N 
ATOM     17  C   UNL     1       1.061  17.335  18.034  0.00  0.00    +0.000 C 
ATOM     18  C   UNL     1      -0.410  17.410  17.696  0.00  0.00    +0.000 C 
ATOM     19  O   UNL     1       1.870  18.021  17.409  0.00  0.00    +0.000 OA
ATOM     20  C   UNL     1       0.600  15.560  19.778  0.00  0.00    +0.000 C 
ENDBRANCH   9  13
BRANCH   1  24
ATOM     21  C   UNL     1       3.244   6.640  17.983  0.00  0.00    +0.000 A 
ATOM     22  C   UNL     1       2.934   6.091  19.214  0.00  0.00    +0.000 A 
ATOM     23  C   UNL     1       2.185   6.854  20.116  0.00  0.00    +0.000 A 
ATOM     24  C   UNL     1       1.770   8.151  19.780  0.00  0.00    +0.000 A 
ATOM     25  C   UNL     1       2.165   8.596  18.514  0.00  0.00    +0.000 A 
ATOM     26  N   UNL     1       2.873   7.878  17.611  0.00  0.00    +0.000 NA
BRANCH  21  28
ATOM     27  C   UNL     1       5.014   6.604  16.463  0.00  0.00    +0.000 C 
ATOM     28  O   UNL     1       3.985   5.863  17.118  0.00  0.00    +0.000 OA
ENDBRANCH  21  28
ENDBRANCH   1  24
TORSDOF 3
ENDMDL
MODEL 3
REMARK VINA RESULT:      -7.3      3.452      4.909
REMARK  Name = 
REMARK  5 active torsions:
REMARK  status: ('A' for Active; 'I' for Inactive)
REMARK    1  A    between atoms: C_1  and  O_2
REMARK    2  A    between atoms: O_2  and  C_3
REMARK    3  A    between atoms: C_6  and  C_7
REMARK    4  A    between atoms: N_15  and  C_16
REMARK    5  A    between atoms: C_20  and  C_21
REMARK                            x       y       z     vdW  Elec       q    Type
REMARK                         _______ _______ _______ _____ _____    ______ ____
ROOT
ATOM      1  C   UNL     1       1.078  11.203  18.914  0.00  0.00    +0.000 A 
ATOM      2  C   UNL     1      -0.216  11.653  19.197  0.00  0.00    +0.000 A 
ATOM      3  C   UNL     1      -0.542  13.020  19.124  0.00  0.00    +0.000 A 
ATOM      4  C   UNL     1       0.396  13.991  18.793  0.00  0.00    +0.000 A 
ATOM      5  N   UNL     1       0.044  15.280  18.746  0.00  0.00    +0.000 NA
ATOM      6  C   UNL     1       1.019  16.161  18.467  0.00  0.00    +0.000 A 
ATOM      7  N   UNL     1       2.312  15.881  18.245  0.00  0.00    +0.000 NA
ATOM      8  C   UNL     1       2.639  14.584  18.281  0.00  0.00    +0.000 A 
ATOM      9  N   UNL     1       3.958  14.197  18.014  0.00  0.00    +0.000 N 
ATOM     10  C   UNL     1       1.697  13.569  18.529  0.00  0.00    +0.000 A 
ATOM     11  C   UNL     1       2.016  12.188  18.572  0.00  0.00    +0.000 A 
ATOM     12  H   UNL     1       3.982  13.836  17.062  0.00  0.00    +0.000 HD
ENDROOT
BRANCH   9  13
ATOM     13  C   UNL     1       5.062  15.111  18.295  0.00  0.00    +0.000 C 
ATOM     14  C   UNL     1       5.363  15.243  19.796  0.00  0.00    +0.000 C 
ATOM     15  C   UNL     1       6.868  15.452  19.850  0.00  0.00    +0.000 C 
ATOM     16  N   UNL     1       7.366  14.616  18.779  0.00  0.00    +0.000 N 
ATOM     17  C   UNL     1       8.581  13.978  18.851  0.00  0.00    +0.000 C 
ATOM     18  C   UNL     1       8.959  13.047  17.723  0.00  0.00    +0.000 C 
ATOM     19  O   UNL     1       9.345  14.128  19.805  0.00  0.00    +0.000 OA
ATOM     20  C   UNL     1       6.356  14.463  17.747  0.00  0.00    +0.000 C 
ENDBRANCH   9  13
BRANCH   1  24
ATOM     21  C   UNL     1       2.203   7.118  19.254  0.00  0.00    +0.000 A 
ATOM     22  C   UNL     1       2.379   7.735  18.029  0.00  0.00    +0.000 A 
ATOM     23  C   UNL     1       2.011   9.078  17.899  0.00  0.00    +0.000 A 
ATOM     24  C   UNL     1       1.464   9.776  18.985  0.00  0.00    +0.000 A 
ATOM     25  C   UNL     1       1.319   9.033  20.162  0.00  0.00    +0.000 A 
ATOM     26  N   UNL     1       1.682   7.740  20.327  0.00  0.00    +0.000 NA
BRANCH  21  28
ATOM     27  C   UNL     1       1.978   5.137  20.467  0.00  0.00    +0.000 C 
ATOM     28  O   UNL     1       2.575   5.794  19.348  0.00  0.00    +0.000 OA
ENDBRANCH  21  28
ENDBRANCH   1  24
TORSDOF 3
ENDMDL
MODEL 4
REMARK VINA RESULT:      -7.2      1.431      1.532
REMARK  Name = 
REMARK  5 active torsions:
REMARK  status: ('A' for Active; 'I' for Inactive)
REMARK    1  A    between atoms: C_1  and  O_2
REMARK    2  A    between atoms: O_2  and  C_3
REMARK    3  A    between atoms: C_6  and  C_7
REMARK    4  A    between atoms: N_15  and  C_16
REMARK    5  A    between atoms: C_20  and  C_21
REMARK                            x       y       z     vdW  Elec       q    Type
REMARK                         _______ _______ _______ _____ _____    ______ ____
ROOT
ATOM      1  C   UNL     1       0.975   8.905  20.543  0.00  0.00    +0.000 A 
ATOM      2  C   UNL     1       0.189   8.318  21.540  0.00  0.00    +0.000 A 
ATOM      3  C   UNL     1      -0.595   9.105  22.404  0.00  0.00    +0.000 A 
ATOM      4  C   UNL     1      -0.615  10.493  22.332  0.00  0.00    +0.000 A 
ATOM      5  N   UNL     1      -1.367  11.201  23.181  0.00  0.00    +0.000 NA
ATOM      6  C   UNL     1      -1.294  12.538  23.078  0.00  0.00    +0.000 A 
ATOM      7  N   UNL     1      -0.533  13.235  22.222  0.00  0.00    +0.000 NA
ATOM      8  C   UNL     1       0.198  12.507  21.371  0.00  0.00    +0.000 A 
ATOM      9  N   UNL     1       0.986  13.153  20.409  0.00  0.00    +0.000 N 
ATOM     10  C   UNL     1       0.177  11.101  21.360  0.00  0.00    +0.000 A 
ATOM     11  C   UNL     1       0.942  10.305  20.471  0.00  0.00    +0.000 A 
ATOM     12  H   UNL     1       0.494  13.090  19.520  0.00  0.00    +0.000 HD
ENDROOT
BRANCH   9  13
ATOM     13  C   UNL     1       1.507  14.492  20.668  0.00  0.00    +0.000 C 
ATOM     14  C   UNL     1       2.891  14.479  21.336  0.00  0.00    +0.000 C 
ATOM     15  C   UNL     1       3.579  15.713  20.776  0.00  0.00    +0.000 C 
ATOM     16  N   UNL     1       3.106  15.776  19.409  0.00  0.00    +0.000 N 
ATOM     17  C   UNL     1       3.887  16.252  18.384  0.00  0.00    +0.000 C 
ATOM     18  C   UNL     1       3.334  16.177  16.980  0.00  0.00    +0.000 C 
ATOM     19  O   UNL     1       5.015  16.708  18.575  0.00  0.00    +0.000 OA
ATOM     20  C   UNL     1       1.800  15.153  19.299  0.00  0.00    +0.000 C 
ENDBRANCH   9  13
BRANCH   1  24
ATOM     21  C   UNL     1       3.445   6.566  17.994  0.00  0.00    +0.000 A 
ATOM     22  C   UNL     1       3.040   7.807  17.537  0.00  0.00    +0.000 A 
ATOM     23  C   UNL     1       2.224   8.587  18.361  0.00  0.00    +0.000 A 
ATOM     24  C   UNL     1       1.818   8.114  19.617  0.00  0.00    +0.000 A 
ATOM     25  C   UNL     1       2.280   6.837  19.953  0.00  0.00    +0.000 A 
ATOM     26  N   UNL     1       3.085   6.063  19.188  0.00  0.00    +0.000 NA
BRANCH  21  28
ATOM     27  C   UNL     1       5.176   6.627  16.430  0.00  0.00    +0.000 C 
ATOM     28  O   UNL     1       4.248   5.821  17.156  0.00  0.00    +0.000 OA
ENDBRANCH  21  28
ENDBRANCH   1  24
TORSDOF 3
ENDMDL
MODEL 5
REMARK VINA RESULT:      -7.2      4.154      6.909
REMARK  Name = 
REMARK  5 active torsions:
REMARK  status: ('A' for Active; 'I' for Inactive)
REMARK    1  A    between atoms: C_1  and  O_2
REMARK    2  A    between atoms: O_2  and  C_3
REMARK    3  A    between atoms: C_6  and  C_7
REMARK    4  A    between atoms: N_15  and  C_16
REMARK    5  A    between atoms: C_20  and  C_21
REMARK                            x       y       z     vdW  Elec       q    Type
REMARK                         _______ _______ _______ _____ _____    ______ ____
ROOT
ATOM      1  C   UNL     1       4.668   4.668  17.398  0.00  0.00    +0.000 A 
ATOM      2  C   UNL     1       4.715   3.587  18.283  0.00  0.00    +0.000 A 
ATOM      3  C   UNL     1       3.925   3.565  19.448  0.00  0.00    +0.000 A 
ATOM      4  C   UNL     1       3.080   4.615  19.791  0.00  0.00    +0.000 A 
ATOM      5  N   UNL     1       2.355   4.556  20.913  0.00  0.00    +0.000 NA
ATOM      6  C   UNL     1       1.600   5.629  21.199  0.00  0.00    +0.000 A 
ATOM      7  N   UNL     1       1.511   6.760  20.482  0.00  0.00    +0.000 NA
ATOM      8  C   UNL     1       2.233   6.790  19.356  0.00  0.00    +0.000 A 
ATOM      9  N   UNL     1       2.162   7.913  18.521  0.00  0.00    +0.000 N 
ATOM     10  C   UNL     1       3.032   5.712  18.935  0.00  0.00    +0.000 A 
ATOM     11  C   UNL     1       3.806   5.718  17.747  0.00  0.00    +0.000 A 
ATOM     12  H   UNL     1       1.560   7.672  17.736  0.00  0.00    +0.000 HD
ENDROOT
BRANCH   9  13
ATOM     13  C   UNL     1       1.854   9.226  19.082  0.00  0.00    +0.000 C 
ATOM     14  C   UNL     1       2.323  10.385  18.190  0.00  0.00    +0.000 C 
ATOM     15  C   UNL     1       1.278  11.466  18.415  0.00  0.00    +0.000 C 
ATOM     16  N   UNL     1       0.045  10.721  18.558  0.00  0.00    +0.000 N 
ATOM     17  C   UNL     1      -1.164  11.216  18.128  0.00  0.00    +0.000 C 
ATOM     18  C   UNL     1      -2.372  10.314  18.230  0.00  0.00    +0.000 C 
ATOM     19  O   UNL     1      -1.279  12.344  17.649  0.00  0.00    +0.000 OA
ATOM     20  C   UNL     1       0.315   9.390  19.068  0.00  0.00    +0.000 C 
ENDBRANCH   9  13
BRANCH   1  24
ATOM     21  C   UNL     1       7.073   4.973  13.906  0.00  0.00    +0.000 A 
ATOM     22  C   UNL     1       5.920   4.213  13.830  0.00  0.00    +0.000 A 
ATOM     23  C   UNL     1       5.119   4.099  14.971  0.00  0.00    +0.000 A 
ATOM     24  C   UNL     1       5.487   4.733  16.166  0.00  0.00    +0.000 A 
ATOM     25  C   UNL     1       6.685   5.455  16.117  0.00  0.00    +0.000 A 
ATOM     26  N   UNL     1       7.472   5.601  15.027  0.00  0.00    +0.000 NA
BRANCH  21  28
ATOM     27  C   UNL     1       7.372   4.209  11.722  0.00  0.00    +0.000 C 
ATOM     28  O   UNL     1       7.841   5.064  12.764  0.00  0.00    +0.000 OA
ENDBRANCH  21  28
ENDBRANCH   1  24
TORSDOF 3
ENDMDL
MODEL 6
REMARK VINA RESULT:      -7.1      3.074      4.182
REMARK  Name = 
REMARK  5 active torsions:
REMARK  status: ('A' for Active; 'I' for Inactive)
REMARK    1  A    between atoms: C_1  and  O_2
REMARK    2  A    between atoms: O_2  and  C_3
REMARK    3  A    between atoms: C_6  and  C_7
REMARK    4  A    between atoms: N_15  and  C_16
REMARK    5  A    between atoms: C_20  and  C_21
REMARK                            x       y       z     vdW  Elec       q    Type
REMARK                         _______ _______ _______ _____ _____    ______ ____
ROOT
ATOM      1  C   UNL     1       1.137  10.128  18.882  0.00  0.00    +0.000 A 
ATOM      2  C   UNL     1      -0.209  10.272  19.232  0.00  0.00    +0.000 A 
ATOM      3  C   UNL     1      -0.818  11.540  19.276  0.00  0.00    +0.000 A 
ATOM      4  C   UNL     1      -0.119  12.709  18.998  0.00  0.00    +0.000 A 
ATOM      5  N   UNL     1      -0.736  13.894  19.062  0.00  0.00    +0.000 NA
ATOM      6  C   UNL     1       0.020  14.979  18.828  0.00  0.00    +0.000 A 
ATOM      7  N   UNL     1       1.332  14.997  18.552  0.00  0.00    +0.000 NA
ATOM      8  C   UNL     1       1.925  13.800  18.477  0.00  0.00    +0.000 A 
ATOM      9  N   UNL     1       3.285  13.722  18.146  0.00  0.00    +0.000 N 
ATOM     10  C   UNL     1       1.229  12.593  18.668  0.00  0.00    +0.000 A 
ATOM     11  C   UNL     1       1.832  11.312  18.595  0.00  0.00    +0.000 A 
ATOM     12  H   UNL     1       3.344  13.443  17.169  0.00  0.00    +0.000 HD
ENDROOT
BRANCH   9  13
ATOM     13  C   UNL     1       4.183  14.827  18.470  0.00  0.00    +0.000 C 
ATOM     14  C   UNL     1       4.459  14.953  19.976  0.00  0.00    +0.000 C 
ATOM     15  C   UNL     1       5.891  15.459  20.044  0.00  0.00    +0.000 C 
ATOM     16  N   UNL     1       6.541  14.787  18.940  0.00  0.00    +0.000 N 
ATOM     17  C   UNL     1       7.861  14.405  18.989  0.00  0.00    +0.000 C 
ATOM     18  C   UNL     1       8.413  13.617  17.823  0.00  0.00    +0.000 C 
ATOM     19  O   UNL     1       8.584  14.665  19.951  0.00  0.00    +0.000 OA
ATOM     20  C   UNL     1       5.578  14.477  17.899  0.00  0.00    +0.000 C 
ENDBRANCH   9  13
BRANCH   1  24
ATOM     21  C   UNL     1       3.090   6.353  18.872  0.00  0.00    +0.000 A 
ATOM     22  C   UNL     1       3.228   7.153  17.752  0.00  0.00    +0.000 A 
ATOM     23  C   UNL     1       2.589   8.397  17.737  0.00  0.00    +0.000 A 
ATOM     24  C   UNL     1       1.816   8.814  18.831  0.00  0.00    +0.000 A 
ATOM     25  C   UNL     1       1.741   7.905  19.892  0.00  0.00    +0.000 A 
ATOM     26  N   UNL     1       2.361   6.704  19.946  0.00  0.00    +0.000 NA
BRANCH  21  28
ATOM     27  C   UNL     1       5.120   5.241  19.165  0.00  0.00    +0.000 C 
ATOM     28  O   UNL     1       3.732   5.132  18.853  0.00  0.00    +0.000 OA
ENDBRANCH  21  28
ENDBRANCH   1  24
TORSDOF 3
ENDMDL
MODEL 7
REMARK VINA RESULT:      -7.0      1.257      1.442
REMARK  Name = 
REMARK  5 active torsions:
REMARK  status: ('A' for Active; 'I' for Inactive)
REMARK    1  A    between atoms: C_1  and  O_2
REMARK    2  A    between atoms: O_2  and  C_3
REMARK    3  A    between atoms: C_6  and  C_7
REMARK    4  A    between atoms: N_15  and  C_16
REMARK    5  A    between atoms: C_20  and  C_21
REMARK                            x       y       z     vdW  Elec       q    Type
REMARK                         _______ _______ _______ _____ _____    ______ ____
ROOT
ATOM      1  C   UNL     1       0.545   9.713  20.953  0.00  0.00    +0.000 A 
ATOM      2  C   UNL     1      -0.018   9.211  22.130  0.00  0.00    +0.000 A 
ATOM      3  C   UNL     1      -0.725  10.048  23.013  0.00  0.00    +0.000 A 
ATOM      4  C   UNL     1      -0.883  11.410  22.779  0.00  0.00    +0.000 A 
ATOM      5  N   UNL     1      -1.554  12.169  23.651  0.00  0.00    +0.000 NA
ATOM      6  C   UNL     1      -1.620  13.483  23.378  0.00  0.00    +0.000 A 
ATOM      7  N   UNL     1      -1.070  14.111  22.328  0.00  0.00    +0.000 NA
ATOM      8  C   UNL     1      -0.418  13.330  21.461  0.00  0.00    +0.000 A 
ATOM      9  N   UNL     1       0.147  13.896  20.310  0.00  0.00    +0.000 N 
ATOM     10  C   UNL     1      -0.312  11.937  21.623  0.00  0.00    +0.000 A 
ATOM     11  C   UNL     1       0.373  11.085  20.720  0.00  0.00    +0.000 A 
ATOM     12  H   UNL     1      -0.471  13.680  19.531  0.00  0.00    +0.000 HD
ENDROOT
BRANCH   9  13
ATOM     13  C   UNL     1       0.578  15.291  20.316  0.00  0.00    +0.000 C 
ATOM     14  C   UNL     1       1.692  15.571  21.336  0.00  0.00    +0.000 C 
ATOM     15  C   UNL     1       2.531  16.652  20.674  0.00  0.00    +0.000 C 
ATOM     16  N   UNL     1       2.497  16.298  19.271  0.00  0.00    +0.000 N 
ATOM     17  C   UNL     1       3.558  16.532  18.430  0.00  0.00    +0.000 C 
ATOM     18  C   UNL     1       3.458  16.029  17.009  0.00  0.00    +0.000 C 
ATOM     19  O   UNL     1       4.579  17.109  18.806  0.00  0.00    +0.000 OA
ATOM     20  C   UNL     1       1.280  15.568  18.964  0.00  0.00    +0.000 C 
ENDBRANCH   9  13
BRANCH   1  24
ATOM     21  C   UNL     1       2.776   7.224  18.326  0.00  0.00    +0.000 A 
ATOM     22  C   UNL     1       2.313   8.430  17.833  0.00  0.00    +0.000 A 
ATOM     23  C   UNL     1       1.574   9.259  18.683  0.00  0.00    +0.000 A 
ATOM     24  C   UNL     1       1.300   8.868  20.001  0.00  0.00    +0.000 A 
ATOM     25  C   UNL     1       1.808   7.617  20.371  0.00  0.00    +0.000 A 
ATOM     26  N   UNL     1       2.542   6.799  19.581  0.00  0.00    +0.000 NA
BRANCH  21  28
ATOM     27  C   UNL     1       3.965   5.231  18.083  0.00  0.00    +0.000 C 
ATOM     28  O   UNL     1       3.500   6.430  17.463  0.00  0.00    +0.000 OA
ENDBRANCH  21  28
ENDBRANCH   1  24
TORSDOF 3
ENDMDL
MODEL 8
REMARK VINA RESULT:      -7.0      4.170      8.198
REMARK  Name = 
REMARK  5 active torsions:
REMARK  status: ('A' for Active; 'I' for Inactive)
REMARK    1  A    between atoms: C_1  and  O_2
REMARK    2  A    between atoms: O_2  and  C_3
REMARK    3  A    between atoms: C_6  and  C_7
REMARK    4  A    between atoms: N_15  and  C_16
REMARK    5  A    between atoms: C_20  and  C_21
REMARK                            x       y       z     vdW  Elec       q    Type
REMARK                         _______ _______ _______ _____ _____    ______ ____
ROOT
ATOM      1  C   UNL     1      -1.512  10.579  18.988  0.00  0.00    +0.000 A 
ATOM      2  C   UNL     1      -1.898  11.445  20.016  0.00  0.00    +0.000 A 
ATOM      3  C   UNL     1      -1.255  11.422  21.267  0.00  0.00    +0.000 A 
ATOM      4  C   UNL     1      -0.227  10.532  21.557  0.00  0.00    +0.000 A 
ATOM      5  N   UNL     1       0.349  10.538  22.764  0.00  0.00    +0.000 NA
ATOM      6  C   UNL     1       1.301   9.615  22.982  0.00  0.00    +0.000 A 
ATOM      7  N   UNL     1       1.722   8.680  22.117  0.00  0.00    +0.000 NA
ATOM      8  C   UNL     1       1.144   8.703  20.911  0.00  0.00    +0.000 A 
ATOM      9  N   UNL     1       1.557   7.792  19.930  0.00  0.00    +0.000 N 
ATOM     10  C   UNL     1       0.161   9.644  20.556  0.00  0.00    +0.000 A 
ATOM     11  C   UNL     1      -0.467   9.691  19.286  0.00  0.00    +0.000 A 
ATOM     12  H   UNL     1       2.162   8.295  19.283  0.00  0.00    +0.000 HD
ENDROOT
BRANCH   9  13
ATOM     13  C   UNL     1       2.105   6.495  20.318  0.00  0.00    +0.000 C 
ATOM     14  C   UNL     1       1.064   5.367  20.276  0.00  0.00    +0.000 C 
ATOM     15  C   UNL     1       1.866   4.144  19.864  0.00  0.00    +0.000 C 
ATOM     16  N   UNL     1       2.836   4.673  18.929  0.00  0.00    +0.000 N 
ATOM     17  C   UNL     1       3.294   3.944  17.857  0.00  0.00    +0.000 C 
ATOM     18  C   UNL     1       4.227   4.628  16.885  0.00  0.00    +0.000 C 
ATOM     19  O   UNL     1       2.951   2.778  17.661  0.00  0.00    +0.000 OA
ATOM     20  C   UNL     1       3.111   6.067  19.222  0.00  0.00    +0.000 C 
ENDBRANCH   9  13
BRANCH   1  24
ATOM     21  C   UNL     1      -3.502  10.599  15.233  0.00  0.00    +0.000 A 
ATOM     22  C   UNL     1      -2.463   9.703  15.406  0.00  0.00    +0.000 A 
ATOM     23  C   UNL     1      -1.796   9.685  16.635  0.00  0.00    +0.000 A 
ATOM     24  C   UNL     1      -2.165  10.567  17.660  0.00  0.00    +0.000 A 
ATOM     25  C   UNL     1      -3.217  11.437  17.351  0.00  0.00    +0.000 A 
ATOM     26  N   UNL     1      -3.897  11.467  16.181  0.00  0.00    +0.000 NA
BRANCH  21  28
ATOM     27  C   UNL     1      -3.485   9.753  13.058  0.00  0.00    +0.000 C 
ATOM     28  O   UNL     1      -4.139  10.592  14.009  0.00  0.00    +0.000 OA
ENDBRANCH  21  28
ENDBRANCH   1  24
TORSDOF 3
ENDMDL
MODEL 9
REMARK VINA RESULT:      -6.9      1.807      2.207
REMARK  Name = 
REMARK  5 active torsions:
REMARK  status: ('A' for Active; 'I' for Inactive)
REMARK    1  A    between atoms: C_1  and  O_2
REMARK    2  A    between atoms: O_2  and  C_3
REMARK    3  A    between atoms: C_6  and  C_7
REMARK    4  A    between atoms: N_15  and  C_16
REMARK    5  A    between atoms: C_20  and  C_21
REMARK                            x       y       z     vdW  Elec       q    Type
REMARK                         _______ _______ _______ _____ _____    ______ ____
ROOT
ATOM      1  C   UNL     1       0.794   9.212  20.807  0.00  0.00    +0.000 A 
ATOM      2  C   UNL     1       0.008   8.775  21.878  0.00  0.00    +0.000 A 
ATOM      3  C   UNL     1      -0.682   9.690  22.694  0.00  0.00    +0.000 A 
ATOM      4  C   UNL     1      -0.604  11.064  22.499  0.00  0.00    +0.000 A 
ATOM      5  N   UNL     1      -1.269  11.897  23.307  0.00  0.00    +0.000 NA
ATOM      6  C   UNL     1      -1.105  13.212  23.083  0.00  0.00    +0.000 A 
ATOM      7  N   UNL     1      -0.330  13.773  22.143  0.00  0.00    +0.000 NA
ATOM      8  C   UNL     1       0.313  12.921  21.336  0.00  0.00    +0.000 A 
ATOM      9  N   UNL     1       1.106  13.420  20.295  0.00  0.00    +0.000 N 
ATOM     10  C   UNL     1       0.190  11.524  21.452  0.00  0.00    +0.000 A 
ATOM     11  C   UNL     1       0.859  10.599  20.611  0.00  0.00    +0.000 A 
ATOM     12  H   UNL     1       0.576  13.318  19.432  0.00  0.00    +0.000 HD
ENDROOT
BRANCH   9  13
ATOM     13  C   UNL     1       1.733  14.734  20.416  0.00  0.00    +0.000 C 
ATOM     14  C   UNL     1       2.627  14.859  21.659  0.00  0.00    +0.000 C 
ATOM     15  C   UNL     1       3.744  15.789  21.213  0.00  0.00    +0.000 C 
ATOM     16  N   UNL     1       3.963  15.419  19.831  0.00  0.00    +0.000 N 
ATOM     17  C   UNL     1       5.205  15.474  19.245  0.00  0.00    +0.000 C 
ATOM     18  C   UNL     1       5.342  14.967  17.829  0.00  0.00    +0.000 C 
ATOM     19  O   UNL     1       6.195  15.897  19.844  0.00  0.00    +0.000 OA
ATOM     20  C   UNL     1       2.746  14.877  19.255  0.00  0.00    +0.000 C 
ENDBRANCH   9  13
BRANCH   1  24
ATOM     21  C   UNL     1       2.986   6.482  18.395  0.00  0.00    +0.000 A 
ATOM     22  C   UNL     1       2.657   7.708  17.845  0.00  0.00    +0.000 A 
ATOM     23  C   UNL     1       1.933   8.616  18.623  0.00  0.00    +0.000 A 
ATOM     24  C   UNL     1       1.541   8.284  19.928  0.00  0.00    +0.000 A 
ATOM     25  C   UNL     1       1.919   7.007  20.359  0.00  0.00    +0.000 A 
ATOM     26  N   UNL     1       2.635   6.112  19.640  0.00  0.00    +0.000 NA
BRANCH  21  28
ATOM     27  C   UNL     1       3.852   4.324  18.203  0.00  0.00    +0.000 C 
ATOM     28  O   UNL     1       3.699   5.609  17.601  0.00  0.00    +0.000 OA
ENDBRANCH  21  28
ENDBRANCH   1  24
TORSDOF 3
ENDMDL
