MODEL 1
REMARK VINA RESULT:      -8.4      0.000      0.000
REMARK  Name = 
REMARK  6 active torsions:
REMARK  status: ('A' for Active; 'I' for Inactive)
REMARK    1  A    between atoms: C_2  and  O_3
REMARK    2  A    between atoms: C_2  and  C_4
REMARK    3  A    between atoms: C_12  and  C_13
REMARK    4  A    between atoms: C_13  and  O_15
REMARK    5  A    between atoms: C_18  and  O_19
REMARK    6  A    between atoms: O_19  and  C_20
REMARK                            x       y       z     vdW  Elec       q    Type
REMARK                         _______ _______ _______ _____ _____    ______ ____
ROOT
ATOM      1  C   UNL     1       3.401   2.698  20.437  0.00  0.00    +0.000 A 
ATOM      2  C   UNL     1       2.086   2.583  20.915  0.00  0.00    +0.000 A 
ATOM      3  C   UNL     1       1.077   3.422  20.449  0.00  0.00    +0.000 A 
ATOM      4  C   UNL     1       1.361   4.431  19.521  0.00  0.00    +0.000 A 
ATOM      5  C   UNL     1       2.694   4.671  19.129  0.00  0.00    +0.000 A 
ATOM      6  C   UNL     1       3.655   3.758  19.561  0.00  0.00    +0.000 A 
ATOM      7  O   UNL     1       4.857   4.048  18.990  0.00  0.00    +0.000 OA
ATOM      8  C   UNL     1       4.709   5.196  18.270  0.00  0.00    +0.000 A 
ATOM      9  C   UNL     1       5.729   5.815  17.537  0.00  0.00    +0.000 A 
ATOM     10  C   UNL     1       5.416   7.030  16.922  0.00  0.00    +0.000 A 
ATOM     11  C   UNL     1       4.147   7.591  17.052  0.00  0.00    +0.000 A 
ATOM     12  C   UNL     1       3.136   6.955  17.800  0.00  0.00    +0.000 A 
ATOM     13  C   UNL     1       3.401   5.684  18.385  0.00  0.00    +0.000 A 
ENDROOT
BRANCH   1  15
ATOM     14  O   UNL     1       4.448   1.266  21.996  0.00  0.00    +0.000 OA
ATOM     15  C   UNL     1       4.412   1.706  20.861  0.00  0.00    +0.000 C 
BRANCH  15  16
ATOM     16  O   UNL     1       5.263   1.295  19.899  0.00  0.00    +0.000 OA
ATOM     17  H   UNL     1       5.588   1.990  19.295  0.00  0.00    +0.000 HD
ENDBRANCH  15  16
ENDBRANCH   1  15
BRANCH   9  18
ATOM     18  C   UNL     1       7.085   5.260  17.409  0.00  0.00    +0.000 C 
ATOM     19  O   UNL     1       7.624   5.102  16.328  0.00  0.00    +0.000 OA
BRANCH  18  20
ATOM     20  O   UNL     1       7.662   4.899  18.578  0.00  0.00    +0.000 OA
ATOM     21  H   UNL     1       7.583   5.555  19.299  0.00  0.00    +0.000 HD
ENDBRANCH  18  20
ENDBRANCH   9  18
BRANCH  12  22
ATOM     22  O   UNL     1       1.943   7.685  17.818  0.00  0.00    +0.000 OA
BRANCH  22  23
ATOM     23  C   UNL     1       1.705   8.640  18.775  0.00  0.00    +0.000 A 
ATOM     24  C   UNL     1       1.550   8.393  20.139  0.00  0.00    +0.000 A 
ATOM     25  C   UNL     1       1.104   9.421  20.972  0.00  0.00    +0.000 A 
ATOM     26 CL   UNL     1       0.678   9.062  22.600  0.00  0.00    +0.000 Cl
ATOM     27  C   UNL     1       0.913  10.711  20.479  0.00  0.00    +0.000 A 
ATOM     28  C   UNL     1       1.196  10.974  19.142  0.00  0.00    +0.000 A 
ATOM     29 CL   UNL     1       0.978  12.562  18.519  0.00  0.00    +0.000 Cl
ATOM     30  C   UNL     1       1.599   9.948  18.290  0.00  0.00    +0.000 A 
ENDBRANCH  22  23
ENDBRANCH  12  22
TORSDOF 6
ENDMDL
MODEL 2
REMARK VINA RESULT:      -8.1      3.331      5.716
REMARK  Name = 
REMARK  6 active torsions:
REMARK  status: ('A' for Active; 'I' for Inactive)
REMARK    1  A    between atoms: C_2  and  O_3
REMARK    2  A    between atoms: C_2  and  C_4
REMARK    3  A    between atoms: C_12  and  C_13
REMARK    4  A    between atoms: C_13  and  O_15
REMARK    5  A    between atoms: C_18  and  O_19
REMARK    6  A    between atoms: O_19  and  C_20
REMARK                            x       y       z     vdW  Elec       q    Type
REMARK                         _______ _______ _______ _____ _____    ______ ____
ROOT
ATOM      1  C   UNL     1       2.523   3.294  20.187  0.00  0.00    +0.000 A 
ATOM      2  C   UNL     1       3.239   2.398  19.377  0.00  0.00    +0.000 A 
ATOM      3  C   UNL     1       4.015   2.854  18.315  0.00  0.00    +0.000 A 
ATOM      4  C   UNL     1       4.067   4.218  18.004  0.00  0.00    +0.000 A 
ATOM      5  C   UNL     1       3.248   5.130  18.702  0.00  0.00    +0.000 A 
ATOM      6  C   UNL     1       2.550   4.638  19.803  0.00  0.00    +0.000 A 
ATOM      7  O   UNL     1       1.923   5.662  20.446  0.00  0.00    +0.000 OA
ATOM      8  C   UNL     1       2.125   6.796  19.719  0.00  0.00    +0.000 A 
ATOM      9  C   UNL     1       1.632   8.061  20.060  0.00  0.00    +0.000 A 
ATOM     10  C   UNL     1       1.872   9.098  19.154  0.00  0.00    +0.000 A 
ATOM     11  C   UNL     1       2.563   8.864  17.966  0.00  0.00    +0.000 A 
ATOM     12  C   UNL     1       3.046   7.581  17.639  0.00  0.00    +0.000 A 
ATOM     13  C   UNL     1       2.876   6.517  18.569  0.00  0.00    +0.000 A 
ENDROOT
BRANCH   1  15
ATOM     14  O   UNL     1       2.414   2.295  22.324  0.00  0.00    +0.000 OA
ATOM     15  C   UNL     1       1.817   2.781  21.380  0.00  0.00    +0.000 C 
BRANCH  15  16
ATOM     16  O   UNL     1       0.476   2.921  21.368  0.00  0.00    +0.000 OA
ATOM     17  H   UNL     1       0.104   3.498  22.063  0.00  0.00    +0.000 HD
ENDBRANCH  15  16
ENDBRANCH   1  15
BRANCH   9  18
ATOM     18  C   UNL     1       0.873   8.330  21.291  0.00  0.00    +0.000 C 
ATOM     19  O   UNL     1      -0.339   8.219  21.346  0.00  0.00    +0.000 OA
BRANCH  18  20
ATOM     20  O   UNL     1       1.622   8.751  22.337  0.00  0.00    +0.000 OA
ATOM     21  H   UNL     1       1.722   8.103  23.063  0.00  0.00    +0.000 HD
ENDBRANCH  18  20
ENDBRANCH   9  18
BRANCH  12  22
ATOM     22  O   UNL     1       3.698   7.554  16.402  0.00  0.00    +0.000 OA
BRANCH  22  23
ATOM     23  C   UNL     1       4.895   6.902  16.241  0.00  0.00    +0.000 A 
ATOM     24  C   UNL     1       5.198   6.014  15.210  0.00  0.00    +0.000 A 
ATOM     25  C   UNL     1       6.371   5.260  15.280  0.00  0.00    +0.000 A 
ATOM     26 CL   UNL     1       6.630   3.994  14.143  0.00  0.00    +0.000 Cl
ATOM     27  C   UNL     1       7.290   5.458  16.310  0.00  0.00    +0.000 A 
ATOM     28  C   UNL     1       7.036   6.440  17.263  0.00  0.00    +0.000 A 
ATOM     29 CL   UNL     1       8.164   6.707  18.534  0.00  0.00    +0.000 Cl
ATOM     30  C   UNL     1       5.849   7.168  17.230  0.00  0.00    +0.000 A 
ENDBRANCH  22  23
ENDBRANCH  12  22
TORSDOF 6
ENDMDL
MODEL 3
REMARK VINA RESULT:      -8.0      3.494      6.671
REMARK  Name = 
REMARK  6 active torsions:
REMARK  status: ('A' for Active; 'I' for Inactive)
REMARK    1  A    between atoms: C_2  and  O_3
REMARK    2  A    between atoms: C_2  and  C_4
REMARK    3  A    between atoms: C_12  and  C_13
REMARK    4  A    between atoms: C_13  and  O_15
REMARK    5  A    between atoms: C_18  and  O_19
REMARK    6  A    between atoms: O_19  and  C_20
REMARK                            x       y       z     vdW  Elec       q    Type
REMARK                         _______ _______ _______ _____ _____    ______ ____
ROOT
ATOM      1  C   UNL     1       1.623   7.957  20.048  0.00  0.00    +0.000 A 
ATOM      2  C   UNL     1       1.767   8.961  19.078  0.00  0.00    +0.000 A 
ATOM      3  C   UNL     1       2.094   8.645  17.762  0.00  0.00    +0.000 A 
ATOM      4  C   UNL     1       2.328   7.318  17.384  0.00  0.00    +0.000 A 
ATOM      5  C   UNL     1       2.337   6.300  18.361  0.00  0.00    +0.000 A 
ATOM      6  C   UNL     1       1.929   6.653  19.645  0.00  0.00    +0.000 A 
ATOM      7  O   UNL     1       1.860   5.541  20.429  0.00  0.00    +0.000 OA
ATOM      8  C   UNL     1       2.313   4.487  19.696  0.00  0.00    +0.000 A 
ATOM      9  C   UNL     1       2.394   3.168  20.160  0.00  0.00    +0.000 A 
ATOM     10  C   UNL     1       2.957   2.227  19.293  0.00  0.00    +0.000 A 
ATOM     11  C   UNL     1       3.421   2.603  18.034  0.00  0.00    +0.000 A 
ATOM     12  C   UNL     1       3.336   3.937  17.588  0.00  0.00    +0.000 A 
ATOM     13  C   UNL     1       2.708   4.908  18.419  0.00  0.00    +0.000 A 
ENDROOT
BRANCH   1  15
ATOM     14  O   UNL     1      -0.023   8.231  21.719  0.00  0.00    +0.000 OA
ATOM     15  C   UNL     1       1.149   8.323  21.400  0.00  0.00    +0.000 C 
BRANCH  15  16
ATOM     16  O   UNL     1       2.103   8.727  22.262  0.00  0.00    +0.000 OA
ATOM     17  H   UNL     1       2.795   9.307  21.888  0.00  0.00    +0.000 HD
ENDBRANCH  15  16
ENDBRANCH   1  15
BRANCH   9  18
ATOM     18  C   UNL     1       1.941   2.751  21.495  0.00  0.00    +0.000 C 
ATOM     19  O   UNL     1       2.713   2.354  22.350  0.00  0.00    +0.000 OA
BRANCH  18  20
ATOM     20  O   UNL     1       0.601   2.799  21.679  0.00  0.00    +0.000 OA
ATOM     21  H   UNL     1       0.278   2.355  22.489  0.00  0.00    +0.000 HD
ENDBRANCH  18  20
ENDBRANCH   9  18
BRANCH  12  22
ATOM     22  O   UNL     1       3.867   4.109  16.305  0.00  0.00    +0.000 OA
BRANCH  22  23
ATOM     23  C   UNL     1       5.129   4.612  16.118  0.00  0.00    +0.000 A 
ATOM     24  C   UNL     1       5.859   5.330  17.064  0.00  0.00    +0.000 A 
ATOM     25  C   UNL     1       7.041   5.966  16.676  0.00  0.00    +0.000 A 
ATOM     26 CL   UNL     1       7.814   7.049  17.769  0.00  0.00    +0.000 Cl
ATOM     27  C   UNL     1       7.551   5.808  15.389  0.00  0.00    +0.000 A 
ATOM     28  C   UNL     1       6.879   4.982  14.492  0.00  0.00    +0.000 A 
ATOM     29 CL   UNL     1       7.500   4.765  12.903  0.00  0.00    +0.000 Cl
ATOM     30  C   UNL     1       5.676   4.378  14.851  0.00  0.00    +0.000 A 
ENDBRANCH  22  23
ENDBRANCH  12  22
TORSDOF 6
ENDMDL
MODEL 4
REMARK VINA RESULT:      -7.9      2.092      4.805
REMARK  Name = 
REMARK  6 active torsions:
REMARK  status: ('A' for Active; 'I' for Inactive)
REMARK    1  A    between atoms: C_2  and  O_3
REMARK    2  A    between atoms: C_2  and  C_4
REMARK    3  A    between atoms: C_12  and  C_13
REMARK    4  A    between atoms: C_13  and  O_15
REMARK    5  A    between atoms: C_18  and  O_19
REMARK    6  A    between atoms: O_19  and  C_20
REMARK                            x       y       z     vdW  Elec       q    Type
REMARK                         _______ _______ _______ _____ _____    ______ ____
ROOT
ATOM      1  C   UNL     1       5.524   4.927  16.154  0.00  0.00    +0.000 A 
ATOM      2  C   UNL     1       6.365   6.048  16.070  0.00  0.00    +0.000 A 
ATOM      3  C   UNL     1       6.310   7.060  17.025  0.00  0.00    +0.000 A 
ATOM      4  C   UNL     1       5.382   7.002  18.072  0.00  0.00    +0.000 A 
ATOM      5  C   UNL     1       4.424   5.968  18.106  0.00  0.00    +0.000 A 
ATOM      6  C   UNL     1       4.570   4.940  17.176  0.00  0.00    +0.000 A 
ATOM      7  O   UNL     1       3.660   3.958  17.427  0.00  0.00    +0.000 OA
ATOM      8  C   UNL     1       2.862   4.381  18.447  0.00  0.00    +0.000 A 
ATOM      9  C   UNL     1       1.804   3.644  18.992  0.00  0.00    +0.000 A 
ATOM     10  C   UNL     1       1.044   4.268  19.984  0.00  0.00    +0.000 A 
ATOM     11  C   UNL     1       1.331   5.569  20.393  0.00  0.00    +0.000 A 
ATOM     12  C   UNL     1       2.398   6.297  19.828  0.00  0.00    +0.000 A 
ATOM     13  C   UNL     1       3.233   5.667  18.862  0.00  0.00    +0.000 A 
ENDROOT
BRANCH   1  15
ATOM     14  O   UNL     1       5.825   4.011  13.998  0.00  0.00    +0.000 OA
ATOM     15  C   UNL     1       5.705   3.817  15.195  0.00  0.00    +0.000 C 
BRANCH  15  16
ATOM     16  O   UNL     1       5.764   2.584  15.736  0.00  0.00    +0.000 OA
ATOM     17  H   UNL     1       6.653   2.179  15.772  0.00  0.00    +0.000 HD
ENDBRANCH  15  16
ENDBRANCH   1  15
BRANCH   9  18
ATOM     18  C   UNL     1       1.459   2.282  18.557  0.00  0.00    +0.000 C 
ATOM     19  O   UNL     1       0.305   1.904  18.454  0.00  0.00    +0.000 OA
BRANCH  18  20
ATOM     20  O   UNL     1       2.520   1.474  18.327  0.00  0.00    +0.000 OA
ATOM     21  H   UNL     1       2.766   1.371  17.387  0.00  0.00    +0.000 HD
ENDBRANCH  18  20
ENDBRANCH   9  18
BRANCH  12  22
ATOM     22  O   UNL     1       2.512   7.584  20.364  0.00  0.00    +0.000 OA
BRANCH  22  23
ATOM     23  C   UNL     1       1.444   8.446  20.383  0.00  0.00    +0.000 A 
ATOM     24  C   UNL     1       0.904   9.087  19.269  0.00  0.00    +0.000 A 
ATOM     25  C   UNL     1      -0.042  10.097  19.453  0.00  0.00    +0.000 A 
ATOM     26 CL   UNL     1      -0.528  11.054  18.108  0.00  0.00    +0.000 Cl
ATOM     27  C   UNL     1      -0.529  10.400  20.724  0.00  0.00    +0.000 A 
ATOM     28  C   UNL     1      -0.077   9.663  21.815  0.00  0.00    +0.000 A 
ATOM     29 CL   UNL     1      -0.675  10.014  23.389  0.00  0.00    +0.000 Cl
ATOM     30  C   UNL     1       0.900   8.683  21.651  0.00  0.00    +0.000 A 
ENDBRANCH  22  23
ENDBRANCH  12  22
TORSDOF 6
ENDMDL
MODEL 5
REMARK VINA RESULT:      -7.8      3.681      7.052
REMARK  Name = 
REMARK  6 active torsions:
REMARK  status: ('A' for Active; 'I' for Inactive)
REMARK    1  A    between atoms: C_2  and  O_3
REMARK    2  A    between atoms: C_2  and  C_4
REMARK    3  A    between atoms: C_12  and  C_13
REMARK    4  A    between atoms: C_13  and  O_15
REMARK    5  A    between atoms: C_18  and  O_19
REMARK    6  A    between atoms: O_19  and  C_20
REMARK                            x       y       z     vdW  Elec       q    Type
REMARK                         _______ _______ _______ _____ _____    ______ ____
ROOT
ATOM      1  C   UNL     1       0.888   9.042  21.036  0.00  0.00    +0.000 A 
ATOM      2  C   UNL     1       0.974  10.250  20.325  0.00  0.00    +0.000 A 
ATOM      3  C   UNL     1       1.450  10.279  19.017  0.00  0.00    +0.000 A 
ATOM      4  C   UNL     1       1.894   9.107  18.393  0.00  0.00    +0.000 A 
ATOM      5  C   UNL     1       1.960   7.903  19.124  0.00  0.00    +0.000 A 
ATOM      6  C   UNL     1       1.401   7.907  20.401  0.00  0.00    +0.000 A 
ATOM      7  O   UNL     1       1.419   6.646  20.916  0.00  0.00    +0.000 OA
ATOM      8  C   UNL     1       2.072   5.844  20.030  0.00  0.00    +0.000 A 
ATOM      9  C   UNL     1       2.293   4.473  20.207  0.00  0.00    +0.000 A 
ATOM     10  C   UNL     1       3.050   3.824  19.228  0.00  0.00    +0.000 A 
ATOM     11  C   UNL     1       3.562   4.525  18.138  0.00  0.00    +0.000 A 
ATOM     12  C   UNL     1       3.333   5.906  17.980  0.00  0.00    +0.000 A 
ATOM     13  C   UNL     1       2.511   6.586  18.924  0.00  0.00    +0.000 A 
ENDROOT
BRANCH   1  15
ATOM     14  O   UNL     1       0.688   9.708  23.293  0.00  0.00    +0.000 OA
ATOM     15  C   UNL     1       0.257   9.036  22.374  0.00  0.00    +0.000 C 
BRANCH  15  16
ATOM     16  O   UNL     1      -0.844   8.269  22.494  0.00  0.00    +0.000 OA
ATOM     17  H   UNL     1      -1.576   8.656  23.013  0.00  0.00    +0.000 HD
ENDBRANCH  15  16
ENDBRANCH   1  15
BRANCH   9  18
ATOM     18  C   UNL     1       1.791   3.715  21.363  0.00  0.00    +0.000 C 
ATOM     19  O   UNL     1       2.414   3.632  22.407  0.00  0.00    +0.000 OA
BRANCH  18  20
ATOM     20  O   UNL     1       0.612   3.084  21.158  0.00  0.00    +0.000 OA
ATOM     21  H   UNL     1       0.527   2.211  21.592  0.00  0.00    +0.000 HD
ENDBRANCH  18  20
ENDBRANCH   9  18
BRANCH  12  22
ATOM     22  O   UNL     1       3.941   6.423  16.832  0.00  0.00    +0.000 OA
BRANCH  22  23
ATOM     23  C   UNL     1       5.088   5.870  16.322  0.00  0.00    +0.000 A 
ATOM     24  C   UNL     1       5.308   5.564  14.979  0.00  0.00    +0.000 A 
ATOM     25  C   UNL     1       6.431   4.813  14.625  0.00  0.00    +0.000 A 
ATOM     26 CL   UNL     1       6.580   4.226  13.014  0.00  0.00    +0.000 Cl
ATOM     27  C   UNL     1       7.384   4.455  15.578  0.00  0.00    +0.000 A 
ATOM     28  C   UNL     1       7.217   4.879  16.893  0.00  0.00    +0.000 A 
ATOM     29 CL   UNL     1       8.388   4.458  18.081  0.00  0.00    +0.000 Cl
ATOM     30  C   UNL     1       6.080   5.591  17.269  0.00  0.00    +0.000 A 
ENDBRANCH  22  23
ENDBRANCH  12  22
TORSDOF 6
ENDMDL
MODEL 6
REMARK VINA RESULT:      -7.7      1.620      2.102
REMARK  Name = 
REMARK  6 active torsions:
REMARK  status: ('A' for Active; 'I' for Inactive)
REMARK    1  A    between atoms: C_2  and  O_3
REMARK    2  A    between atoms: C_2  and  C_4
REMARK    3  A    between atoms: C_12  and  C_13
REMARK    4  A    between atoms: C_13  and  O_15
REMARK    5  A    between atoms: C_18  and  O_19
REMARK    6  A    between atoms: O_19  and  C_20
REMARK                            x       y       z     vdW  Elec       q    Type
REMARK                         _______ _______ _______ _____ _____    ______ ____
ROOT
ATOM      1  C   UNL     1       3.374   2.988  20.136  0.00  0.00    +0.000 A 
ATOM      2  C   UNL     1       2.467   2.662  21.156  0.00  0.00    +0.000 A 
ATOM      3  C   UNL     1       1.409   3.509  21.474  0.00  0.00    +0.000 A 
ATOM      4  C   UNL     1       1.249   4.730  20.808  0.00  0.00    +0.000 A 
ATOM      5  C   UNL     1       2.222   5.159  19.881  0.00  0.00    +0.000 A 
ATOM      6  C   UNL     1       3.217   4.244  19.541  0.00  0.00    +0.000 A 
ATOM      7  O   UNL     1       3.989   4.754  18.541  0.00  0.00    +0.000 OA
ATOM      8  C   UNL     1       3.568   6.026  18.297  0.00  0.00    +0.000 A 
ATOM      9  C   UNL     1       4.120   6.879  17.334  0.00  0.00    +0.000 A 
ATOM     10  C   UNL     1       3.611   8.179  17.276  0.00  0.00    +0.000 A 
ATOM     11  C   UNL     1       2.608   8.595  18.150  0.00  0.00    +0.000 A 
ATOM     12  C   UNL     1       2.070   7.722  19.117  0.00  0.00    +0.000 A 
ATOM     13  C   UNL     1       2.519   6.372  19.161  0.00  0.00    +0.000 A 
ENDROOT
BRANCH   1  15
ATOM     14  O   UNL     1       5.233   1.587  20.534  0.00  0.00    +0.000 OA
ATOM     15  C   UNL     1       4.405   2.003  19.744  0.00  0.00    +0.000 C 
BRANCH  15  16
ATOM     16  O   UNL     1       4.341   1.569  18.469  0.00  0.00    +0.000 OA
ATOM     17  H   UNL     1       3.918   0.698  18.338  0.00  0.00    +0.000 HD
ENDBRANCH  15  16
ENDBRANCH   1  15
BRANCH   9  18
ATOM     18  C   UNL     1       5.199   6.476  16.420  0.00  0.00    +0.000 C 
ATOM     19  O   UNL     1       5.215   6.805  15.247  0.00  0.00    +0.000 OA
BRANCH  18  20
ATOM     20  O   UNL     1       6.142   5.679  16.973  0.00  0.00    +0.000 OA
ATOM     21  H   UNL     1       6.349   5.869  17.910  0.00  0.00    +0.000 HD
ENDBRANCH  18  20
ENDBRANCH   9  18
BRANCH  12  22
ATOM     22  O   UNL     1       1.087   8.333  19.903  0.00  0.00    +0.000 OA
BRANCH  22  23
ATOM     23  C   UNL     1       0.684   9.623  19.664  0.00  0.00    +0.000 A 
ATOM     24  C   UNL     1       1.124  10.747  20.362  0.00  0.00    +0.000 A 
ATOM     25  C   UNL     1       0.480  11.970  20.162  0.00  0.00    +0.000 A 
ATOM     26 CL   UNL     1       0.852  13.298  21.192  0.00  0.00    +0.000 Cl
ATOM     27  C   UNL     1      -0.523  12.104  19.204  0.00  0.00    +0.000 A 
ATOM     28  C   UNL     1      -0.863  11.004  18.422  0.00  0.00    +0.000 A 
ATOM     29 CL   UNL     1      -2.090  11.153  17.226  0.00  0.00    +0.000 Cl
ATOM     30  C   UNL     1      -0.260   9.767  18.641  0.00  0.00    +0.000 A 
ENDBRANCH  22  23
ENDBRANCH  12  22
TORSDOF 6
ENDMDL
MODEL 7
REMARK VINA RESULT:      -7.6      2.164      4.547
REMARK  Name = 
REMARK  6 active torsions:
REMARK  status: ('A' for Active; 'I' for Inactive)
REMARK    1  A    between atoms: C_2  and  O_3
REMARK    2  A    between atoms: C_2  and  C_4
REMARK    3  A    between atoms: C_12  and  C_13
REMARK    4  A    between atoms: C_13  and  O_15
REMARK    5  A    between atoms: C_18  and  O_19
REMARK    6  A    between atoms: O_19  and  C_20
REMARK                            x       y       z     vdW  Elec       q    Type
REMARK                         _______ _______ _______ _____ _____    ______ ____
ROOT
ATOM      1  C   UNL     1       5.715   4.788  16.226  0.00  0.00    +0.000 A 
ATOM      2  C   UNL     1       6.623   5.858  16.189  0.00  0.00    +0.000 A 
ATOM      3  C   UNL     1       6.606   6.848  17.167  0.00  0.00    +0.000 A 
ATOM      4  C   UNL     1       5.652   6.822  18.192  0.00  0.00    +0.000 A 
ATOM      5  C   UNL     1       4.634   5.846  18.179  0.00  0.00    +0.000 A 
ATOM      6  C   UNL     1       4.740   4.834  17.227  0.00  0.00    +0.000 A 
ATOM      7  O   UNL     1       3.767   3.903  17.434  0.00  0.00    +0.000 OA
ATOM      8  C   UNL     1       2.973   4.349  18.447  0.00  0.00    +0.000 A 
ATOM      9  C   UNL     1       1.860   3.664  18.949  0.00  0.00    +0.000 A 
ATOM     10  C   UNL     1       1.115   4.309  19.940  0.00  0.00    +0.000 A 
ATOM     11  C   UNL     1       1.471   5.581  20.387  0.00  0.00    +0.000 A 
ATOM     12  C   UNL     1       2.591   6.256  19.864  0.00  0.00    +0.000 A 
ATOM     13  C   UNL     1       3.410   5.600  18.901  0.00  0.00    +0.000 A 
ENDROOT
BRANCH   1  15
ATOM     14  O   UNL     1       6.129   3.902  14.076  0.00  0.00    +0.000 OA
ATOM     15  C   UNL     1       5.851   3.691  15.244  0.00  0.00    +0.000 C 
BRANCH  15  16
ATOM     16  O   UNL     1       5.685   2.447  15.733  0.00  0.00    +0.000 OA
ATOM     17  H   UNL     1       5.543   2.386  16.698  0.00  0.00    +0.000 HD
ENDBRANCH  15  16
ENDBRANCH   1  15
BRANCH   9  18
ATOM     18  C   UNL     1       1.445   2.335  18.473  0.00  0.00    +0.000 C 
ATOM     19  O   UNL     1       0.275   1.996  18.430  0.00  0.00    +0.000 OA
BRANCH  18  20
ATOM     20  O   UNL     1       2.463   1.512  18.132  0.00  0.00    +0.000 OA
ATOM     21  H   UNL     1       3.076   1.868  17.460  0.00  0.00    +0.000 HD
ENDBRANCH  18  20
ENDBRANCH   9  18
BRANCH  12  22
ATOM     22  O   UNL     1       2.769   7.521  20.434  0.00  0.00    +0.000 OA
BRANCH  22  23
ATOM     23  C   UNL     1       1.731   8.412  20.530  0.00  0.00    +0.000 A 
ATOM     24  C   UNL     1       1.163   8.864  21.721  0.00  0.00    +0.000 A 
ATOM     25  C   UNL     1      -0.021   9.603  21.676  0.00  0.00    +0.000 A 
ATOM     26 CL   UNL     1      -0.854   9.952  23.141  0.00  0.00    +0.000 Cl
ATOM     27  C   UNL     1      -0.584   9.982  20.458  0.00  0.00    +0.000 A 
ATOM     28  C   UNL     1       0.064   9.635  19.276  0.00  0.00    +0.000 A 
ATOM     29 CL   UNL     1      -0.608  10.103  17.764  0.00  0.00    +0.000 Cl
ATOM     30  C   UNL     1       1.222   8.860  19.306  0.00  0.00    +0.000 A 
ENDBRANCH  22  23
ENDBRANCH  12  22
TORSDOF 6
ENDMDL
MODEL 8
REMARK VINA RESULT:      -7.6      1.662      2.340
REMARK  Name = 
REMARK  6 active torsions:
REMARK  status: ('A' for Active; 'I' for Inactive)
REMARK    1  A    between atoms: C_2  and  O_3
REMARK    2  A    between atoms: C_2  and  C_4
REMARK    3  A    between atoms: C_12  and  C_13
REMARK    4  A    between atoms: C_13  and  O_15
REMARK    5  A    between atoms: C_18  and  O_19
REMARK    6  A    between atoms: O_19  and  C_20
REMARK                            x       y       z     vdW  Elec       q    Type
REMARK                         _______ _______ _______ _____ _____    ______ ____
ROOT
ATOM      1  C   UNL     1       3.374   2.962  20.096  0.00  0.00    +0.000 A 
ATOM      2  C   UNL     1       2.518   2.613  21.153  0.00  0.00    +0.000 A 
ATOM      3  C   UNL     1       1.488   3.461  21.550  0.00  0.00    +0.000 A 
ATOM      4  C   UNL     1       1.307   4.703  20.930  0.00  0.00    +0.000 A 
ATOM      5  C   UNL     1       2.235   5.150  19.967  0.00  0.00    +0.000 A 
ATOM      6  C   UNL     1       3.201   4.236  19.548  0.00  0.00    +0.000 A 
ATOM      7  O   UNL     1       3.926   4.768  18.525  0.00  0.00    +0.000 OA
ATOM      8  C   UNL     1       3.507   6.051  18.341  0.00  0.00    +0.000 A 
ATOM      9  C   UNL     1       4.018   6.928  17.376  0.00  0.00    +0.000 A 
ATOM     10  C   UNL     1       3.521   8.234  17.383  0.00  0.00    +0.000 A 
ATOM     11  C   UNL     1       2.570   8.633  18.321  0.00  0.00    +0.000 A 
ATOM     12  C   UNL     1       2.073   7.737  19.289  0.00  0.00    +0.000 A 
ATOM     13  C   UNL     1       2.508   6.381  19.268  0.00  0.00    +0.000 A 
ENDROOT
BRANCH   1  15
ATOM     14  O   UNL     1       5.231   1.526  20.356  0.00  0.00    +0.000 OA
ATOM     15  C   UNL     1       4.372   1.978  19.622  0.00  0.00    +0.000 C 
BRANCH  15  16
ATOM     16  O   UNL     1       4.242   1.591  18.337  0.00  0.00    +0.000 OA
ATOM     17  H   UNL     1       4.859   2.007  17.704  0.00  0.00    +0.000 HD
ENDBRANCH  15  16
ENDBRANCH   1  15
BRANCH   9  18
ATOM     18  C   UNL     1       5.044   6.542  16.395  0.00  0.00    +0.000 C 
ATOM     19  O   UNL     1       5.050   6.975  15.256  0.00  0.00    +0.000 OA
BRANCH  18  20
ATOM     20  O   UNL     1       5.946   5.639  16.844  0.00  0.00    +0.000 OA
ATOM     21  H   UNL     1       6.445   5.912  17.640  0.00  0.00    +0.000 HD
ENDBRANCH  18  20
ENDBRANCH   9  18
BRANCH  12  22
ATOM     22  O   UNL     1       1.139   8.333  20.142  0.00  0.00    +0.000 OA
BRANCH  22  23
ATOM     23  C   UNL     1       0.530   9.519  19.815  0.00  0.00    +0.000 A 
ATOM     24  C   UNL     1      -0.477   9.671  18.863  0.00  0.00    +0.000 A 
ATOM     25  C   UNL     1      -0.862  10.957  18.476  0.00  0.00    +0.000 A 
ATOM     26 CL   UNL     1      -1.923  11.153  17.134  0.00  0.00    +0.000 Cl
ATOM     27  C   UNL     1      -0.329  12.083  19.101  0.00  0.00    +0.000 A 
ATOM     28  C   UNL     1       0.581  11.913  20.140  0.00  0.00    +0.000 A 
ATOM     29 CL   UNL     1       1.241  13.290  20.931  0.00  0.00    +0.000 Cl
ATOM     30  C   UNL     1       1.007  10.638  20.506  0.00  0.00    +0.000 A 
ENDBRANCH  22  23
ENDBRANCH  12  22
TORSDOF 6
ENDMDL
MODEL 9
REMARK VINA RESULT:      -7.6      0.516      1.775
REMARK  Name = 
REMARK  6 active torsions:
REMARK  status: ('A' for Active; 'I' for Inactive)
REMARK    1  A    between atoms: C_2  and  O_3
REMARK    2  A    between atoms: C_2  and  C_4
REMARK    3  A    between atoms: C_12  and  C_13
REMARK    4  A    between atoms: C_13  and  O_15
REMARK    5  A    between atoms: C_18  and  O_19
REMARK    6  A    between atoms: O_19  and  C_20
REMARK                            x       y       z     vdW  Elec       q    Type
REMARK                         _______ _______ _______ _____ _____    ______ ____
ROOT
ATOM      1  C   UNL     1       3.480   2.522  19.989  0.00  0.00    +0.000 A 
ATOM      2  C   UNL     1       2.173   2.224  20.405  0.00  0.00    +0.000 A 
ATOM      3  C   UNL     1       1.098   3.017  20.015  0.00  0.00    +0.000 A 
ATOM      4  C   UNL     1       1.301   4.158  19.229  0.00  0.00    +0.000 A 
ATOM      5  C   UNL     1       2.613   4.571  18.915  0.00  0.00    +0.000 A 
ATOM      6  C   UNL     1       3.648   3.704  19.261  0.00  0.00    +0.000 A 
ATOM      7  O   UNL     1       4.828   4.176  18.770  0.00  0.00    +0.000 OA
ATOM      8  C   UNL     1       4.585   5.387  18.195  0.00  0.00    +0.000 A 
ATOM      9  C   UNL     1       5.555   6.187  17.579  0.00  0.00    +0.000 A 
ATOM     10  C   UNL     1       5.138   7.436  17.111  0.00  0.00    +0.000 A 
ATOM     11  C   UNL     1       3.818   7.855  17.268  0.00  0.00    +0.000 A 
ATOM     12  C   UNL     1       2.859   7.037  17.897  0.00  0.00    +0.000 A 
ATOM     13  C   UNL     1       3.233   5.732  18.327  0.00  0.00    +0.000 A 
ENDROOT
BRANCH   1  15
ATOM     14  O   UNL     1       5.179   1.641  21.374  0.00  0.00    +0.000 OA
ATOM     15  C   UNL     1       4.574   1.582  20.318  0.00  0.00    +0.000 C 
BRANCH  15  16
ATOM     16  O   UNL     1       4.830   0.639  19.390  0.00  0.00    +0.000 OA
ATOM     17  H   UNL     1       5.419   0.910  18.660  0.00  0.00    +0.000 HD
ENDBRANCH  15  16
ENDBRANCH   1  15
BRANCH   9  18
ATOM     18  C   UNL     1       6.961   5.783  17.428  0.00  0.00    +0.000 C 
ATOM     19  O   UNL     1       7.647   6.153  16.492  0.00  0.00    +0.000 OA
BRANCH  18  20
ATOM     20  O   UNL     1       7.412   4.936  18.381  0.00  0.00    +0.000 OA
ATOM     21  H   UNL     1       7.355   5.274  19.297  0.00  0.00    +0.000 HD
ENDBRANCH  18  20
ENDBRANCH   9  18
BRANCH  12  22
ATOM     22  O   UNL     1       1.600   7.643  17.967  0.00  0.00    +0.000 OA
BRANCH  22  23
ATOM     23  C   UNL     1       1.392   8.770  18.722  0.00  0.00    +0.000 A 
ATOM     24  C   UNL     1       1.431  10.079  18.245  0.00  0.00    +0.000 A 
ATOM     25  C   UNL     1       1.412  11.139  19.155  0.00  0.00    +0.000 A 
ATOM     26 CL   UNL     1       1.705  12.739  18.592  0.00  0.00    +0.000 Cl
ATOM     27  C   UNL     1       1.253  10.908  20.520  0.00  0.00    +0.000 A 
ATOM     28  C   UNL     1       1.085   9.602  20.971  0.00  0.00    +0.000 A 
ATOM     29 CL   UNL     1       0.874   9.299  22.651  0.00  0.00    +0.000 Cl
ATOM     30  C   UNL     1       1.146   8.533  20.079  0.00  0.00    +0.000 A 
ENDBRANCH  22  23
ENDBRANCH  12  22
TORSDOF 6
ENDMDL
