MODEL 1
REMARK VINA RESULT:      -7.9      0.000      0.000
REMARK  Name = 
REMARK  9 active torsions:
REMARK  status: ('A' for Active; 'I' for Inactive)
REMARK    1  A    between atoms: C_1  and  O_2
REMARK    2  A    between atoms: O_2  and  C_3
REMARK    3  A    between atoms: C_5  and  O_6
REMARK    4  A    between atoms: O_6  and  C_7
REMARK    5  A    between atoms: C_7  and  C_8
REMARK    6  A    between atoms: C_14  and  C_15
REMARK    7  A    between atoms: N_17  and  C_18
REMARK    8  A    between atoms: C_26  and  O_27
REMARK    9  A    between atoms: O_27  and  C_28
REMARK                            x       y       z     vdW  Elec       q    Type
REMARK                         _______ _______ _______ _____ _____    ______ ____
ROOT
ATOM      1  C   UNL     1       6.243   4.903  16.018  0.00  0.00    +0.000 A 
ATOM      2  C   UNL     1       5.157   4.048  16.248  0.00  0.00    +0.000 A 
ATOM      3  C   UNL     1       4.000   4.442  16.957  0.00  0.00    +0.000 A 
ATOM      4  C   UNL     1       3.939   5.754  17.478  0.00  0.00    +0.000 A 
ATOM      5  C   UNL     1       5.097   6.555  17.343  0.00  0.00    +0.000 A 
ATOM      6  C   UNL     1       6.233   6.160  16.616  0.00  0.00    +0.000 A 
ENDROOT
BRANCH   4   7
ATOM      7  C   UNL     1       2.761   6.398  18.177  0.00  0.00    +0.000 C 
ATOM      8  O   UNL     1       1.613   6.016  18.004  0.00  0.00    +0.000 OA
ATOM      9  N   UNL     1       2.995   7.507  18.987  0.00  0.00    +0.000 N 
ATOM     10  H   UNL     1       3.776   8.109  18.746  0.00  0.00    +0.000 HD
BRANCH   9  11
ATOM     11  C   UNL     1       1.936   8.135  19.702  0.00  0.00    +0.000 A 
ATOM     12  C   UNL     1       1.469   7.611  20.919  0.00  0.00    +0.000 A 
ATOM     13  C   UNL     1       0.370   8.180  21.565  0.00  0.00    +0.000 A 
ATOM     14  C   UNL     1      -0.267   9.283  21.005  0.00  0.00    +0.000 A 
ATOM     15  C   UNL     1       0.212   9.837  19.816  0.00  0.00    +0.000 A 
ATOM     16  C   UNL     1       1.323   9.277  19.175  0.00  0.00    +0.000 A 
ATOM     17 CL   UNL     1       1.852   9.962  17.679  0.00  0.00    +0.000 Cl
ENDBRANCH   9  11
ENDBRANCH   4   7
BRANCH   1  19
ATOM     18  C   UNL     1       7.197   4.722  13.856  0.00  0.00    +0.000 C 
ATOM     19  O   UNL     1       7.313   4.508  15.264  0.00  0.00    +0.000 OA
ENDBRANCH   1  19
BRANCH   6  20
ATOM     20  O   UNL     1       7.185   7.143  16.590  0.00  0.00    +0.000 OA
ATOM     21  C   UNL     1       7.451   7.892  17.765  0.00  0.00    +0.000 C 
ENDBRANCH   6  20
BRANCH   3  22
ATOM     22  O   UNL     1       3.111   3.389  16.964  0.00  0.00    +0.000 OA
BRANCH  22  23
ATOM     23  C   UNL     1       3.295   2.350  17.911  0.00  0.00    +0.000 C 
BRANCH  23  24
ATOM     24  C   UNL     1       2.650   2.553  19.255  0.00  0.00    +0.000 A 
ATOM     25  C   UNL     1       1.320   2.911  19.442  0.00  0.00    +0.000 A 
ATOM     26  C   UNL     1       0.869   3.061  20.746  0.00  0.00    +0.000 A 
ATOM     27  N   UNL     1       1.640   2.891  21.847  0.00  0.00    +0.000 NA
ATOM     28  C   UNL     1       2.927   2.558  21.638  0.00  0.00    +0.000 A 
ATOM     29  C   UNL     1       3.470   2.390  20.381  0.00  0.00    +0.000 A 
ENDBRANCH  23  24
ENDBRANCH  22  23
ENDBRANCH   3  22
TORSDOF 7
ENDMDL
MODEL 2
REMARK VINA RESULT:      -7.8      2.462      6.424
REMARK  Name = 
REMARK  9 active torsions:
REMARK  status: ('A' for Active; 'I' for Inactive)
REMARK    1  A    between atoms: C_1  and  O_2
REMARK    2  A    between atoms: O_2  and  C_3
REMARK    3  A    between atoms: C_5  and  O_6
REMARK    4  A    between atoms: O_6  and  C_7
REMARK    5  A    between atoms: C_7  and  C_8
REMARK    6  A    between atoms: C_14  and  C_15
REMARK    7  A    between atoms: N_17  and  C_18
REMARK    8  A    between atoms: C_26  and  O_27
REMARK    9  A    between atoms: O_27  and  C_28
REMARK                            x       y       z     vdW  Elec       q    Type
REMARK                         _______ _______ _______ _____ _____    ______ ____
ROOT
ATOM      1  C   UNL     1       0.592   9.068  20.740  0.00  0.00    +0.000 A 
ATOM      2  C   UNL     1       1.047   7.775  21.035  0.00  0.00    +0.000 A 
ATOM      3  C   UNL     1       1.922   7.054  20.193  0.00  0.00    +0.000 A 
ATOM      4  C   UNL     1       2.348   7.652  18.986  0.00  0.00    +0.000 A 
ATOM      5  C   UNL     1       1.778   8.901  18.650  0.00  0.00    +0.000 A 
ATOM      6  C   UNL     1       0.925   9.620  19.506  0.00  0.00    +0.000 A 
ENDROOT
BRANCH   4   7
ATOM      7  C   UNL     1       3.352   7.091  18.001  0.00  0.00    +0.000 C 
ATOM      8  O   UNL     1       3.557   7.611  16.913  0.00  0.00    +0.000 OA
ATOM      9  N   UNL     1       4.008   5.906  18.324  0.00  0.00    +0.000 N 
ATOM     10  H   UNL     1       3.515   5.241  18.912  0.00  0.00    +0.000 HD
BRANCH   9  11
ATOM     11  C   UNL     1       4.990   5.347  17.459  0.00  0.00    +0.000 A 
ATOM     12  C   UNL     1       4.658   4.916  16.164  0.00  0.00    +0.000 A 
ATOM     13  C   UNL     1       5.607   4.285  15.357  0.00  0.00    +0.000 A 
ATOM     14  C   UNL     1       6.899   4.087  15.835  0.00  0.00    +0.000 A 
ATOM     15  C   UNL     1       7.252   4.546  17.105  0.00  0.00    +0.000 A 
ATOM     16  C   UNL     1       6.306   5.192  17.909  0.00  0.00    +0.000 A 
ATOM     17 CL   UNL     1       6.770   5.698  19.495  0.00  0.00    +0.000 Cl
ENDBRANCH   9  11
ENDBRANCH   4   7
BRANCH   1  19
ATOM     18  C   UNL     1       0.074   9.549  23.002  0.00  0.00    +0.000 C 
ATOM     19  O   UNL     1      -0.196   9.762  21.615  0.00  0.00    +0.000 OA
ENDBRANCH   1  19
BRANCH   6  20
ATOM     20  O   UNL     1       0.564  10.824  18.967  0.00  0.00    +0.000 OA
ATOM     21  C   UNL     1      -0.736  10.988  18.422  0.00  0.00    +0.000 C 
ENDBRANCH   6  20
BRANCH   3  22
ATOM     22  O   UNL     1       2.208   5.845  20.792  0.00  0.00    +0.000 OA
BRANCH  22  23
ATOM     23  C   UNL     1       1.413   4.719  20.463  0.00  0.00    +0.000 C 
BRANCH  23  24
ATOM     24  C   UNL     1       2.072   3.664  19.615  0.00  0.00    +0.000 A 
ATOM     25  C   UNL     1       1.616   3.267  18.363  0.00  0.00    +0.000 A 
ATOM     26  C   UNL     1       2.332   2.279  17.700  0.00  0.00    +0.000 A 
ATOM     27  N   UNL     1       3.437   1.671  18.195  0.00  0.00    +0.000 NA
ATOM     28  C   UNL     1       3.849   2.066  19.415  0.00  0.00    +0.000 A 
ATOM     29  C   UNL     1       3.204   3.035  20.154  0.00  0.00    +0.000 A 
ENDBRANCH  23  24
ENDBRANCH  22  23
ENDBRANCH   3  22
TORSDOF 7
ENDMDL
MODEL 3
REMARK VINA RESULT:      -7.7      0.740      1.148
REMARK  Name = 
REMARK  9 active torsions:
REMARK  status: ('A' for Active; 'I' for Inactive)
REMARK    1  A    between atoms: C_1  and  O_2
REMARK    2  A    between atoms: O_2  and  C_3
REMARK    3  A    between atoms: C_5  and  O_6
REMARK    4  A    between atoms: O_6  and  C_7
REMARK    5  A    between atoms: C_7  and  C_8
REMARK    6  A    between atoms: C_14  and  C_15
REMARK    7  A    between atoms: N_17  and  C_18
REMARK    8  A    between atoms: C_26  and  O_27
REMARK    9  A    between atoms: O_27  and  C_28
REMARK                            x       y       z     vdW  Elec       q    Type
REMARK                         _______ _______ _______ _____ _____    ______ ____
ROOT
ATOM      1  C   UNL     1       6.602   5.094  15.793  0.00  0.00    +0.000 A 
ATOM      2  C   UNL     1       5.488   4.278  16.032  0.00  0.00    +0.000 A 
ATOM      3  C   UNL     1       4.512   4.571  17.010  0.00  0.00    +0.000 A 
ATOM      4  C   UNL     1       4.673   5.731  17.802  0.00  0.00    +0.000 A 
ATOM      5  C   UNL     1       5.867   6.468  17.629  0.00  0.00    +0.000 A 
ATOM      6  C   UNL     1       6.820   6.179  16.637  0.00  0.00    +0.000 A 
ENDROOT
BRANCH   4   7
ATOM      7  C   UNL     1       3.700   6.270  18.828  0.00  0.00    +0.000 C 
ATOM      8  O   UNL     1       3.553   5.749  19.924  0.00  0.00    +0.000 OA
ATOM      9  N   UNL     1       2.899   7.354  18.477  0.00  0.00    +0.000 N 
ATOM     10  H   UNL     1       2.643   7.453  17.500  0.00  0.00    +0.000 HD
BRANCH   9  11
ATOM     11  C   UNL     1       1.991   7.933  19.408  0.00  0.00    +0.000 A 
ATOM     12  C   UNL     1       1.596   7.240  20.565  0.00  0.00    +0.000 A 
ATOM     13  C   UNL     1       0.635   7.776  21.425  0.00  0.00    +0.000 A 
ATOM     14  C   UNL     1       0.066   9.014  21.139  0.00  0.00    +0.000 A 
ATOM     15  C   UNL     1       0.478   9.729  20.013  0.00  0.00    +0.000 A 
ATOM     16  C   UNL     1       1.451   9.200  19.160  0.00  0.00    +0.000 A 
ATOM     17 CL   UNL     1       1.895  10.094  17.749  0.00  0.00    +0.000 Cl
ENDBRANCH   9  11
ENDBRANCH   4   7
BRANCH   1  19
ATOM     18  C   UNL     1       6.922   4.677  13.481  0.00  0.00    +0.000 C 
ATOM     19  O   UNL     1       7.486   4.815  14.787  0.00  0.00    +0.000 OA
ENDBRANCH   1  19
BRANCH   6  20
ATOM     20  O   UNL     1       7.850   7.080  16.646  0.00  0.00    +0.000 OA
ATOM     21  C   UNL     1       7.924   8.050  17.679  0.00  0.00    +0.000 C 
ENDBRANCH   6  20
BRANCH   3  22
ATOM     22  O   UNL     1       3.534   3.601  16.957  0.00  0.00    +0.000 OA
BRANCH  22  23
ATOM     23  C   UNL     1       3.597   2.520  17.871  0.00  0.00    +0.000 C 
BRANCH  23  24
ATOM     24  C   UNL     1       2.837   2.691  19.158  0.00  0.00    +0.000 A 
ATOM     25  C   UNL     1       3.367   2.451  20.421  0.00  0.00    +0.000 A 
ATOM     26  C   UNL     1       2.540   2.653  21.517  0.00  0.00    +0.000 A 
ATOM     27  N   UNL     1       1.250   3.060  21.438  0.00  0.00    +0.000 NA
ATOM     28  C   UNL     1       0.758   3.274  20.204  0.00  0.00    +0.000 A 
ATOM     29  C   UNL     1       1.498   3.096  19.053  0.00  0.00    +0.000 A 
ENDBRANCH  23  24
ENDBRANCH  22  23
ENDBRANCH   3  22
TORSDOF 7
ENDMDL
MODEL 4
REMARK VINA RESULT:      -7.5      1.009      1.415
REMARK  Name = 
REMARK  9 active torsions:
REMARK  status: ('A' for Active; 'I' for Inactive)
REMARK    1  A    between atoms: C_1  and  O_2
REMARK    2  A    between atoms: O_2  and  C_3
REMARK    3  A    between atoms: C_5  and  O_6
REMARK    4  A    between atoms: O_6  and  C_7
REMARK    5  A    between atoms: C_7  and  C_8
REMARK    6  A    between atoms: C_14  and  C_15
REMARK    7  A    between atoms: N_17  and  C_18
REMARK    8  A    between atoms: C_26  and  O_27
REMARK    9  A    between atoms: O_27  and  C_28
REMARK                            x       y       z     vdW  Elec       q    Type
REMARK                         _______ _______ _______ _____ _____    ______ ____
ROOT
ATOM      1  C   UNL     1       6.310   5.261  16.303  0.00  0.00    +0.000 A 
ATOM      2  C   UNL     1       5.210   4.404  16.450  0.00  0.00    +0.000 A 
ATOM      3  C   UNL     1       3.977   4.819  16.999  0.00  0.00    +0.000 A 
ATOM      4  C   UNL     1       3.846   6.156  17.439  0.00  0.00    +0.000 A 
ATOM      5  C   UNL     1       5.006   6.964  17.397  0.00  0.00    +0.000 A 
ATOM      6  C   UNL     1       6.222   6.547  16.829  0.00  0.00    +0.000 A 
ENDROOT
BRANCH   4   7
ATOM      7  C   UNL     1       2.590   6.820  17.962  0.00  0.00    +0.000 C 
ATOM      8  O   UNL     1       1.530   6.218  18.065  0.00  0.00    +0.000 OA
ATOM      9  N   UNL     1       2.635   8.178  18.266  0.00  0.00    +0.000 N 
ATOM     10  H   UNL     1       3.279   8.757  17.738  0.00  0.00    +0.000 HD
BRANCH   9  11
ATOM     11  C   UNL     1       1.500   8.853  18.797  0.00  0.00    +0.000 A 
ATOM     12  C   UNL     1       0.737   9.728  18.005  0.00  0.00    +0.000 A 
ATOM     13  C   UNL     1      -0.318  10.455  18.559  0.00  0.00    +0.000 A 
ATOM     14  C   UNL     1      -0.626  10.308  19.908  0.00  0.00    +0.000 A 
ATOM     15  C   UNL     1       0.100   9.413  20.697  0.00  0.00    +0.000 A 
ATOM     16  C   UNL     1       1.147   8.672  20.139  0.00  0.00    +0.000 A 
ATOM     17 CL   UNL     1       2.053   7.614  21.162  0.00  0.00    +0.000 Cl
ENDBRANCH   9  11
ENDBRANCH   4   7
BRANCH   1  19
ATOM     18  C   UNL     1       7.407   4.691  14.280  0.00  0.00    +0.000 C 
ATOM     19  O   UNL     1       7.463   4.841  15.700  0.00  0.00    +0.000 OA
ENDBRANCH   1  19
BRANCH   6  20
ATOM     20  O   UNL     1       7.163   7.539  16.862  0.00  0.00    +0.000 OA
ATOM     21  C   UNL     1       8.017   7.658  17.988  0.00  0.00    +0.000 C 
ENDBRANCH   6  20
BRANCH   3  22
ATOM     22  O   UNL     1       3.100   3.757  16.958  0.00  0.00    +0.000 OA
BRANCH  22  23
ATOM     23  C   UNL     1       3.327   2.654  17.819  0.00  0.00    +0.000 C 
BRANCH  23  24
ATOM     24  C   UNL     1       2.677   2.723  19.174  0.00  0.00    +0.000 A 
ATOM     25  C   UNL     1       1.328   2.987  19.385  0.00  0.00    +0.000 A 
ATOM     26  C   UNL     1       0.874   3.018  20.697  0.00  0.00    +0.000 A 
ATOM     27  N   UNL     1       1.658   2.817  21.783  0.00  0.00    +0.000 NA
ATOM     28  C   UNL     1       2.963   2.577  21.552  0.00  0.00    +0.000 A 
ATOM     29  C   UNL     1       3.509   2.530  20.286  0.00  0.00    +0.000 A 
ENDBRANCH  23  24
ENDBRANCH  22  23
ENDBRANCH   3  22
TORSDOF 7
ENDMDL
MODEL 5
REMARK VINA RESULT:      -7.4      2.483      6.414
REMARK  Name = 
REMARK  9 active torsions:
REMARK  status: ('A' for Active; 'I' for Inactive)
REMARK    1  A    between atoms: C_1  and  O_2
REMARK    2  A    between atoms: O_2  and  C_3
REMARK    3  A    between atoms: C_5  and  O_6
REMARK    4  A    between atoms: O_6  and  C_7
REMARK    5  A    between atoms: C_7  and  C_8
REMARK    6  A    between atoms: C_14  and  C_15
REMARK    7  A    between atoms: N_17  and  C_18
REMARK    8  A    between atoms: C_26  and  O_27
REMARK    9  A    between atoms: O_27  and  C_28
REMARK                            x       y       z     vdW  Elec       q    Type
REMARK                         _______ _______ _______ _____ _____    ______ ____
ROOT
ATOM      1  C   UNL     1       0.525   8.882  20.715  0.00  0.00    +0.000 A 
ATOM      2  C   UNL     1       1.038   7.613  21.017  0.00  0.00    +0.000 A 
ATOM      3  C   UNL     1       1.969   6.941  20.194  0.00  0.00    +0.000 A 
ATOM      4  C   UNL     1       2.391   7.565  18.998  0.00  0.00    +0.000 A 
ATOM      5  C   UNL     1       1.765   8.785  18.653  0.00  0.00    +0.000 A 
ATOM      6  C   UNL     1       0.856   9.455  19.490  0.00  0.00    +0.000 A 
ENDROOT
BRANCH   4   7
ATOM      7  C   UNL     1       3.445   7.061  18.035  0.00  0.00    +0.000 C 
ATOM      8  O   UNL     1       3.750   7.676  17.024  0.00  0.00    +0.000 OA
ATOM      9  N   UNL     1       4.030   5.821  18.282  0.00  0.00    +0.000 N 
ATOM     10  H   UNL     1       3.470   5.124  18.762  0.00  0.00    +0.000 HD
BRANCH   9  11
ATOM     11  C   UNL     1       5.054   5.308  17.437  0.00  0.00    +0.000 A 
ATOM     12  C   UNL     1       4.776   4.909  16.118  0.00  0.00    +0.000 A 
ATOM     13  C   UNL     1       5.766   4.321  15.327  0.00  0.00    +0.000 A 
ATOM     14  C   UNL     1       7.044   4.134  15.846  0.00  0.00    +0.000 A 
ATOM     15  C   UNL     1       7.342   4.561  17.141  0.00  0.00    +0.000 A 
ATOM     16  C   UNL     1       6.356   5.164  17.928  0.00  0.00    +0.000 A 
ATOM     17 CL   UNL     1       6.753   5.632  19.544  0.00  0.00    +0.000 Cl
ENDBRANCH   9  11
ENDBRANCH   4   7
BRANCH   1  19
ATOM     18  C   UNL     1       0.264  10.589  22.339  0.00  0.00    +0.000 C 
ATOM     19  O   UNL     1      -0.318   9.532  21.574  0.00  0.00    +0.000 OA
ENDBRANCH   1  19
BRANCH   6  20
ATOM     20  O   UNL     1       0.446  10.641  18.946  0.00  0.00    +0.000 OA
ATOM     21  C   UNL     1       1.387  11.684  18.748  0.00  0.00    +0.000 C 
ENDBRANCH   6  20
BRANCH   3  22
ATOM     22  O   UNL     1       2.302   5.747  20.796  0.00  0.00    +0.000 OA
BRANCH  22  23
ATOM     23  C   UNL     1       1.553   4.589  20.471  0.00  0.00    +0.000 C 
BRANCH  23  24
ATOM     24  C   UNL     1       2.272   3.531  19.677  0.00  0.00    +0.000 A 
ATOM     25  C   UNL     1       3.416   2.869  20.108  0.00  0.00    +0.000 A 
ATOM     26  C   UNL     1       3.967   1.916  19.262  0.00  0.00    +0.000 A 
ATOM     27  N   UNL     1       3.469   1.594  18.044  0.00  0.00    +0.000 NA
ATOM     28  C   UNL     1       2.368   2.259  17.646  0.00  0.00    +0.000 A 
ATOM     29  C   UNL     1       1.750   3.226  18.412  0.00  0.00    +0.000 A 
ENDBRANCH  23  24
ENDBRANCH  22  23
ENDBRANCH   3  22
TORSDOF 7
ENDMDL
MODEL 6
REMARK VINA RESULT:      -7.3      2.290      6.186
REMARK  Name = 
REMARK  9 active torsions:
REMARK  status: ('A' for Active; 'I' for Inactive)
REMARK    1  A    between atoms: C_1  and  O_2
REMARK    2  A    between atoms: O_2  and  C_3
REMARK    3  A    between atoms: C_5  and  O_6
REMARK    4  A    between atoms: O_6  and  C_7
REMARK    5  A    between atoms: C_7  and  C_8
REMARK    6  A    between atoms: C_14  and  C_15
REMARK    7  A    between atoms: N_17  and  C_18
REMARK    8  A    between atoms: C_26  and  O_27
REMARK    9  A    between atoms: O_27  and  C_28
REMARK                            x       y       z     vdW  Elec       q    Type
REMARK                         _______ _______ _______ _____ _____    ______ ____
ROOT
ATOM      1  C   UNL     1       0.751   8.816  20.347  0.00  0.00    +0.000 A 
ATOM      2  C   UNL     1       1.020   7.554  20.893  0.00  0.00    +0.000 A 
ATOM      3  C   UNL     1       1.972   6.664  20.347  0.00  0.00    +0.000 A 
ATOM      4  C   UNL     1       2.675   7.052  19.184  0.00  0.00    +0.000 A 
ATOM      5  C   UNL     1       2.296   8.274  18.581  0.00  0.00    +0.000 A 
ATOM      6  C   UNL     1       1.364   9.161  19.145  0.00  0.00    +0.000 A 
ENDROOT
BRANCH   4   7
ATOM      7  C   UNL     1       3.795   6.293  18.505  0.00  0.00    +0.000 C 
ATOM      8  O   UNL     1       4.549   5.555  19.123  0.00  0.00    +0.000 OA
ATOM      9  N   UNL     1       4.009   6.502  17.145  0.00  0.00    +0.000 N 
ATOM     10  H   UNL     1       3.771   7.413  16.766  0.00  0.00    +0.000 HD
BRANCH   9  11
ATOM     11  C   UNL     1       5.020   5.791  16.440  0.00  0.00    +0.000 A 
ATOM     12  C   UNL     1       4.716   4.636  15.699  0.00  0.00    +0.000 A 
ATOM     13  C   UNL     1       5.728   3.894  15.088  0.00  0.00    +0.000 A 
ATOM     14  C   UNL     1       7.053   4.304  15.204  0.00  0.00    +0.000 A 
ATOM     15  C   UNL     1       7.364   5.471  15.904  0.00  0.00    +0.000 A 
ATOM     16  C   UNL     1       6.349   6.224  16.504  0.00  0.00    +0.000 A 
ATOM     17 CL   UNL     1       6.782   7.634  17.405  0.00  0.00    +0.000 Cl
ENDBRANCH   9  11
ENDBRANCH   4   7
BRANCH   1  19
ATOM     18  C   UNL     1      -0.331   9.486  22.347  0.00  0.00    +0.000 C 
ATOM     19  O   UNL     1      -0.124   9.679  20.946  0.00  0.00    +0.000 OA
ENDBRANCH   1  19
BRANCH   6  20
ATOM     20  O   UNL     1       1.225  10.296  18.393  0.00  0.00    +0.000 OA
ATOM     21  C   UNL     1       2.343  11.144  18.190  0.00  0.00    +0.000 C 
ENDBRANCH   6  20
BRANCH   3  22
ATOM     22  O   UNL     1       2.025   5.539  21.142  0.00  0.00    +0.000 OA
BRANCH  22  23
ATOM     23  C   UNL     1       1.301   4.388  20.742  0.00  0.00    +0.000 C 
BRANCH  23  24
ATOM     24  C   UNL     1       1.981   3.486  19.748  0.00  0.00    +0.000 A 
ATOM     25  C   UNL     1       1.569   3.319  18.431  0.00  0.00    +0.000 A 
ATOM     26  C   UNL     1       2.299   2.449  17.632  0.00  0.00    +0.000 A 
ATOM     27  N   UNL     1       3.378   1.747  18.053  0.00  0.00    +0.000 NA
ATOM     28  C   UNL     1       3.747   1.916  19.336  0.00  0.00    +0.000 A 
ATOM     29  C   UNL     1       3.085   2.754  20.209  0.00  0.00    +0.000 A 
ENDBRANCH  23  24
ENDBRANCH  22  23
ENDBRANCH   3  22
TORSDOF 7
ENDMDL
MODEL 7
REMARK VINA RESULT:      -7.3      1.167      1.290
REMARK  Name = 
REMARK  9 active torsions:
REMARK  status: ('A' for Active; 'I' for Inactive)
REMARK    1  A    between atoms: C_1  and  O_2
REMARK    2  A    between atoms: O_2  and  C_3
REMARK    3  A    between atoms: C_5  and  O_6
REMARK    4  A    between atoms: O_6  and  C_7
REMARK    5  A    between atoms: C_7  and  C_8
REMARK    6  A    between atoms: C_14  and  C_15
REMARK    7  A    between atoms: N_17  and  C_18
REMARK    8  A    between atoms: C_26  and  O_27
REMARK    9  A    between atoms: O_27  and  C_28
REMARK                            x       y       z     vdW  Elec       q    Type
REMARK                         _______ _______ _______ _____ _____    ______ ____
ROOT
ATOM      1  C   UNL     1       5.090   5.453  16.211  0.00  0.00    +0.000 A 
ATOM      2  C   UNL     1       3.902   4.757  16.468  0.00  0.00    +0.000 A 
ATOM      3  C   UNL     1       2.987   5.137  17.476  0.00  0.00    +0.000 A 
ATOM      4  C   UNL     1       3.291   6.260  18.279  0.00  0.00    +0.000 A 
ATOM      5  C   UNL     1       4.552   6.869  18.084  0.00  0.00    +0.000 A 
ATOM      6  C   UNL     1       5.444   6.496  17.063  0.00  0.00    +0.000 A 
ENDROOT
BRANCH   4   7
ATOM      7  C   UNL     1       2.407   6.884  19.337  0.00  0.00    +0.000 C 
ATOM      8  O   UNL     1       1.919   6.228  20.247  0.00  0.00    +0.000 OA
ATOM      9  N   UNL     1       2.088   8.235  19.223  0.00  0.00    +0.000 N 
ATOM     10  H   UNL     1       2.041   8.630  18.290  0.00  0.00    +0.000 HD
BRANCH   9  11
ATOM     11  C   UNL     1       1.292   8.890  20.205  0.00  0.00    +0.000 A 
ATOM     12  C   UNL     1       1.506   8.674  21.577  0.00  0.00    +0.000 A 
ATOM     13  C   UNL     1       0.662   9.248  22.530  0.00  0.00    +0.000 A 
ATOM     14  C   UNL     1      -0.399  10.050  22.120  0.00  0.00    +0.000 A 
ATOM     15  C   UNL     1      -0.598  10.304  20.762  0.00  0.00    +0.000 A 
ATOM     16  C   UNL     1       0.256   9.741  19.807  0.00  0.00    +0.000 A 
ATOM     17 CL   UNL     1      -0.057  10.039  18.133  0.00  0.00    +0.000 Cl
ENDBRANCH   9  11
ENDBRANCH   4   7
BRANCH   1  19
ATOM     18  C   UNL     1       6.946   4.163  15.497  0.00  0.00    +0.000 C 
ATOM     19  O   UNL     1       5.914   5.098  15.178  0.00  0.00    +0.000 OA
ENDBRANCH   1  19
BRANCH   6  20
ATOM     20  O   UNL     1       6.564   7.282  17.057  0.00  0.00    +0.000 OA
ATOM     21  C   UNL     1       7.636   6.982  17.936  0.00  0.00    +0.000 C 
ENDBRANCH   6  20
BRANCH   3  22
ATOM     22  O   UNL     1       1.910   4.278  17.436  0.00  0.00    +0.000 OA
BRANCH  22  23
ATOM     23  C   UNL     1       2.082   2.950  17.898  0.00  0.00    +0.000 C 
BRANCH  23  24
ATOM     24  C   UNL     1       2.179   2.769  19.388  0.00  0.00    +0.000 A 
ATOM     25  C   UNL     1       1.107   2.890  20.265  0.00  0.00    +0.000 A 
ATOM     26  C   UNL     1       1.353   2.695  21.617  0.00  0.00    +0.000 A 
ATOM     27  N   UNL     1       2.569   2.404  22.139  0.00  0.00    +0.000 NA
ATOM     28  C   UNL     1       3.593   2.306  21.270  0.00  0.00    +0.000 A 
ATOM     29  C   UNL     1       3.450   2.486  19.910  0.00  0.00    +0.000 A 
ENDBRANCH  23  24
ENDBRANCH  22  23
ENDBRANCH   3  22
TORSDOF 7
ENDMDL
MODEL 8
REMARK VINA RESULT:      -7.1      2.391      6.418
REMARK  Name = 
REMARK  9 active torsions:
REMARK  status: ('A' for Active; 'I' for Inactive)
REMARK    1  A    between atoms: C_1  and  O_2
REMARK    2  A    between atoms: O_2  and  C_3
REMARK    3  A    between atoms: C_5  and  O_6
REMARK    4  A    between atoms: O_6  and  C_7
REMARK    5  A    between atoms: C_7  and  C_8
REMARK    6  A    between atoms: C_14  and  C_15
REMARK    7  A    between atoms: N_17  and  C_18
REMARK    8  A    between atoms: C_26  and  O_27
REMARK    9  A    between atoms: O_27  and  C_28
REMARK                            x       y       z     vdW  Elec       q    Type
REMARK                         _______ _______ _______ _____ _____    ______ ____
ROOT
ATOM      1  C   UNL     1       0.371   9.446  20.432  0.00  0.00    +0.000 A 
ATOM      2  C   UNL     1       0.963   8.250  20.860  0.00  0.00    +0.000 A 
ATOM      3  C   UNL     1       1.889   7.524  20.078  0.00  0.00    +0.000 A 
ATOM      4  C   UNL     1       2.222   8.013  18.794  0.00  0.00    +0.000 A 
ATOM      5  C   UNL     1       1.518   9.150  18.335  0.00  0.00    +0.000 A 
ATOM      6  C   UNL     1       0.616   9.877  19.130  0.00  0.00    +0.000 A 
ENDROOT
BRANCH   4   7
ATOM      7  C   UNL     1       3.256   7.441  17.847  0.00  0.00    +0.000 C 
ATOM      8  O   UNL     1       3.441   7.904  16.730  0.00  0.00    +0.000 OA
ATOM      9  N   UNL     1       3.964   6.310  18.242  0.00  0.00    +0.000 N 
ATOM     10  H   UNL     1       3.501   5.659  18.868  0.00  0.00    +0.000 HD
BRANCH   9  11
ATOM     11  C   UNL     1       4.976   5.746  17.414  0.00  0.00    +0.000 A 
ATOM     12  C   UNL     1       6.265   6.303  17.359  0.00  0.00    +0.000 A 
ATOM     13  C   UNL     1       7.222   5.800  16.475  0.00  0.00    +0.000 A 
ATOM     14  C   UNL     1       6.901   4.731  15.643  0.00  0.00    +0.000 A 
ATOM     15  C   UNL     1       5.636   4.145  15.716  0.00  0.00    +0.000 A 
ATOM     16  C   UNL     1       4.682   4.638  16.612  0.00  0.00    +0.000 A 
ATOM     17 CL   UNL     1       3.111   3.916  16.634  0.00  0.00    +0.000 Cl
ENDBRANCH   9  11
ENDBRANCH   4   7
BRANCH   1  19
ATOM     18  C   UNL     1       0.082  11.353  21.810  0.00  0.00    +0.000 C 
ATOM     19  O   UNL     1      -0.464  10.158  21.247  0.00  0.00    +0.000 OA
ENDBRANCH   1  19
BRANCH   6  20
ATOM     20  O   UNL     1       0.120  10.966  18.468  0.00  0.00    +0.000 OA
ATOM     21  C   UNL     1      -1.210  10.941  17.974  0.00  0.00    +0.000 C 
ENDBRANCH   6  20
BRANCH   3  22
ATOM     22  O   UNL     1       2.311   6.431  20.802  0.00  0.00    +0.000 OA
BRANCH  22  23
ATOM     23  C   UNL     1       1.416   5.347  20.983  0.00  0.00    +0.000 C 
BRANCH  23  24
ATOM     24  C   UNL     1       1.780   4.061  20.293  0.00  0.00    +0.000 A 
ATOM     25  C   UNL     1       0.877   3.257  19.605  0.00  0.00    +0.000 A 
ATOM     26  C   UNL     1       1.363   2.097  19.018  0.00  0.00    +0.000 A 
ATOM     27  N   UNL     1       2.654   1.691  19.078  0.00  0.00    +0.000 NA
ATOM     28  C   UNL     1       3.505   2.481  19.761  0.00  0.00    +0.000 A 
ATOM     29  C   UNL     1       3.118   3.650  20.382  0.00  0.00    +0.000 A 
ENDBRANCH  23  24
ENDBRANCH  22  23
ENDBRANCH   3  22
TORSDOF 7
ENDMDL
MODEL 9
REMARK VINA RESULT:      -7.1      2.357      6.341
REMARK  Name = 
REMARK  9 active torsions:
REMARK  status: ('A' for Active; 'I' for Inactive)
REMARK    1  A    between atoms: C_1  and  O_2
REMARK    2  A    between atoms: O_2  and  C_3
REMARK    3  A    between atoms: C_5  and  O_6
REMARK    4  A    between atoms: O_6  and  C_7
REMARK    5  A    between atoms: C_7  and  C_8
REMARK    6  A    between atoms: C_14  and  C_15
REMARK    7  A    between atoms: N_17  and  C_18
REMARK    8  A    between atoms: C_26  and  O_27
REMARK    9  A    between atoms: O_27  and  C_28
REMARK                            x       y       z     vdW  Elec       q    Type
REMARK                         _______ _______ _______ _____ _____    ______ ____
ROOT
ATOM      1  C   UNL     1       0.924   9.464  20.397  0.00  0.00    +0.000 A 
ATOM      2  C   UNL     1       1.485   8.227  20.743  0.00  0.00    +0.000 A 
ATOM      3  C   UNL     1       2.286   7.469  19.861  0.00  0.00    +0.000 A 
ATOM      4  C   UNL     1       2.522   7.968  18.560  0.00  0.00    +0.000 A 
ATOM      5  C   UNL     1       1.844   9.154  18.193  0.00  0.00    +0.000 A 
ATOM      6  C   UNL     1       1.067   9.911  19.086  0.00  0.00    +0.000 A 
ENDROOT
BRANCH   4   7
ATOM      7  C   UNL     1       3.425   7.363  17.506  0.00  0.00    +0.000 C 
ATOM      8  O   UNL     1       3.405   7.734  16.341  0.00  0.00    +0.000 OA
ATOM      9  N   UNL     1       4.250   6.302  17.870  0.00  0.00    +0.000 N 
ATOM     10  H   UNL     1       3.929   5.688  18.611  0.00  0.00    +0.000 HD
BRANCH   9  11
ATOM     11  C   UNL     1       5.149   5.713  16.936  0.00  0.00    +0.000 A 
ATOM     12  C   UNL     1       4.789   4.573  16.199  0.00  0.00    +0.000 A 
ATOM     13  C   UNL     1       5.709   3.949  15.354  0.00  0.00    +0.000 A 
ATOM     14  C   UNL     1       6.996   4.465  15.233  0.00  0.00    +0.000 A 
ATOM     15  C   UNL     1       7.354   5.620  15.931  0.00  0.00    +0.000 A 
ATOM     16  C   UNL     1       6.428   6.255  16.765  0.00  0.00    +0.000 A 
ATOM     17 CL   UNL     1       6.928   7.653  17.650  0.00  0.00    +0.000 Cl
ENDBRANCH   9  11
ENDBRANCH   4   7
BRANCH   1  19
ATOM     18  C   UNL     1      -0.392   9.468  22.368  0.00  0.00    +0.000 C 
ATOM     19  O   UNL     1       0.214  10.202  21.303  0.00  0.00    +0.000 OA
ENDBRANCH   1  19
BRANCH   6  20
ATOM     20  O   UNL     1       0.573  11.042  18.494  0.00  0.00    +0.000 OA
ATOM     21  C   UNL     1       1.253  12.275  18.662  0.00  0.00    +0.000 C 
ENDBRANCH   6  20
BRANCH   3  22
ATOM     22  O   UNL     1       2.713   6.337  20.521  0.00  0.00    +0.000 OA
BRANCH  22  23
ATOM     23  C   UNL     1       1.791   5.280  20.725  0.00  0.00    +0.000 C 
BRANCH  23  24
ATOM     24  C   UNL     1       2.106   3.980  20.037  0.00  0.00    +0.000 A 
ATOM     25  C   UNL     1       3.390   3.474  19.864  0.00  0.00    +0.000 A 
ATOM     26  C   UNL     1       3.521   2.258  19.207  0.00  0.00    +0.000 A 
ATOM     27  N   UNL     1       2.485   1.537  18.716  0.00  0.00    +0.000 NA
ATOM     28  C   UNL     1       1.254   2.056  18.885  0.00  0.00    +0.000 A 
ATOM     29  C   UNL     1       1.021   3.258  19.520  0.00  0.00    +0.000 A 
ENDBRANCH  23  24
ENDBRANCH  22  23
ENDBRANCH   3  22
TORSDOF 7
ENDMDL
