MODEL 1
REMARK VINA RESULT:      -8.3      0.000      0.000
REMARK  Name = 
REMARK  8 active torsions:
REMARK  status: ('A' for Active; 'I' for Inactive)
REMARK    1  A    between atoms: C_1  and  N_2
REMARK    2  A    between atoms: C_6  and  S_7
REMARK    3  A    between atoms: S_7  and  C_8
REMARK    4  A    between atoms: C_11  and  C_12
REMARK    5  A    between atoms: C_13  and  C_14
REMARK    6  A    between atoms: C_14  and  C_16
REMARK    7  A    between atoms: C_19  and  O_20
REMARK    8  A    between atoms: C_24  and  N_25
REMARK                            x       y       z     vdW  Elec       q    Type
REMARK                         _______ _______ _______ _____ _____    ______ ____
ROOT
ATOM      1  C   UNL     1       0.791   9.930  19.414  0.00  0.00    +0.000 A 
ATOM      2  C   UNL     1       1.209   9.630  18.110  0.00  0.00    +0.000 A 
ATOM      3  C   UNL     1       1.937   8.461  17.826  0.00  0.00    +0.000 A 
ATOM      4  C   UNL     1       2.284   7.558  18.840  0.00  0.00    +0.000 A 
ATOM      5  C   UNL     1       1.832   7.819  20.136  0.00  0.00    +0.000 A 
ATOM      6  C   UNL     1       1.098   8.990  20.410  0.00  0.00    +0.000 A 
ENDROOT
BRANCH   6   7
ATOM      7  N   UNL     1       0.639   9.165  21.777  0.00  0.00    +0.000 N 
ATOM      8  O   UNL     1      -0.507   8.783  22.050  0.00  0.00    +0.000 OA
ATOM      9  O   UNL     1       1.451   9.626  22.592  0.00  0.00    +0.000 OA
ENDBRANCH   6   7
BRANCH   4  10
ATOM     10  C   UNL     1       3.097   6.378  18.500  0.00  0.00    +0.000 C 
ATOM     11  C   UNL     1       3.479   5.461  19.403  0.00  0.00    +0.000 C 
BRANCH  11  12
ATOM     12  C   UNL     1       4.399   4.352  19.020  0.00  0.00    +0.000 C 
ATOM     13  O   UNL     1       4.445   3.299  19.645  0.00  0.00    +0.000 OA
BRANCH  12  14
ATOM     14  C   UNL     1       5.289   4.588  17.846  0.00  0.00    +0.000 A 
ATOM     15  C   UNL     1       4.883   4.125  16.586  0.00  0.00    +0.000 A 
ATOM     16  C   UNL     1       5.690   4.338  15.462  0.00  0.00    +0.000 A 
ATOM     17  C   UNL     1       6.892   5.025  15.603  0.00  0.00    +0.000 A 
ATOM     18  C   UNL     1       7.299   5.504  16.842  0.00  0.00    +0.000 A 
ATOM     19  C   UNL     1       6.496   5.292  17.964  0.00  0.00    +0.000 A 
BRANCH  17  20
ATOM     20  O   UNL     1       7.709   5.261  14.538  0.00  0.00    +0.000 OA
ATOM     21  H   UNL     1       8.541   5.645  14.859  0.00  0.00    +0.000 HD
ENDBRANCH  17  20
ENDBRANCH  12  14
ENDBRANCH  11  12
ENDBRANCH   4  10
BRANCH   1  22
ATOM     22  S   UNL     1      -0.130  11.450  19.652  0.00  0.00    +0.000 S 
BRANCH  22  28
ATOM     23  C   UNL     1       2.187  13.026  18.001  0.00  0.00    +0.000 C 
ATOM     24  N   UNL     1       2.063  13.075  19.434  0.00  0.00    +0.000 N 
ATOM     25  C   UNL     1       2.889  13.764  20.273  0.00  0.00    +0.000 A 
ATOM     26  N   UNL     1       2.483  13.611  21.512  0.00  0.00    +0.000 NA
ATOM     27  N   UNL     1       1.365  12.804  21.492  0.00  0.00    +0.000 NA
ATOM     28  C   UNL     1       1.126  12.484  20.238  0.00  0.00    +0.000 A 
ENDBRANCH  22  28
ENDBRANCH   1  22
TORSDOF 7
ENDMDL
MODEL 2
REMARK VINA RESULT:      -8.3      4.537      8.860
REMARK  Name = 
REMARK  8 active torsions:
REMARK  status: ('A' for Active; 'I' for Inactive)
REMARK    1  A    between atoms: C_1  and  N_2
REMARK    2  A    between atoms: C_6  and  S_7
REMARK    3  A    between atoms: S_7  and  C_8
REMARK    4  A    between atoms: C_11  and  C_12
REMARK    5  A    between atoms: C_13  and  C_14
REMARK    6  A    between atoms: C_14  and  C_16
REMARK    7  A    between atoms: C_19  and  O_20
REMARK    8  A    between atoms: C_24  and  N_25
REMARK                            x       y       z     vdW  Elec       q    Type
REMARK                         _______ _______ _______ _____ _____    ______ ____
ROOT
ATOM      1  C   UNL     1       3.038   4.930  18.532  0.00  0.00    +0.000 A 
ATOM      2  C   UNL     1       2.993   6.318  18.339  0.00  0.00    +0.000 A 
ATOM      3  C   UNL     1       2.369   7.166  19.271  0.00  0.00    +0.000 A 
ATOM      4  C   UNL     1       1.755   6.652  20.421  0.00  0.00    +0.000 A 
ATOM      5  C   UNL     1       1.834   5.276  20.651  0.00  0.00    +0.000 A 
ATOM      6  C   UNL     1       2.468   4.435  19.715  0.00  0.00    +0.000 A 
ENDROOT
BRANCH   6   7
ATOM      7  N   UNL     1       2.534   3.023  20.049  0.00  0.00    +0.000 N 
ATOM      8  O   UNL     1       3.603   2.591  20.503  0.00  0.00    +0.000 OA
ATOM      9  O   UNL     1       1.495   2.361  19.918  0.00  0.00    +0.000 OA
ENDBRANCH   6   7
BRANCH   4  10
ATOM     10  C   UNL     1       1.064   7.576  21.337  0.00  0.00    +0.000 C 
ATOM     11  C   UNL     1       1.015   8.904  21.147  0.00  0.00    +0.000 C 
BRANCH  11  12
ATOM     12  C   UNL     1       0.401   9.797  22.171  0.00  0.00    +0.000 C 
ATOM     13  O   UNL     1       0.661   9.697  23.364  0.00  0.00    +0.000 OA
BRANCH  12  14
ATOM     14  C   UNL     1      -0.574  10.815  21.681  0.00  0.00    +0.000 A 
ATOM     15  C   UNL     1      -1.308  11.556  22.619  0.00  0.00    +0.000 A 
ATOM     16  C   UNL     1      -2.223  12.526  22.193  0.00  0.00    +0.000 A 
ATOM     17  C   UNL     1      -2.390  12.758  20.831  0.00  0.00    +0.000 A 
ATOM     18  C   UNL     1      -1.658  12.043  19.891  0.00  0.00    +0.000 A 
ATOM     19  C   UNL     1      -0.745  11.076  20.313  0.00  0.00    +0.000 A 
BRANCH  17  20
ATOM     20  O   UNL     1      -3.266  13.694  20.368  0.00  0.00    +0.000 OA
ATOM     21  H   UNL     1      -4.056  13.692  20.933  0.00  0.00    +0.000 HD
ENDBRANCH  17  20
ENDBRANCH  12  14
ENDBRANCH  11  12
ENDBRANCH   4  10
BRANCH   1  22
ATOM     22  S   UNL     1       3.861   3.952  17.274  0.00  0.00    +0.000 S 
BRANCH  22  28
ATOM     23  C   UNL     1       6.414   4.335  15.294  0.00  0.00    +0.000 C 
ATOM     24  N   UNL     1       6.508   4.396  16.728  0.00  0.00    +0.000 N 
ATOM     25  C   UNL     1       7.657   4.606  17.435  0.00  0.00    +0.000 A 
ATOM     26  N   UNL     1       7.386   4.621  18.719  0.00  0.00    +0.000 NA
ATOM     27  N   UNL     1       6.030   4.418  18.865  0.00  0.00    +0.000 NA
ATOM     28  C   UNL     1       5.515   4.278  17.663  0.00  0.00    +0.000 A 
ENDBRANCH  22  28
ENDBRANCH   1  22
TORSDOF 7
ENDMDL
MODEL 3
REMARK VINA RESULT:      -8.0      2.171      2.796
REMARK  Name = 
REMARK  8 active torsions:
REMARK  status: ('A' for Active; 'I' for Inactive)
REMARK    1  A    between atoms: C_1  and  N_2
REMARK    2  A    between atoms: C_6  and  S_7
REMARK    3  A    between atoms: S_7  and  C_8
REMARK    4  A    between atoms: C_11  and  C_12
REMARK    5  A    between atoms: C_13  and  C_14
REMARK    6  A    between atoms: C_14  and  C_16
REMARK    7  A    between atoms: C_19  and  O_20
REMARK    8  A    between atoms: C_24  and  N_25
REMARK                            x       y       z     vdW  Elec       q    Type
REMARK                         _______ _______ _______ _____ _____    ______ ____
ROOT
ATOM      1  C   UNL     1       0.876   9.896  19.401  0.00  0.00    +0.000 A 
ATOM      2  C   UNL     1       1.391   9.678  18.116  0.00  0.00    +0.000 A 
ATOM      3  C   UNL     1       2.147   8.530  17.815  0.00  0.00    +0.000 A 
ATOM      4  C   UNL     1       2.424   7.568  18.795  0.00  0.00    +0.000 A 
ATOM      5  C   UNL     1       1.875   7.747  20.068  0.00  0.00    +0.000 A 
ATOM      6  C   UNL     1       1.114   8.898  20.358  0.00  0.00    +0.000 A 
ENDROOT
BRANCH   6   7
ATOM      7  N   UNL     1       0.555   8.987  21.695  0.00  0.00    +0.000 N 
ATOM      8  O   UNL     1      -0.549   8.460  21.891  0.00  0.00    +0.000 OA
ATOM      9  O   UNL     1       1.251   9.529  22.565  0.00  0.00    +0.000 OA
ENDBRANCH   6   7
BRANCH   4  10
ATOM     10  C   UNL     1       3.267   6.413  18.446  0.00  0.00    +0.000 C 
ATOM     11  C   UNL     1       3.250   5.255  19.125  0.00  0.00    +0.000 C 
BRANCH  11  12
ATOM     12  C   UNL     1       4.211   4.164  18.794  0.00  0.00    +0.000 C 
ATOM     13  O   UNL     1       4.242   3.111  19.420  0.00  0.00    +0.000 OA
BRANCH  12  14
ATOM     14  C   UNL     1       5.163   4.419  17.674  0.00  0.00    +0.000 A 
ATOM     15  C   UNL     1       4.737   4.189  16.358  0.00  0.00    +0.000 A 
ATOM     16  C   UNL     1       5.602   4.428  15.283  0.00  0.00    +0.000 A 
ATOM     17  C   UNL     1       6.885   4.908  15.531  0.00  0.00    +0.000 A 
ATOM     18  C   UNL     1       7.315   5.156  16.829  0.00  0.00    +0.000 A 
ATOM     19  C   UNL     1       6.455   4.919  17.902  0.00  0.00    +0.000 A 
BRANCH  17  20
ATOM     20  O   UNL     1       7.761   5.160  14.519  0.00  0.00    +0.000 OA
ATOM     21  H   UNL     1       7.930   4.334  14.036  0.00  0.00    +0.000 HD
ENDBRANCH  17  20
ENDBRANCH  12  14
ENDBRANCH  11  12
ENDBRANCH   4  10
BRANCH   1  22
ATOM     22  S   UNL     1      -0.071  11.397  19.663  0.00  0.00    +0.000 S 
BRANCH  22  28
ATOM     23  C   UNL     1      -3.067  12.636  19.917  0.00  0.00    +0.000 C 
ATOM     24  N   UNL     1      -2.713  11.609  18.975  0.00  0.00    +0.000 N 
ATOM     25  C   UNL     1      -3.569  11.021  18.089  0.00  0.00    +0.000 A 
ATOM     26  N   UNL     1      -2.918  10.140  17.367  0.00  0.00    +0.000 NA
ATOM     27  N   UNL     1      -1.603  10.145  17.783  0.00  0.00    +0.000 NA
ATOM     28  C   UNL     1      -1.494  11.027  18.753  0.00  0.00    +0.000 A 
ENDBRANCH  22  28
ENDBRANCH   1  22
TORSDOF 7
ENDMDL
MODEL 4
REMARK VINA RESULT:      -8.0      4.822      8.847
REMARK  Name = 
REMARK  8 active torsions:
REMARK  status: ('A' for Active; 'I' for Inactive)
REMARK    1  A    between atoms: C_1  and  N_2
REMARK    2  A    between atoms: C_6  and  S_7
REMARK    3  A    between atoms: S_7  and  C_8
REMARK    4  A    between atoms: C_11  and  C_12
REMARK    5  A    between atoms: C_13  and  C_14
REMARK    6  A    between atoms: C_14  and  C_16
REMARK    7  A    between atoms: C_19  and  O_20
REMARK    8  A    between atoms: C_24  and  N_25
REMARK                            x       y       z     vdW  Elec       q    Type
REMARK                         _______ _______ _______ _____ _____    ______ ____
ROOT
ATOM      1  C   UNL     1       3.664   5.197  17.650  0.00  0.00    +0.000 A 
ATOM      2  C   UNL     1       4.344   6.380  17.329  0.00  0.00    +0.000 A 
ATOM      3  C   UNL     1       3.734   7.638  17.480  0.00  0.00    +0.000 A 
ATOM      4  C   UNL     1       2.418   7.755  17.944  0.00  0.00    +0.000 A 
ATOM      5  C   UNL     1       1.745   6.588  18.315  0.00  0.00    +0.000 A 
ATOM      6  C   UNL     1       2.366   5.332  18.166  0.00  0.00    +0.000 A 
ENDROOT
BRANCH   6   7
ATOM      7  N   UNL     1       1.608   4.175  18.607  0.00  0.00    +0.000 N 
ATOM      8  O   UNL     1       0.981   3.539  17.749  0.00  0.00    +0.000 OA
ATOM      9  O   UNL     1       1.693   3.864  19.804  0.00  0.00    +0.000 OA
ENDBRANCH   6   7
BRANCH   4  10
ATOM     10  C   UNL     1       1.805   9.091  18.030  0.00  0.00    +0.000 C 
ATOM     11  C   UNL     1       0.821   9.397  18.891  0.00  0.00    +0.000 C 
BRANCH  11  12
ATOM     12  C   UNL     1       0.162  10.734  18.850  0.00  0.00    +0.000 C 
ATOM     13  O   UNL     1       0.720  11.749  19.249  0.00  0.00    +0.000 OA
BRANCH  12  14
ATOM     14  C   UNL     1      -1.232  10.783  18.320  0.00  0.00    +0.000 A 
ATOM     15  C   UNL     1      -2.132  11.708  18.868  0.00  0.00    +0.000 A 
ATOM     16  C   UNL     1      -3.445  11.787  18.386  0.00  0.00    +0.000 A 
ATOM     17  C   UNL     1      -3.846  10.947  17.352  0.00  0.00    +0.000 A 
ATOM     18  C   UNL     1      -2.960  10.036  16.789  0.00  0.00    +0.000 A 
ATOM     19  C   UNL     1      -1.651   9.956  17.267  0.00  0.00    +0.000 A 
BRANCH  17  20
ATOM     20  O   UNL     1      -5.111  10.989  16.847  0.00  0.00    +0.000 OA
ATOM     21  H   UNL     1      -5.152  11.672  16.158  0.00  0.00    +0.000 HD
ENDBRANCH  17  20
ENDBRANCH  12  14
ENDBRANCH  11  12
ENDBRANCH   4  10
BRANCH   1  22
ATOM     22  S   UNL     1       4.545   3.653  17.414  0.00  0.00    +0.000 S 
BRANCH  22  28
ATOM     23  C   UNL     1       7.658   4.588  17.535  0.00  0.00    +0.000 C 
ATOM     24  N   UNL     1       6.905   4.499  16.312  0.00  0.00    +0.000 N 
ATOM     25  C   UNL     1       7.381   4.800  15.069  0.00  0.00    +0.000 A 
ATOM     26  N   UNL     1       6.442   4.592  14.177  0.00  0.00    +0.000 NA
ATOM     27  N   UNL     1       5.320   4.145  14.843  0.00  0.00    +0.000 NA
ATOM     28  C   UNL     1       5.610   4.099  16.126  0.00  0.00    +0.000 A 
ENDBRANCH  22  28
ENDBRANCH   1  22
TORSDOF 7
ENDMDL
MODEL 5
REMARK VINA RESULT:      -8.0      4.450      8.590
REMARK  Name = 
REMARK  8 active torsions:
REMARK  status: ('A' for Active; 'I' for Inactive)
REMARK    1  A    between atoms: C_1  and  N_2
REMARK    2  A    between atoms: C_6  and  S_7
REMARK    3  A    between atoms: S_7  and  C_8
REMARK    4  A    between atoms: C_11  and  C_12
REMARK    5  A    between atoms: C_13  and  C_14
REMARK    6  A    between atoms: C_14  and  C_16
REMARK    7  A    between atoms: C_19  and  O_20
REMARK    8  A    between atoms: C_24  and  N_25
REMARK                            x       y       z     vdW  Elec       q    Type
REMARK                         _______ _______ _______ _____ _____    ______ ____
ROOT
ATOM      1  C   UNL     1       3.357   5.425  18.447  0.00  0.00    +0.000 A 
ATOM      2  C   UNL     1       3.831   6.438  17.601  0.00  0.00    +0.000 A 
ATOM      3  C   UNL     1       3.261   7.724  17.609  0.00  0.00    +0.000 A 
ATOM      4  C   UNL     1       2.189   8.036  18.454  0.00  0.00    +0.000 A 
ATOM      5  C   UNL     1       1.738   7.052  19.338  0.00  0.00    +0.000 A 
ATOM      6  C   UNL     1       2.320   5.769  19.327  0.00  0.00    +0.000 A 
ENDROOT
BRANCH   6   7
ATOM      7  N   UNL     1       1.814   4.817  20.301  0.00  0.00    +0.000 N 
ATOM      8  O   UNL     1       2.335   4.816  21.425  0.00  0.00    +0.000 OA
ATOM      9  O   UNL     1       0.850   4.116  19.961  0.00  0.00    +0.000 OA
ENDBRANCH   6   7
BRANCH   4  10
ATOM     10  C   UNL     1       1.589   9.380  18.384  0.00  0.00    +0.000 C 
ATOM     11  C   UNL     1       0.587   9.783  19.181  0.00  0.00    +0.000 C 
BRANCH  11  12
ATOM     12  C   UNL     1      -0.055  11.114  18.983  0.00  0.00    +0.000 C 
ATOM     13  O   UNL     1       0.527  12.162  19.235  0.00  0.00    +0.000 OA
BRANCH  12  14
ATOM     14  C   UNL     1      -1.461  11.117  18.482  0.00  0.00    +0.000 A 
ATOM     15  C   UNL     1      -1.809  10.249  17.438  0.00  0.00    +0.000 A 
ATOM     16  C   UNL     1      -3.122  10.220  16.952  0.00  0.00    +0.000 A 
ATOM     17  C   UNL     1      -4.082  11.051  17.522  0.00  0.00    +0.000 A 
ATOM     18  C   UNL     1      -3.754  11.906  18.568  0.00  0.00    +0.000 A 
ATOM     19  C   UNL     1      -2.446  11.936  19.055  0.00  0.00    +0.000 A 
BRANCH  17  20
ATOM     20  O   UNL     1      -5.373  11.056  17.086  0.00  0.00    +0.000 OA
ATOM     21  H   UNL     1      -5.864  10.358  17.549  0.00  0.00    +0.000 HD
ENDBRANCH  17  20
ENDBRANCH  12  14
ENDBRANCH  11  12
ENDBRANCH   4  10
BRANCH   1  22
ATOM     22  S   UNL     1       4.163   3.827  18.345  0.00  0.00    +0.000 S 
BRANCH  22  28
ATOM     23  C   UNL     1       6.155   3.944  15.776  0.00  0.00    +0.000 C 
ATOM     24  N   UNL     1       6.560   4.302  17.109  0.00  0.00    +0.000 N 
ATOM     25  C   UNL     1       7.809   4.718  17.469  0.00  0.00    +0.000 A 
ATOM     26  N   UNL     1       7.832   4.980  18.754  0.00  0.00    +0.000 NA
ATOM     27  N   UNL     1       6.572   4.732  19.256  0.00  0.00    +0.000 NA
ATOM     28  C   UNL     1       5.818   4.320  18.259  0.00  0.00    +0.000 A 
ENDBRANCH  22  28
ENDBRANCH   1  22
TORSDOF 7
ENDMDL
MODEL 6
REMARK VINA RESULT:      -7.9      4.498      8.743
REMARK  Name = 
REMARK  8 active torsions:
REMARK  status: ('A' for Active; 'I' for Inactive)
REMARK    1  A    between atoms: C_1  and  N_2
REMARK    2  A    between atoms: C_6  and  S_7
REMARK    3  A    between atoms: S_7  and  C_8
REMARK    4  A    between atoms: C_11  and  C_12
REMARK    5  A    between atoms: C_13  and  C_14
REMARK    6  A    between atoms: C_14  and  C_16
REMARK    7  A    between atoms: C_19  and  O_20
REMARK    8  A    between atoms: C_24  and  N_25
REMARK                            x       y       z     vdW  Elec       q    Type
REMARK                         _______ _______ _______ _____ _____    ______ ____
ROOT
ATOM      1  C   UNL     1       2.882   4.936  18.897  0.00  0.00    +0.000 A 
ATOM      2  C   UNL     1       3.133   6.223  18.399  0.00  0.00    +0.000 A 
ATOM      3  C   UNL     1       2.594   7.365  19.018  0.00  0.00    +0.000 A 
ATOM      4  C   UNL     1       1.773   7.257  20.148  0.00  0.00    +0.000 A 
ATOM      5  C   UNL     1       1.554   5.985  20.684  0.00  0.00    +0.000 A 
ATOM      6  C   UNL     1       2.104   4.848  20.061  0.00  0.00    +0.000 A 
ENDROOT
BRANCH   6   7
ATOM      7  N   UNL     1       1.855   3.569  20.704  0.00  0.00    +0.000 N 
ATOM      8  O   UNL     1       0.954   2.859  20.236  0.00  0.00    +0.000 OA
ATOM      9  O   UNL     1       2.605   3.248  21.636  0.00  0.00    +0.000 OA
ENDBRANCH   6   7
BRANCH   4  10
ATOM     10  C   UNL     1       1.185   8.478  20.725  0.00  0.00    +0.000 C 
ATOM     11  C   UNL     1       0.883   9.565  19.998  0.00  0.00    +0.000 C 
BRANCH  11  12
ATOM     12  C   UNL     1       0.399  10.812  20.658  0.00  0.00    +0.000 C 
ATOM     13  O   UNL     1       1.039  11.373  21.540  0.00  0.00    +0.000 OA
BRANCH  12  14
ATOM     14  C   UNL     1      -0.923  11.341  20.214  0.00  0.00    +0.000 A 
ATOM     15  C   UNL     1      -1.426  10.947  18.966  0.00  0.00    +0.000 A 
ATOM     16  C   UNL     1      -2.668  11.417  18.524  0.00  0.00    +0.000 A 
ATOM     17  C   UNL     1      -3.406  12.270  19.339  0.00  0.00    +0.000 A 
ATOM     18  C   UNL     1      -2.928  12.657  20.585  0.00  0.00    +0.000 A 
ATOM     19  C   UNL     1      -1.690  12.189  21.028  0.00  0.00    +0.000 A 
BRANCH  17  20
ATOM     20  O   UNL     1      -4.622  12.751  18.955  0.00  0.00    +0.000 OA
ATOM     21  H   UNL     1      -5.266  12.025  18.969  0.00  0.00    +0.000 HD
ENDBRANCH  17  20
ENDBRANCH  12  14
ENDBRANCH  11  12
ENDBRANCH   4  10
BRANCH   1  22
ATOM     22  S   UNL     1       3.625   3.558  18.022  0.00  0.00    +0.000 S 
BRANCH  22  28
ATOM     23  C   UNL     1       5.516   4.208  15.456  0.00  0.00    +0.000 C 
ATOM     24  N   UNL     1       5.971   4.295  16.818  0.00  0.00    +0.000 N 
ATOM     25  C   UNL     1       7.233   4.642  17.207  0.00  0.00    +0.000 A 
ATOM     26  N   UNL     1       7.305   4.640  18.517  0.00  0.00    +0.000 NA
ATOM     27  N   UNL     1       6.065   4.285  19.006  0.00  0.00    +0.000 NA
ATOM     28  C   UNL     1       5.274   4.074  17.975  0.00  0.00    +0.000 A 
ENDBRANCH  22  28
ENDBRANCH   1  22
TORSDOF 7
ENDMDL
MODEL 7
REMARK VINA RESULT:      -7.9      4.378      8.318
REMARK  Name = 
REMARK  8 active torsions:
REMARK  status: ('A' for Active; 'I' for Inactive)
REMARK    1  A    between atoms: C_1  and  N_2
REMARK    2  A    between atoms: C_6  and  S_7
REMARK    3  A    between atoms: S_7  and  C_8
REMARK    4  A    between atoms: C_11  and  C_12
REMARK    5  A    between atoms: C_13  and  C_14
REMARK    6  A    between atoms: C_14  and  C_16
REMARK    7  A    between atoms: C_19  and  O_20
REMARK    8  A    between atoms: C_24  and  N_25
REMARK                            x       y       z     vdW  Elec       q    Type
REMARK                         _______ _______ _______ _____ _____    ______ ____
ROOT
ATOM      1  C   UNL     1       2.963   4.929  18.827  0.00  0.00    +0.000 A 
ATOM      2  C   UNL     1       3.201   6.204  18.292  0.00  0.00    +0.000 A 
ATOM      3  C   UNL     1       2.627   7.355  18.862  0.00  0.00    +0.000 A 
ATOM      4  C   UNL     1       1.784   7.268  19.977  0.00  0.00    +0.000 A 
ATOM      5  C   UNL     1       1.577   6.010  20.551  0.00  0.00    +0.000 A 
ATOM      6  C   UNL     1       2.162   4.864  19.977  0.00  0.00    +0.000 A 
ENDROOT
BRANCH   6   7
ATOM      7  N   UNL     1       1.923   3.602  20.656  0.00  0.00    +0.000 N 
ATOM      8  O   UNL     1       0.955   2.925  20.283  0.00  0.00    +0.000 OA
ATOM      9  O   UNL     1       2.743   3.259  21.519  0.00  0.00    +0.000 OA
ENDBRANCH   6   7
BRANCH   4  10
ATOM     10  C   UNL     1       1.161   8.495  20.502  0.00  0.00    +0.000 C 
ATOM     11  C   UNL     1       1.191   8.842  21.798  0.00  0.00    +0.000 C 
BRANCH  11  12
ATOM     12  C   UNL     1       0.442  10.036  22.285  0.00  0.00    +0.000 C 
ATOM     13  O   UNL     1       0.061  10.137  23.445  0.00  0.00    +0.000 OA
BRANCH  12  14
ATOM     14  C   UNL     1       0.151  11.104  21.285  0.00  0.00    +0.000 A 
ATOM     15  C   UNL     1      -1.182  11.345  20.922  0.00  0.00    +0.000 A 
ATOM     16  C   UNL     1      -1.491  12.347  19.994  0.00  0.00    +0.000 A 
ATOM     17  C   UNL     1      -0.465  13.110  19.443  0.00  0.00    +0.000 A 
ATOM     18  C   UNL     1       0.859  12.892  19.805  0.00  0.00    +0.000 A 
ATOM     19  C   UNL     1       1.169  11.894  20.731  0.00  0.00    +0.000 A 
BRANCH  17  20
ATOM     20  O   UNL     1      -0.716  14.098  18.540  0.00  0.00    +0.000 OA
ATOM     21  H   UNL     1      -1.667  14.295  18.544  0.00  0.00    +0.000 HD
ENDBRANCH  17  20
ENDBRANCH  12  14
ENDBRANCH  11  12
ENDBRANCH   4  10
BRANCH   1  22
ATOM     22  S   UNL     1       3.750   3.538  18.013  0.00  0.00    +0.000 S 
BRANCH  22  28
ATOM     23  C   UNL     1       5.706   4.165  15.491  0.00  0.00    +0.000 C 
ATOM     24  N   UNL     1       6.121   4.283  16.864  0.00  0.00    +0.000 N 
ATOM     25  C   UNL     1       7.366   4.653  17.282  0.00  0.00    +0.000 A 
ATOM     26  N   UNL     1       7.400   4.677  18.593  0.00  0.00    +0.000 NA
ATOM     27  N   UNL     1       6.151   4.314  19.053  0.00  0.00    +0.000 NA
ATOM     28  C   UNL     1       5.394   4.075  18.004  0.00  0.00    +0.000 A 
ENDBRANCH  22  28
ENDBRANCH   1  22
TORSDOF 7
ENDMDL
MODEL 8
REMARK VINA RESULT:      -7.9      0.856      1.450
REMARK  Name = 
REMARK  8 active torsions:
REMARK  status: ('A' for Active; 'I' for Inactive)
REMARK    1  A    between atoms: C_1  and  N_2
REMARK    2  A    between atoms: C_6  and  S_7
REMARK    3  A    between atoms: S_7  and  C_8
REMARK    4  A    between atoms: C_11  and  C_12
REMARK    5  A    between atoms: C_13  and  C_14
REMARK    6  A    between atoms: C_14  and  C_16
REMARK    7  A    between atoms: C_19  and  O_20
REMARK    8  A    between atoms: C_24  and  N_25
REMARK                            x       y       z     vdW  Elec       q    Type
REMARK                         _______ _______ _______ _____ _____    ______ ____
ROOT
ATOM      1  C   UNL     1       0.557   9.795  19.439  0.00  0.00    +0.000 A 
ATOM      2  C   UNL     1       0.998   9.500  18.141  0.00  0.00    +0.000 A 
ATOM      3  C   UNL     1       1.858   8.416  17.890  0.00  0.00    +0.000 A 
ATOM      4  C   UNL     1       2.317   7.598  18.931  0.00  0.00    +0.000 A 
ATOM      5  C   UNL     1       1.847   7.850  20.223  0.00  0.00    +0.000 A 
ATOM      6  C   UNL     1       0.981   8.935  20.463  0.00  0.00    +0.000 A 
ENDROOT
BRANCH   6   7
ATOM      7  N   UNL     1       0.514   9.105  21.829  0.00  0.00    +0.000 N 
ATOM      8  O   UNL     1       1.206   9.795  22.589  0.00  0.00    +0.000 OA
ATOM      9  O   UNL     1      -0.579   8.599  22.120  0.00  0.00    +0.000 OA
ENDBRANCH   6   7
BRANCH   4  10
ATOM     10  C   UNL     1       3.262   6.511  18.624  0.00  0.00    +0.000 C 
ATOM     11  C   UNL     1       2.887   5.232  18.461  0.00  0.00    +0.000 C 
BRANCH  11  12
ATOM     12  C   UNL     1       3.904   4.159  18.268  0.00  0.00    +0.000 C 
ATOM     13  O   UNL     1       3.872   3.110  18.900  0.00  0.00    +0.000 OA
BRANCH  12  14
ATOM     14  C   UNL     1       4.989   4.427  17.280  0.00  0.00    +0.000 A 
ATOM     15  C   UNL     1       4.662   4.501  15.918  0.00  0.00    +0.000 A 
ATOM     16  C   UNL     1       5.655   4.762  14.966  0.00  0.00    +0.000 A 
ATOM     17  C   UNL     1       6.969   4.959  15.384  0.00  0.00    +0.000 A 
ATOM     18  C   UNL     1       7.304   4.905  16.731  0.00  0.00    +0.000 A 
ATOM     19  C   UNL     1       6.316   4.646  17.682  0.00  0.00    +0.000 A 
BRANCH  17  20
ATOM     20  O   UNL     1       7.969   5.219  14.496  0.00  0.00    +0.000 OA
ATOM     21  H   UNL     1       8.109   4.434  13.942  0.00  0.00    +0.000 HD
ENDBRANCH  17  20
ENDBRANCH  12  14
ENDBRANCH  11  12
ENDBRANCH   4  10
BRANCH   1  22
ATOM     22  S   UNL     1      -0.536  11.204  19.634  0.00  0.00    +0.000 S 
BRANCH  22  28
ATOM     23  C   UNL     1      -0.525  13.043  22.317  0.00  0.00    +0.000 C 
ATOM     24  N   UNL     1       0.478  13.136  21.289  0.00  0.00    +0.000 N 
ATOM     25  C   UNL     1       1.536  13.997  21.296  0.00  0.00    +0.000 A 
ATOM     26  N   UNL     1       2.264  13.807  20.220  0.00  0.00    +0.000 NA
ATOM     27  N   UNL     1       1.674  12.799  19.486  0.00  0.00    +0.000 NA
ATOM     28  C   UNL     1       0.599  12.408  20.136  0.00  0.00    +0.000 A 
ENDBRANCH  22  28
ENDBRANCH   1  22
TORSDOF 7
ENDMDL
MODEL 9
REMARK VINA RESULT:      -7.9      4.454      8.579
REMARK  Name = 
REMARK  8 active torsions:
REMARK  status: ('A' for Active; 'I' for Inactive)
REMARK    1  A    between atoms: C_1  and  N_2
REMARK    2  A    between atoms: C_6  and  S_7
REMARK    3  A    between atoms: S_7  and  C_8
REMARK    4  A    between atoms: C_11  and  C_12
REMARK    5  A    between atoms: C_13  and  C_14
REMARK    6  A    between atoms: C_14  and  C_16
REMARK    7  A    between atoms: C_19  and  O_20
REMARK    8  A    between atoms: C_24  and  N_25
REMARK                            x       y       z     vdW  Elec       q    Type
REMARK                         _______ _______ _______ _____ _____    ______ ____
ROOT
ATOM      1  C   UNL     1       2.755   5.166  18.665  0.00  0.00    +0.000 A 
ATOM      2  C   UNL     1       2.974   6.520  18.369  0.00  0.00    +0.000 A 
ATOM      3  C   UNL     1       2.523   7.538  19.228  0.00  0.00    +0.000 A 
ATOM      4  C   UNL     1       1.826   7.238  20.405  0.00  0.00    +0.000 A 
ATOM      5  C   UNL     1       1.643   5.893  20.738  0.00  0.00    +0.000 A 
ATOM      6  C   UNL     1       2.104   4.879  19.874  0.00  0.00    +0.000 A 
ENDROOT
BRANCH   6   7
ATOM      7  N   UNL     1       1.903   3.509  20.313  0.00  0.00    +0.000 N 
ATOM      8  O   UNL     1       2.765   3.011  21.049  0.00  0.00    +0.000 OA
ATOM      9  O   UNL     1       0.848   2.955  19.974  0.00  0.00    +0.000 OA
ENDBRANCH   6   7
BRANCH   4  10
ATOM     10  C   UNL     1       1.324   8.341  21.241  0.00  0.00    +0.000 C 
ATOM     11  C   UNL     1       0.018   8.579  21.444  0.00  0.00    +0.000 C 
BRANCH  11  12
ATOM     12  C   UNL     1      -0.428   9.781  22.205  0.00  0.00    +0.000 C 
ATOM     13  O   UNL     1      -0.658   9.742  23.408  0.00  0.00    +0.000 OA
BRANCH  12  14
ATOM     14  C   UNL     1      -0.610  11.042  21.429  0.00  0.00    +0.000 A 
ATOM     15  C   UNL     1      -0.564  12.267  22.109  0.00  0.00    +0.000 A 
ATOM     16  C   UNL     1      -0.720  13.470  21.409  0.00  0.00    +0.000 A 
ATOM     17  C   UNL     1      -0.911  13.440  20.031  0.00  0.00    +0.000 A 
ATOM     18  C   UNL     1      -0.944  12.233  19.342  0.00  0.00    +0.000 A 
ATOM     19  C   UNL     1      -0.787  11.033  20.037  0.00  0.00    +0.000 A 
BRANCH  17  20
ATOM     20  O   UNL     1      -1.064  14.583  19.306  0.00  0.00    +0.000 OA
ATOM     21  H   UNL     1      -1.042  15.344  19.909  0.00  0.00    +0.000 HD
ENDBRANCH  17  20
ENDBRANCH  12  14
ENDBRANCH  11  12
ENDBRANCH   4  10
BRANCH   1  22
ATOM     22  S   UNL     1       3.376   3.959  17.493  0.00  0.00    +0.000 S 
BRANCH  22  28
ATOM     23  C   UNL     1       5.560   4.627  15.177  0.00  0.00    +0.000 C 
ATOM     24  N   UNL     1       5.899   4.490  16.568  0.00  0.00    +0.000 N 
ATOM     25  C   UNL     1       7.154   4.608  17.090  0.00  0.00    +0.000 A 
ATOM     26  N   UNL     1       7.107   4.445  18.391  0.00  0.00    +0.000 NA
ATOM     27  N   UNL     1       5.792   4.214  18.738  0.00  0.00    +0.000 NA
ATOM     28  C   UNL     1       5.077   4.239  17.634  0.00  0.00    +0.000 A 
ENDBRANCH  22  28
ENDBRANCH   1  22
TORSDOF 7
ENDMDL
