MODEL 1
REMARK VINA RESULT:      -7.6      0.000      0.000
REMARK  Name = 
REMARK  7 active torsions:
REMARK  status: ('A' for Active; 'I' for Inactive)
REMARK    1  A    between atoms: O_1  and  C_2
REMARK    2  A    between atoms: C_2  and  C_3
REMARK    3  A    between atoms: C_3  and  C_4
REMARK    4  A    between atoms: C_4  and  N_5
REMARK    5  A    between atoms: N_9  and  C_10
REMARK    6  A    between atoms: C_10  and  C_11
REMARK    7  A    between atoms: C_11  and  N_12
REMARK                            x       y       z     vdW  Elec       q    Type
REMARK                         _______ _______ _______ _____ _____    ______ ____
ROOT
ATOM      1  N   UNL     1       8.055   7.391  18.526  0.00  0.00    +0.000 N 
ATOM      2  C   UNL     1       7.442   6.418  17.746  0.00  0.00    +0.000 A 
ATOM      3  N   UNL     1       6.731   5.511  18.407  0.00  0.00    +0.000 NA
ATOM      4  C   UNL     1       6.150   4.509  17.723  0.00  0.00    +0.000 A 
ATOM      5  N   UNL     1       5.531   3.500  18.503  0.00  0.00    +0.000 N 
ATOM      6  C   UNL     1       6.268   4.418  16.313  0.00  0.00    +0.000 A 
ATOM      7  C   UNL     1       5.698   3.437  15.452  0.00  0.00    +0.000 A 
ATOM      8  C   UNL     1       5.884   3.491  14.066  0.00  0.00    +0.000 A 
ATOM      9  C   UNL     1       6.639   4.514  13.512  0.00  0.00    +0.000 A 
ATOM     10  C   UNL     1       7.194   5.482  14.348  0.00  0.00    +0.000 A 
ATOM     11  C   UNL     1       7.018   5.449  15.729  0.00  0.00    +0.000 A 
ATOM     12  N   UNL     1       7.593   6.429  16.422  0.00  0.00    +0.000 NA
ATOM     13  H   UNL     1       7.561   7.379  19.414  0.00  0.00    +0.000 HD
ATOM     14  H   UNL     1       4.948   2.885  17.951  0.00  0.00    +0.000 HD
ENDROOT
BRANCH   1  15
ATOM     15  C   UNL     1       8.167   8.686  17.881  0.00  0.00    +0.000 C 
BRANCH  15  16
ATOM     16  C   UNL     1       8.965   9.634  18.780  0.00  0.00    +0.000 C 
BRANCH  16  17
ATOM     17  C   UNL     1       9.122  11.005  18.140  0.00  0.00    +0.000 C 
BRANCH  17  18
ATOM     18  O   UNL     1      10.489  11.392  18.156  0.00  0.00    +0.000 OA
ATOM     19  H   UNL     1      11.011  10.595  18.350  0.00  0.00    +0.000 HD
ENDBRANCH  17  18
ENDBRANCH  16  17
ENDBRANCH  15  16
ENDBRANCH   1  15
BRANCH   5  20
ATOM     20  C   UNL     1       4.806   4.061  19.663  0.00  0.00    +0.000 C 
BRANCH  20  21
ATOM     21  C   UNL     1       3.622   3.172  20.113  0.00  0.00    +0.000 C 
BRANCH  21  22
ATOM     22  N   UNL     1       2.341   3.912  20.219  0.00  0.00    +0.000 NA
ATOM     23  C   UNL     1       1.168   3.012  20.148  0.00  0.00    +0.000 C 
ATOM     24  C   UNL     1       0.903   2.456  18.736  0.00  0.00    +0.000 C 
ATOM     25  O   UNL     1       0.770   3.507  17.769  0.00  0.00    +0.000 OA
ATOM     26  C   UNL     1       1.912   4.373  17.781  0.00  0.00    +0.000 C 
ATOM     27  C   UNL     1       2.157   4.951  19.182  0.00  0.00    +0.000 C 
ENDBRANCH  21  22
ENDBRANCH  20  21
ENDBRANCH   5  20
TORSDOF 7
ENDMDL
MODEL 2
REMARK VINA RESULT:      -7.5      4.252      6.527
REMARK  Name = 
REMARK  7 active torsions:
REMARK  status: ('A' for Active; 'I' for Inactive)
REMARK    1  A    between atoms: O_1  and  C_2
REMARK    2  A    between atoms: C_2  and  C_3
REMARK    3  A    between atoms: C_3  and  C_4
REMARK    4  A    between atoms: C_4  and  N_5
REMARK    5  A    between atoms: N_9  and  C_10
REMARK    6  A    between atoms: C_10  and  C_11
REMARK    7  A    between atoms: C_11  and  N_12
REMARK                            x       y       z     vdW  Elec       q    Type
REMARK                         _______ _______ _______ _____ _____    ______ ____
ROOT
ATOM      1  N   UNL     1       6.084   5.577  17.383  0.00  0.00    +0.000 N 
ATOM      2  C   UNL     1       4.942   5.385  18.151  0.00  0.00    +0.000 A 
ATOM      3  N   UNL     1       4.126   6.430  18.245  0.00  0.00    +0.000 NA
ATOM      4  C   UNL     1       3.026   6.334  19.014  0.00  0.00    +0.000 A 
ATOM      5  N   UNL     1       2.280   7.527  19.185  0.00  0.00    +0.000 N 
ATOM      6  C   UNL     1       2.715   5.135  19.703  0.00  0.00    +0.000 A 
ATOM      7  C   UNL     1       1.586   4.873  20.532  0.00  0.00    +0.000 A 
ATOM      8  C   UNL     1       1.401   3.623  21.133  0.00  0.00    +0.000 A 
ATOM      9  C   UNL     1       2.331   2.615  20.926  0.00  0.00    +0.000 A 
ATOM     10  C   UNL     1       3.435   2.862  20.112  0.00  0.00    +0.000 A 
ATOM     11  C   UNL     1       3.636   4.097  19.501  0.00  0.00    +0.000 A 
ATOM     12  N   UNL     1       4.725   4.212  18.744  0.00  0.00    +0.000 NA
ATOM     13  H   UNL     1       5.885   6.384  16.797  0.00  0.00    +0.000 HD
ATOM     14  H   UNL     1       1.372   7.362  19.599  0.00  0.00    +0.000 HD
ENDROOT
BRANCH   1  15
ATOM     15  C   UNL     1       6.540   4.389  16.688  0.00  0.00    +0.000 C 
BRANCH  15  16
ATOM     16  C   UNL     1       5.801   4.264  15.353  0.00  0.00    +0.000 C 
BRANCH  16  17
ATOM     17  C   UNL     1       6.684   4.683  14.188  0.00  0.00    +0.000 C 
BRANCH  17  18
ATOM     18  O   UNL     1       7.752   5.492  14.659  0.00  0.00    +0.000 OA
ATOM     19  H   UNL     1       8.312   4.931  15.222  0.00  0.00    +0.000 HD
ENDBRANCH  17  18
ENDBRANCH  16  17
ENDBRANCH  15  16
ENDBRANCH   1  15
BRANCH   5  20
ATOM     20  C   UNL     1       2.187   8.308  17.933  0.00  0.00    +0.000 C 
BRANCH  20  21
ATOM     21  C   UNL     1       1.574   9.712  18.151  0.00  0.00    +0.000 C 
BRANCH  21  22
ATOM     22  N   UNL     1       0.534   9.740  19.209  0.00  0.00    +0.000 NA
ATOM     23  C   UNL     1      -0.756  10.267  18.711  0.00  0.00    +0.000 C 
ATOM     24  C   UNL     1      -0.748  11.788  18.469  0.00  0.00    +0.000 C 
ATOM     25  O   UNL     1      -0.347  12.510  19.642  0.00  0.00    +0.000 OA
ATOM     26  C   UNL     1       0.923  12.053  20.126  0.00  0.00    +0.000 C 
ATOM     27  C   UNL     1       0.904  10.542  20.396  0.00  0.00    +0.000 C 
ENDBRANCH  21  22
ENDBRANCH  20  21
ENDBRANCH   5  20
TORSDOF 7
ENDMDL
MODEL 3
REMARK VINA RESULT:      -7.3      4.234      6.652
REMARK  Name = 
REMARK  7 active torsions:
REMARK  status: ('A' for Active; 'I' for Inactive)
REMARK    1  A    between atoms: O_1  and  C_2
REMARK    2  A    between atoms: C_2  and  C_3
REMARK    3  A    between atoms: C_3  and  C_4
REMARK    4  A    between atoms: C_4  and  N_5
REMARK    5  A    between atoms: N_9  and  C_10
REMARK    6  A    between atoms: C_10  and  C_11
REMARK    7  A    between atoms: C_11  and  N_12
REMARK                            x       y       z     vdW  Elec       q    Type
REMARK                         _______ _______ _______ _____ _____    ______ ____
ROOT
ATOM      1  N   UNL     1       5.543   5.331  16.745  0.00  0.00    +0.000 N 
ATOM      2  C   UNL     1       4.588   5.204  17.747  0.00  0.00    +0.000 A 
ATOM      3  N   UNL     1       3.859   6.287  17.991  0.00  0.00    +0.000 NA
ATOM      4  C   UNL     1       2.949   6.254  18.982  0.00  0.00    +0.000 A 
ATOM      5  N   UNL     1       2.312   7.484  19.282  0.00  0.00    +0.000 N 
ATOM      6  C   UNL     1       2.745   5.081  19.751  0.00  0.00    +0.000 A 
ATOM      7  C   UNL     1       1.813   4.885  20.811  0.00  0.00    +0.000 A 
ATOM      8  C   UNL     1       1.709   3.654  21.467  0.00  0.00    +0.000 A 
ATOM      9  C   UNL     1       2.526   2.600  21.088  0.00  0.00    +0.000 A 
ATOM     10  C   UNL     1       3.437   2.783  20.048  0.00  0.00    +0.000 A 
ATOM     11  C   UNL     1       3.553   3.998  19.379  0.00  0.00    +0.000 A 
ATOM     12  N   UNL     1       4.455   4.050  18.401  0.00  0.00    +0.000 NA
ATOM     13  H   UNL     1       5.256   6.138  16.197  0.00  0.00    +0.000 HD
ATOM     14  H   UNL     1       1.510   7.369  19.887  0.00  0.00    +0.000 HD
ENDROOT
BRANCH   1  15
ATOM     15  C   UNL     1       5.785   4.112  15.997  0.00  0.00    +0.000 C 
BRANCH  15  16
ATOM     16  C   UNL     1       5.578   4.382  14.504  0.00  0.00    +0.000 C 
BRANCH  16  17
ATOM     17  C   UNL     1       6.905   4.576  13.786  0.00  0.00    +0.000 C 
BRANCH  17  18
ATOM     18  O   UNL     1       7.748   5.427  14.550  0.00  0.00    +0.000 OA
ATOM     19  H   UNL     1       8.146   6.066  13.934  0.00  0.00    +0.000 HD
ENDBRANCH  17  18
ENDBRANCH  16  17
ENDBRANCH  15  16
ENDBRANCH   1  15
BRANCH   5  20
ATOM     20  C   UNL     1       1.983   8.251  18.062  0.00  0.00    +0.000 C 
BRANCH  20  21
ATOM     21  C   UNL     1       1.985   9.780  18.301  0.00  0.00    +0.000 C 
BRANCH  21  22
ATOM     22  N   UNL     1       0.656  10.314  18.689  0.00  0.00    +0.000 NA
ATOM     23  C   UNL     1       0.659  11.790  18.805  0.00  0.00    +0.000 C 
ATOM     24  C   UNL     1       1.399  12.309  20.052  0.00  0.00    +0.000 C 
ATOM     25  O   UNL     1       0.882  11.727  21.256  0.00  0.00    +0.000 OA
ATOM     26  C   UNL     1       0.906  10.296  21.195  0.00  0.00    +0.000 C 
ATOM     27  C   UNL     1       0.141   9.778  19.968  0.00  0.00    +0.000 C 
ENDBRANCH  21  22
ENDBRANCH  20  21
ENDBRANCH   5  20
TORSDOF 7
ENDMDL
MODEL 4
REMARK VINA RESULT:      -7.3      1.371      1.730
REMARK  Name = 
REMARK  7 active torsions:
REMARK  status: ('A' for Active; 'I' for Inactive)
REMARK    1  A    between atoms: O_1  and  C_2
REMARK    2  A    between atoms: C_2  and  C_3
REMARK    3  A    between atoms: C_3  and  C_4
REMARK    4  A    between atoms: C_4  and  N_5
REMARK    5  A    between atoms: N_9  and  C_10
REMARK    6  A    between atoms: C_10  and  C_11
REMARK    7  A    between atoms: C_11  and  N_12
REMARK                            x       y       z     vdW  Elec       q    Type
REMARK                         _______ _______ _______ _____ _____    ______ ____
ROOT
ATOM      1  N   UNL     1       7.483   6.664  17.936  0.00  0.00    +0.000 N 
ATOM      2  C   UNL     1       7.033   5.845  16.908  0.00  0.00    +0.000 A 
ATOM      3  N   UNL     1       6.115   4.945  17.244  0.00  0.00    +0.000 NA
ATOM      4  C   UNL     1       5.670   4.084  16.311  0.00  0.00    +0.000 A 
ATOM      5  N   UNL     1       4.803   3.062  16.772  0.00  0.00    +0.000 N 
ATOM      6  C   UNL     1       6.146   4.137  14.977  0.00  0.00    +0.000 A 
ATOM      7  C   UNL     1       5.759   3.314  13.881  0.00  0.00    +0.000 A 
ATOM      8  C   UNL     1       6.304   3.501  12.605  0.00  0.00    +0.000 A 
ATOM      9  C   UNL     1       7.243   4.500  12.397  0.00  0.00    +0.000 A 
ATOM     10  C   UNL     1       7.623   5.312  13.465  0.00  0.00    +0.000 A 
ATOM     11  C   UNL     1       7.089   5.147  14.740  0.00  0.00    +0.000 A 
ATOM     12  N   UNL     1       7.526   5.985  15.677  0.00  0.00    +0.000 NA
ATOM     13  H   UNL     1       6.774   6.603  18.662  0.00  0.00    +0.000 HD
ATOM     14  H   UNL     1       4.346   2.570  16.016  0.00  0.00    +0.000 HD
ENDROOT
BRANCH   1  15
ATOM     15  C   UNL     1       7.845   8.004  17.515  0.00  0.00    +0.000 C 
BRANCH  15  16
ATOM     16  C   UNL     1       8.623   8.697  18.637  0.00  0.00    +0.000 C 
BRANCH  16  17
ATOM     17  C   UNL     1       8.865  10.165  18.319  0.00  0.00    +0.000 C 
BRANCH  17  18
ATOM     18  O   UNL     1       9.624  10.765  19.359  0.00  0.00    +0.000 OA
ATOM     19  H   UNL     1       8.994  11.082  20.029  0.00  0.00    +0.000 HD
ENDBRANCH  17  18
ENDBRANCH  16  17
ENDBRANCH  15  16
ENDBRANCH   1  15
BRANCH   5  20
ATOM     20  C   UNL     1       3.838   3.562  17.775  0.00  0.00    +0.000 C 
BRANCH  20  21
ATOM     21  C   UNL     1       4.159   3.073  19.207  0.00  0.00    +0.000 C 
BRANCH  21  22
ATOM     22  N   UNL     1       3.071   2.263  19.808  0.00  0.00    +0.000 NA
ATOM     23  C   UNL     1       1.801   2.389  19.057  0.00  0.00    +0.000 C 
ATOM     24  C   UNL     1       1.102   3.747  19.251  0.00  0.00    +0.000 C 
ATOM     25  O   UNL     1       0.878   4.035  20.638  0.00  0.00    +0.000 OA
ATOM     26  C   UNL     1       2.098   3.967  21.388  0.00  0.00    +0.000 C 
ATOM     27  C   UNL     1       2.778   2.600  21.219  0.00  0.00    +0.000 C 
ENDBRANCH  21  22
ENDBRANCH  20  21
ENDBRANCH   5  20
TORSDOF 7
ENDMDL
MODEL 5
REMARK VINA RESULT:      -7.3      4.233      6.568
REMARK  Name = 
REMARK  7 active torsions:
REMARK  status: ('A' for Active; 'I' for Inactive)
REMARK    1  A    between atoms: O_1  and  C_2
REMARK    2  A    between atoms: C_2  and  C_3
REMARK    3  A    between atoms: C_3  and  C_4
REMARK    4  A    between atoms: C_4  and  N_5
REMARK    5  A    between atoms: N_9  and  C_10
REMARK    6  A    between atoms: C_10  and  C_11
REMARK    7  A    between atoms: C_11  and  N_12
REMARK                            x       y       z     vdW  Elec       q    Type
REMARK                         _______ _______ _______ _____ _____    ______ ____
ROOT
ATOM      1  N   UNL     1       5.030   6.617  17.386  0.00  0.00    +0.000 N 
ATOM      2  C   UNL     1       3.993   5.964  18.040  0.00  0.00    +0.000 A 
ATOM      3  N   UNL     1       3.354   6.673  18.964  0.00  0.00    +0.000 NA
ATOM      4  C   UNL     1       2.371   6.090  19.674  0.00  0.00    +0.000 A 
ATOM      5  N   UNL     1       1.833   6.856  20.738  0.00  0.00    +0.000 N 
ATOM      6  C   UNL     1       1.994   4.744  19.436  0.00  0.00    +0.000 A 
ATOM      7  C   UNL     1       0.968   3.999  20.084  0.00  0.00    +0.000 A 
ATOM      8  C   UNL     1       0.694   2.674  19.724  0.00  0.00    +0.000 A 
ATOM      9  C   UNL     1       1.434   2.067  18.720  0.00  0.00    +0.000 A 
ATOM     10  C   UNL     1       2.436   2.792  18.078  0.00  0.00    +0.000 A 
ATOM     11  C   UNL     1       2.721   4.112  18.417  0.00  0.00    +0.000 A 
ATOM     12  N   UNL     1       3.698   4.701  17.731  0.00  0.00    +0.000 NA
ATOM     13  H   UNL     1       4.866   7.609  17.540  0.00  0.00    +0.000 HD
ATOM     14  H   UNL     1       0.978   6.461  21.108  0.00  0.00    +0.000 HD
ENDROOT
BRANCH   1  15
ATOM     15  C   UNL     1       5.212   6.212  16.005  0.00  0.00    +0.000 C 
BRANCH  15  16
ATOM     16  C   UNL     1       6.568   5.519  15.853  0.00  0.00    +0.000 C 
BRANCH  16  17
ATOM     17  C   UNL     1       6.420   4.143  15.221  0.00  0.00    +0.000 C 
BRANCH  17  18
ATOM     18  O   UNL     1       5.771   3.263  16.128  0.00  0.00    +0.000 OA
ATOM     19  H   UNL     1       5.139   2.734  15.612  0.00  0.00    +0.000 HD
ENDBRANCH  17  18
ENDBRANCH  16  17
ENDBRANCH  15  16
ENDBRANCH   1  15
BRANCH   5  20
ATOM     20  C   UNL     1       1.676   8.280  20.373  0.00  0.00    +0.000 C 
BRANCH  20  21
ATOM     21  C   UNL     1       1.049   9.121  21.511  0.00  0.00    +0.000 C 
BRANCH  21  22
ATOM     22  N   UNL     1      -0.311   9.620  21.190  0.00  0.00    +0.000 NA
ATOM     23  C   UNL     1      -0.432  10.039  19.775  0.00  0.00    +0.000 C 
ATOM     24  C   UNL     1       0.292  11.361  19.459  0.00  0.00    +0.000 C 
ATOM     25  O   UNL     1      -0.142  12.423  20.319  0.00  0.00    +0.000 OA
ATOM     26  C   UNL     1       0.005  12.067  21.700  0.00  0.00    +0.000 C 
ATOM     27  C   UNL     1      -0.744  10.765  22.021  0.00  0.00    +0.000 C 
ENDBRANCH  21  22
ENDBRANCH  20  21
ENDBRANCH   5  20
TORSDOF 7
ENDMDL
MODEL 6
REMARK VINA RESULT:      -7.3      4.282      6.603
REMARK  Name = 
REMARK  7 active torsions:
REMARK  status: ('A' for Active; 'I' for Inactive)
REMARK    1  A    between atoms: O_1  and  C_2
REMARK    2  A    between atoms: C_2  and  C_3
REMARK    3  A    between atoms: C_3  and  C_4
REMARK    4  A    between atoms: C_4  and  N_5
REMARK    5  A    between atoms: N_9  and  C_10
REMARK    6  A    between atoms: C_10  and  C_11
REMARK    7  A    between atoms: C_11  and  N_12
REMARK                            x       y       z     vdW  Elec       q    Type
REMARK                         _______ _______ _______ _____ _____    ______ ____
ROOT
ATOM      1  N   UNL     1       5.510   5.126  16.635  0.00  0.00    +0.000 N 
ATOM      2  C   UNL     1       4.469   5.047  17.551  0.00  0.00    +0.000 A 
ATOM      3  N   UNL     1       3.853   6.192  17.827  0.00  0.00    +0.000 NA
ATOM      4  C   UNL     1       2.867   6.201  18.743  0.00  0.00    +0.000 A 
ATOM      5  N   UNL     1       2.355   7.475  19.092  0.00  0.00    +0.000 N 
ATOM      6  C   UNL     1       2.464   5.011  19.399  0.00  0.00    +0.000 A 
ATOM      7  C   UNL     1       1.433   4.856  20.368  0.00  0.00    +0.000 A 
ATOM      8  C   UNL     1       1.132   3.604  20.915  0.00  0.00    +0.000 A 
ATOM      9  C   UNL     1       1.849   2.487  20.514  0.00  0.00    +0.000 A 
ATOM     10  C   UNL     1       2.857   2.630  19.562  0.00  0.00    +0.000 A 
ATOM     11  C   UNL     1       3.169   3.866  19.001  0.00  0.00    +0.000 A 
ATOM     12  N   UNL     1       4.148   3.876  18.100  0.00  0.00    +0.000 NA
ATOM     13  H   UNL     1       5.366   5.999  16.134  0.00  0.00    +0.000 HD
ATOM     14  H   UNL     1       1.498   7.417  19.626  0.00  0.00    +0.000 HD
ENDROOT
BRANCH   1  15
ATOM     15  C   UNL     1       5.669   3.943  15.812  0.00  0.00    +0.000 C 
BRANCH  15  16
ATOM     16  C   UNL     1       5.621   4.341  14.334  0.00  0.00    +0.000 C 
BRANCH  16  17
ATOM     17  C   UNL     1       7.007   4.676  13.804  0.00  0.00    +0.000 C 
BRANCH  17  18
ATOM     18  O   UNL     1       7.723   5.435  14.768  0.00  0.00    +0.000 OA
ATOM     19  H   UNL     1       7.630   4.977  15.621  0.00  0.00    +0.000 HD
ENDBRANCH  17  18
ENDBRANCH  16  17
ENDBRANCH  15  16
ENDBRANCH   1  15
BRANCH   5  20
ATOM     20  C   UNL     1       2.219   8.361  17.917  0.00  0.00    +0.000 C 
BRANCH  20  21
ATOM     21  C   UNL     1       1.136   9.449  18.112  0.00  0.00    +0.000 C 
BRANCH  21  22
ATOM     22  N   UNL     1       1.479  10.435  19.166  0.00  0.00    +0.000 NA
ATOM     23  C   UNL     1       0.681  10.238  20.397  0.00  0.00    +0.000 C 
ATOM     24  C   UNL     1      -0.789  10.675  20.256  0.00  0.00    +0.000 C 
ATOM     25  O   UNL     1      -0.897  12.037  19.819  0.00  0.00    +0.000 OA
ATOM     26  C   UNL     1      -0.172  12.252  18.602  0.00  0.00    +0.000 C 
ATOM     27  C   UNL     1       1.301  11.845  18.753  0.00  0.00    +0.000 C 
ENDBRANCH  21  22
ENDBRANCH  20  21
ENDBRANCH   5  20
TORSDOF 7
ENDMDL
MODEL 7
REMARK VINA RESULT:      -7.3      1.679      2.133
REMARK  Name = 
REMARK  7 active torsions:
REMARK  status: ('A' for Active; 'I' for Inactive)
REMARK    1  A    between atoms: O_1  and  C_2
REMARK    2  A    between atoms: C_2  and  C_3
REMARK    3  A    between atoms: C_3  and  C_4
REMARK    4  A    between atoms: C_4  and  N_5
REMARK    5  A    between atoms: N_9  and  C_10
REMARK    6  A    between atoms: C_10  and  C_11
REMARK    7  A    between atoms: C_11  and  N_12
REMARK                            x       y       z     vdW  Elec       q    Type
REMARK                         _______ _______ _______ _____ _____    ______ ____
ROOT
ATOM      1  N   UNL     1       7.146   6.563  17.777  0.00  0.00    +0.000 N 
ATOM      2  C   UNL     1       6.732   5.799  16.693  0.00  0.00    +0.000 A 
ATOM      3  N   UNL     1       5.674   5.023  16.902  0.00  0.00    +0.000 NA
ATOM      4  C   UNL     1       5.247   4.217  15.913  0.00  0.00    +0.000 A 
ATOM      5  N   UNL     1       4.208   3.314  16.251  0.00  0.00    +0.000 N 
ATOM      6  C   UNL     1       5.892   4.199  14.651  0.00  0.00    +0.000 A 
ATOM      7  C   UNL     1       5.548   3.423  13.507  0.00  0.00    +0.000 A 
ATOM      8  C   UNL     1       6.271   3.530  12.313  0.00  0.00    +0.000 A 
ATOM      9  C   UNL     1       7.346   4.402  12.235  0.00  0.00    +0.000 A 
ATOM     10  C   UNL     1       7.685   5.169  13.349  0.00  0.00    +0.000 A 
ATOM     11  C   UNL     1       6.976   5.082  14.544  0.00  0.00    +0.000 A 
ATOM     12  N   UNL     1       7.391   5.867  15.536  0.00  0.00    +0.000 NA
ATOM     13  H   UNL     1       6.348   6.597  18.405  0.00  0.00    +0.000 HD
ATOM     14  H   UNL     1       3.793   2.877  15.439  0.00  0.00    +0.000 HD
ENDROOT
BRANCH   1  15
ATOM     15  C   UNL     1       7.722   7.844  17.416  0.00  0.00    +0.000 C 
BRANCH  15  16
ATOM     16  C   UNL     1       8.527   8.391  18.598  0.00  0.00    +0.000 C 
BRANCH  16  17
ATOM     17  C   UNL     1       8.788   9.882  18.449  0.00  0.00    +0.000 C 
BRANCH  17  18
ATOM     18  O   UNL     1       9.315  10.403  19.661  0.00  0.00    +0.000 OA
ATOM     19  H   UNL     1       8.607  10.355  20.326  0.00  0.00    +0.000 HD
ENDBRANCH  17  18
ENDBRANCH  16  17
ENDBRANCH  15  16
ENDBRANCH   1  15
BRANCH   5  20
ATOM     20  C   UNL     1       3.193   3.938  17.127  0.00  0.00    +0.000 C 
BRANCH  20  21
ATOM     21  C   UNL     1       2.927   3.117  18.411  0.00  0.00    +0.000 C 
BRANCH  21  22
ATOM     22  N   UNL     1       3.786   3.519  19.552  0.00  0.00    +0.000 NA
ATOM     23  C   UNL     1       3.824   2.487  20.613  0.00  0.00    +0.000 C 
ATOM     24  C   UNL     1       2.523   2.395  21.430  0.00  0.00    +0.000 C 
ATOM     25  O   UNL     1       2.161   3.662  21.996  0.00  0.00    +0.000 OA
ATOM     26  C   UNL     1       2.071   4.676  20.987  0.00  0.00    +0.000 C 
ATOM     27  C   UNL     1       3.380   4.789  20.193  0.00  0.00    +0.000 C 
ENDBRANCH  21  22
ENDBRANCH  20  21
ENDBRANCH   5  20
TORSDOF 7
ENDMDL
MODEL 8
REMARK VINA RESULT:      -7.3      4.591      6.703
REMARK  Name = 
REMARK  7 active torsions:
REMARK  status: ('A' for Active; 'I' for Inactive)
REMARK    1  A    between atoms: O_1  and  C_2
REMARK    2  A    between atoms: C_2  and  C_3
REMARK    3  A    between atoms: C_3  and  C_4
REMARK    4  A    between atoms: C_4  and  N_5
REMARK    5  A    between atoms: N_9  and  C_10
REMARK    6  A    between atoms: C_10  and  C_11
REMARK    7  A    between atoms: C_11  and  N_12
REMARK                            x       y       z     vdW  Elec       q    Type
REMARK                         _______ _______ _______ _____ _____    ______ ____
ROOT
ATOM      1  N   UNL     1       5.300   6.132  16.489  0.00  0.00    +0.000 N 
ATOM      2  C   UNL     1       4.279   5.895  17.402  0.00  0.00    +0.000 A 
ATOM      3  N   UNL     1       3.621   6.969  17.825  0.00  0.00    +0.000 NA
ATOM      4  C   UNL     1       2.653   6.822  18.748  0.00  0.00    +0.000 A 
ATOM      5  N   UNL     1       2.093   8.020  19.258  0.00  0.00    +0.000 N 
ATOM      6  C   UNL     1       2.313   5.543  19.257  0.00  0.00    +0.000 A 
ATOM      7  C   UNL     1       1.307   5.226  20.214  0.00  0.00    +0.000 A 
ATOM      8  C   UNL     1       1.070   3.903  20.606  0.00  0.00    +0.000 A 
ATOM      9  C   UNL     1       1.827   2.877  20.061  0.00  0.00    +0.000 A 
ATOM     10  C   UNL     1       2.810   3.180  19.120  0.00  0.00    +0.000 A 
ATOM     11  C   UNL     1       3.058   4.488  18.712  0.00  0.00    +0.000 A 
ATOM     12  N   UNL     1       4.019   4.652  17.806  0.00  0.00    +0.000 NA
ATOM     13  H   UNL     1       5.109   7.052  16.101  0.00  0.00    +0.000 HD
ATOM     14  H   UNL     1       1.250   7.858  19.792  0.00  0.00    +0.000 HD
ENDROOT
BRANCH   1  15
ATOM     15  C   UNL     1       5.493   5.067  15.524  0.00  0.00    +0.000 C 
BRANCH  15  16
ATOM     16  C   UNL     1       6.913   4.509  15.660  0.00  0.00    +0.000 C 
BRANCH  16  17
ATOM     17  C   UNL     1       7.518   4.856  17.012  0.00  0.00    +0.000 C 
BRANCH  17  18
ATOM     18  O   UNL     1       6.959   4.024  18.018  0.00  0.00    +0.000 OA
ATOM     19  H   UNL     1       7.582   3.293  18.167  0.00  0.00    +0.000 HD
ENDBRANCH  17  18
ENDBRANCH  16  17
ENDBRANCH  15  16
ENDBRANCH   1  15
BRANCH   5  20
ATOM     20  C   UNL     1       1.898   9.036  18.203  0.00  0.00    +0.000 C 
BRANCH  20  21
ATOM     21  C   UNL     1       0.459   9.604  18.181  0.00  0.00    +0.000 C 
BRANCH  21  22
ATOM     22  N   UNL     1       0.140  10.439  19.365  0.00  0.00    +0.000 NA
ATOM     23  C   UNL     1      -1.209  11.042  19.275  0.00  0.00    +0.000 C 
ATOM     24  C   UNL     1      -1.305  12.190  18.253  0.00  0.00    +0.000 C 
ATOM     25  O   UNL     1      -0.331  13.211  18.509  0.00  0.00    +0.000 OA
ATOM     26  C   UNL     1       0.994  12.666  18.556  0.00  0.00    +0.000 C 
ATOM     27  C   UNL     1       1.096  11.543  19.599  0.00  0.00    +0.000 C 
ENDBRANCH  21  22
ENDBRANCH  20  21
ENDBRANCH   5  20
TORSDOF 7
ENDMDL
MODEL 9
REMARK VINA RESULT:      -7.3      4.499      6.750
REMARK  Name = 
REMARK  7 active torsions:
REMARK  status: ('A' for Active; 'I' for Inactive)
REMARK    1  A    between atoms: O_1  and  C_2
REMARK    2  A    between atoms: C_2  and  C_3
REMARK    3  A    between atoms: C_3  and  C_4
REMARK    4  A    between atoms: C_4  and  N_5
REMARK    5  A    between atoms: N_9  and  C_10
REMARK    6  A    between atoms: C_10  and  C_11
REMARK    7  A    between atoms: C_11  and  N_12
REMARK                            x       y       z     vdW  Elec       q    Type
REMARK                         _______ _______ _______ _____ _____    ______ ____
ROOT
ATOM      1  N   UNL     1       5.198   6.040  16.381  0.00  0.00    +0.000 N 
ATOM      2  C   UNL     1       4.262   5.824  17.385  0.00  0.00    +0.000 A 
ATOM      3  N   UNL     1       3.538   6.881  17.738  0.00  0.00    +0.000 NA
ATOM      4  C   UNL     1       2.647   6.760  18.739  0.00  0.00    +0.000 A 
ATOM      5  N   UNL     1       2.016   7.958  19.158  0.00  0.00    +0.000 N 
ATOM      6  C   UNL     1       2.455   5.523  19.404  0.00  0.00    +0.000 A 
ATOM      7  C   UNL     1       1.542   5.234  20.459  0.00  0.00    +0.000 A 
ATOM      8  C   UNL     1       1.448   3.948  21.005  0.00  0.00    +0.000 A 
ATOM      9  C   UNL     1       2.258   2.933  20.519  0.00  0.00    +0.000 A 
ATOM     10  C   UNL     1       3.149   3.208  19.483  0.00  0.00    +0.000 A 
ATOM     11  C   UNL     1       3.255   4.478  18.922  0.00  0.00    +0.000 A 
ATOM     12  N   UNL     1       4.139   4.617  17.937  0.00  0.00    +0.000 NA
ATOM     13  H   UNL     1       4.902   6.892  15.913  0.00  0.00    +0.000 HD
ATOM     14  H   UNL     1       1.225   7.789  19.765  0.00  0.00    +0.000 HD
ENDROOT
BRANCH   1  15
ATOM     15  C   UNL     1       5.425   4.893  15.524  0.00  0.00    +0.000 C 
BRANCH  15  16
ATOM     16  C   UNL     1       6.910   4.521  15.554  0.00  0.00    +0.000 C 
BRANCH  16  17
ATOM     17  C   UNL     1       7.528   4.814  16.913  0.00  0.00    +0.000 C 
BRANCH  17  18
ATOM     18  O   UNL     1       6.955   3.965  17.897  0.00  0.00    +0.000 OA
ATOM     19  H   UNL     1       7.688   3.517  18.352  0.00  0.00    +0.000 HD
ENDBRANCH  17  18
ENDBRANCH  16  17
ENDBRANCH  15  16
ENDBRANCH   1  15
BRANCH   5  20
ATOM     20  C   UNL     1       1.666   8.831  18.018  0.00  0.00    +0.000 C 
BRANCH  20  21
ATOM     21  C   UNL     1       1.894  10.330  18.322  0.00  0.00    +0.000 C 
BRANCH  21  22
ATOM     22  N   UNL     1       0.647  11.054  18.674  0.00  0.00    +0.000 NA
ATOM     23  C   UNL     1       0.894  12.485  18.960  0.00  0.00    +0.000 C 
ATOM     24  C   UNL     1       1.595  12.732  20.309  0.00  0.00    +0.000 C 
ATOM     25  O   UNL     1       0.877  12.134  21.397  0.00  0.00    +0.000 OA
ATOM     26  C   UNL     1       0.661  10.735  21.172  0.00  0.00    +0.000 C 
ATOM     27  C   UNL     1      -0.067  10.492  19.842  0.00  0.00    +0.000 C 
ENDBRANCH  21  22
ENDBRANCH  20  21
ENDBRANCH   5  20
TORSDOF 7
ENDMDL
