MODEL 1
REMARK VINA RESULT:      -7.0      0.000      0.000
REMARK  Name = 
REMARK  9 active torsions:
REMARK  status: ('A' for Active; 'I' for Inactive)
REMARK    1  A    between atoms: C_1  and  O_2
REMARK    2  A    between atoms: O_2  and  C_3
REMARK    3  A    between atoms: C_3  and  C_5
REMARK    4  A    between atoms: C_6  and  C_7
REMARK    5  A    between atoms: C_11  and  N_12
REMARK    6  A    between atoms: C_11  and  C_23
REMARK    7  A    between atoms: N_12  and  S_13
REMARK    8  A    between atoms: S_13  and  C_16
REMARK    9  A    between atoms: C_19  and  C_20
REMARK                            x       y       z     vdW  Elec       q    Type
REMARK                         _______ _______ _______ _____ _____    ______ ____
ROOT
ATOM      1  C   UNL     1       5.620   4.995  16.695  0.00  0.00    +0.000 C 
ATOM      2  C   UNL     1       5.192   3.761  16.396  0.00  0.00    +0.000 C 
ATOM      3  C   UNL     1       4.862   3.112  15.098  0.00  0.00    +0.000 C 
ATOM      4  N   UNL     1       4.977   3.071  17.555  0.00  0.00    +0.000 N 
ATOM      5  C   UNL     1       5.222   3.846  18.672  0.00  0.00    +0.000 C 
ATOM      6  O   UNL     1       5.052   3.474  19.820  0.00  0.00    +0.000 OA
ATOM      7  C   UNL     1       5.648   5.231  18.194  0.00  0.00    +0.000 C 
ATOM      8  H   UNL     1       4.626   2.123  17.620  0.00  0.00    +0.000 HD
ENDROOT
BRANCH   7   9
ATOM      9  C   UNL     1       7.075   5.475  18.734  0.00  0.00    +0.000 C 
ATOM     10  F   UNL     1       7.969   4.571  18.259  0.00  0.00    +0.000 F 
ATOM     11  F   UNL     1       7.530   6.697  18.341  0.00  0.00    +0.000 F 
ATOM     12  F   UNL     1       7.179   5.443  20.080  0.00  0.00    +0.000 F 
ENDBRANCH   7   9
BRANCH   1  13
ATOM     13  C   UNL     1       5.974   6.036  15.719  0.00  0.00    +0.000 C 
ATOM     14  O   UNL     1       5.223   6.924  15.354  0.00  0.00    +0.000 OA
BRANCH  13  16
ATOM     15  C   UNL     1       7.333   5.238  14.000  0.00  0.00    +0.000 C 
ATOM     16  O   UNL     1       7.248   5.854  15.288  0.00  0.00    +0.000 OA
ENDBRANCH  13  16
ENDBRANCH   1  13
BRANCH   7  17
ATOM     17  N   UNL     1       4.666   6.284  18.610  0.00  0.00    +0.000 NA
ATOM     18  H   UNL     1       4.831   7.221  18.234  0.00  0.00    +0.000 HD
BRANCH  17  19
ATOM     19  S   UNL     1       3.057   5.985  18.935  0.00  0.00    +0.000 S 
ATOM     20  O   UNL     1       2.558   5.282  17.775  0.00  0.00    +0.000 OA
ATOM     21  O   UNL     1       2.943   5.407  20.253  0.00  0.00    +0.000 OA
BRANCH  19  22
ATOM     22  C   UNL     1       2.309   7.584  18.944  0.00  0.00    +0.000 A 
ATOM     23  C   UNL     1       1.663   8.021  20.102  0.00  0.00    +0.000 A 
ATOM     24  C   UNL     1       1.053   9.275  20.113  0.00  0.00    +0.000 A 
ATOM     25  C   UNL     1       1.093  10.094  18.975  0.00  0.00    +0.000 A 
ATOM     26  C   UNL     1       0.401  11.424  18.961  0.00  0.00    +0.000 C 
ATOM     27  C   UNL     1       1.772   9.652  17.830  0.00  0.00    +0.000 A 
ATOM     28  C   UNL     1       2.390   8.402  17.815  0.00  0.00    +0.000 A 
ENDBRANCH  19  22
ENDBRANCH  17  19
ENDBRANCH   7  17
TORSDOF 6
ENDMDL
MODEL 2
REMARK VINA RESULT:      -6.9      0.065      1.208
REMARK  Name = 
REMARK  9 active torsions:
REMARK  status: ('A' for Active; 'I' for Inactive)
REMARK    1  A    between atoms: C_1  and  O_2
REMARK    2  A    between atoms: O_2  and  C_3
REMARK    3  A    between atoms: C_3  and  C_5
REMARK    4  A    between atoms: C_6  and  C_7
REMARK    5  A    between atoms: C_11  and  N_12
REMARK    6  A    between atoms: C_11  and  C_23
REMARK    7  A    between atoms: N_12  and  S_13
REMARK    8  A    between atoms: S_13  and  C_16
REMARK    9  A    between atoms: C_19  and  C_20
REMARK                            x       y       z     vdW  Elec       q    Type
REMARK                         _______ _______ _______ _____ _____    ______ ____
ROOT
ATOM      1  C   UNL     1       5.586   4.998  16.701  0.00  0.00    +0.000 C 
ATOM      2  C   UNL     1       5.153   3.767  16.396  0.00  0.00    +0.000 C 
ATOM      3  C   UNL     1       4.815   3.128  15.095  0.00  0.00    +0.000 C 
ATOM      4  N   UNL     1       4.941   3.070  17.550  0.00  0.00    +0.000 N 
ATOM      5  C   UNL     1       5.194   3.837  18.672  0.00  0.00    +0.000 C 
ATOM      6  O   UNL     1       5.028   3.457  19.818  0.00  0.00    +0.000 OA
ATOM      7  C   UNL     1       5.621   5.223  18.201  0.00  0.00    +0.000 C 
ATOM      8  H   UNL     1       4.588   2.122  17.611  0.00  0.00    +0.000 HD
ENDROOT
BRANCH   7   9
ATOM      9  C   UNL     1       7.051   5.460  18.737  0.00  0.00    +0.000 C 
ATOM     10  F   UNL     1       7.112   5.408  20.092  0.00  0.00    +0.000 F 
ATOM     11  F   UNL     1       7.895   4.491  18.284  0.00  0.00    +0.000 F 
ATOM     12  F   UNL     1       7.598   6.641  18.376  0.00  0.00    +0.000 F 
ENDBRANCH   7   9
BRANCH   1  13
ATOM     13  C   UNL     1       5.939   6.044  15.731  0.00  0.00    +0.000 C 
ATOM     14  O   UNL     1       5.184   6.928  15.364  0.00  0.00    +0.000 OA
BRANCH  13  16
ATOM     15  C   UNL     1       7.318   5.179  14.060  0.00  0.00    +0.000 C 
ATOM     16  O   UNL     1       7.217   5.872  15.307  0.00  0.00    +0.000 OA
ENDBRANCH  13  16
ENDBRANCH   1  13
BRANCH   7  17
ATOM     17  N   UNL     1       4.645   6.277  18.629  0.00  0.00    +0.000 NA
ATOM     18  H   UNL     1       4.813   7.216  18.262  0.00  0.00    +0.000 HD
BRANCH  17  19
ATOM     19  S   UNL     1       3.034   5.981  18.953  0.00  0.00    +0.000 S 
ATOM     20  O   UNL     1       2.532   5.287  17.788  0.00  0.00    +0.000 OA
ATOM     21  O   UNL     1       2.918   5.396  20.267  0.00  0.00    +0.000 OA
BRANCH  19  22
ATOM     22  C   UNL     1       2.293   7.583  18.972  0.00  0.00    +0.000 A 
ATOM     23  C   UNL     1       2.369   8.376  17.825  0.00  0.00    +0.000 A 
ATOM     24  C   UNL     1       1.803   9.650  17.835  0.00  0.00    +0.000 A 
ATOM     25  C   UNL     1       1.156  10.131  18.983  0.00  0.00    +0.000 A 
ATOM     26  C   UNL     1       0.585  11.516  19.020  0.00  0.00    +0.000 C 
ATOM     27  C   UNL     1       1.062   9.310  20.117  0.00  0.00    +0.000 A 
ATOM     28  C   UNL     1       1.620   8.032  20.111  0.00  0.00    +0.000 A 
ENDBRANCH  19  22
ENDBRANCH  17  19
ENDBRANCH   7  17
TORSDOF 6
ENDMDL
MODEL 3
REMARK VINA RESULT:      -6.8      1.208      1.725
REMARK  Name = 
REMARK  9 active torsions:
REMARK  status: ('A' for Active; 'I' for Inactive)
REMARK    1  A    between atoms: C_1  and  O_2
REMARK    2  A    between atoms: O_2  and  C_3
REMARK    3  A    between atoms: C_3  and  C_5
REMARK    4  A    between atoms: C_6  and  C_7
REMARK    5  A    between atoms: C_11  and  N_12
REMARK    6  A    between atoms: C_11  and  C_23
REMARK    7  A    between atoms: N_12  and  S_13
REMARK    8  A    between atoms: S_13  and  C_16
REMARK    9  A    between atoms: C_19  and  C_20
REMARK                            x       y       z     vdW  Elec       q    Type
REMARK                         _______ _______ _______ _____ _____    ______ ____
ROOT
ATOM      1  C   UNL     1       5.907   4.991  16.412  0.00  0.00    +0.000 C 
ATOM      2  C   UNL     1       5.653   3.995  15.552  0.00  0.00    +0.000 C 
ATOM      3  C   UNL     1       6.075   3.769  14.142  0.00  0.00    +0.000 C 
ATOM      4  N   UNL     1       4.786   3.114  16.132  0.00  0.00    +0.000 N 
ATOM      5  C   UNL     1       4.403   3.522  17.396  0.00  0.00    +0.000 C 
ATOM      6  O   UNL     1       3.597   2.934  18.095  0.00  0.00    +0.000 OA
ATOM      7  C   UNL     1       5.100   4.847  17.689  0.00  0.00    +0.000 C 
ATOM      8  H   UNL     1       4.407   2.284  15.693  0.00  0.00    +0.000 HD
ENDROOT
BRANCH   7   9
ATOM      9  C   UNL     1       5.987   4.623  18.934  0.00  0.00    +0.000 C 
ATOM     10  F   UNL     1       6.065   5.728  19.720  0.00  0.00    +0.000 F 
ATOM     11  F   UNL     1       5.468   3.639  19.719  0.00  0.00    +0.000 F 
ATOM     12  F   UNL     1       7.259   4.262  18.660  0.00  0.00    +0.000 F 
ENDBRANCH   7   9
BRANCH   1  13
ATOM     13  C   UNL     1       6.806   6.126  16.162  0.00  0.00    +0.000 C 
ATOM     14  O   UNL     1       7.777   6.089  15.426  0.00  0.00    +0.000 OA
BRANCH  13  16
ATOM     15  C   UNL     1       7.465   7.896  17.530  0.00  0.00    +0.000 C 
ATOM     16  O   UNL     1       6.398   7.207  16.874  0.00  0.00    +0.000 OA
ENDBRANCH  13  16
ENDBRANCH   1  13
BRANCH   7  17
ATOM     17  N   UNL     1       4.115   5.964  17.854  0.00  0.00    +0.000 NA
ATOM     18  H   UNL     1       4.028   6.603  17.061  0.00  0.00    +0.000 HD
BRANCH  17  19
ATOM     19  S   UNL     1       2.715   5.849  18.756  0.00  0.00    +0.000 S 
ATOM     20  O   UNL     1       1.776   5.144  17.913  0.00  0.00    +0.000 OA
ATOM     21  O   UNL     1       3.042   5.353  20.071  0.00  0.00    +0.000 OA
BRANCH  19  22
ATOM     22  C   UNL     1       2.149   7.516  18.896  0.00  0.00    +0.000 A 
ATOM     23  C   UNL     1       1.613   7.947  20.111  0.00  0.00    +0.000 A 
ATOM     24  C   UNL     1       1.146   9.255  20.227  0.00  0.00    +0.000 A 
ATOM     25  C   UNL     1       1.219  10.134  19.136  0.00  0.00    +0.000 A 
ATOM     26  C   UNL     1       0.677  11.528  19.235  0.00  0.00    +0.000 C 
ATOM     27  C   UNL     1       1.787   9.694  17.932  0.00  0.00    +0.000 A 
ATOM     28  C   UNL     1       2.263   8.389  17.812  0.00  0.00    +0.000 A 
ENDBRANCH  19  22
ENDBRANCH  17  19
ENDBRANCH   7  17
TORSDOF 6
ENDMDL
MODEL 4
REMARK VINA RESULT:      -6.8      2.677      6.292
REMARK  Name = 
REMARK  9 active torsions:
REMARK  status: ('A' for Active; 'I' for Inactive)
REMARK    1  A    between atoms: C_1  and  O_2
REMARK    2  A    between atoms: O_2  and  C_3
REMARK    3  A    between atoms: C_3  and  C_5
REMARK    4  A    between atoms: C_6  and  C_7
REMARK    5  A    between atoms: C_11  and  N_12
REMARK    6  A    between atoms: C_11  and  C_23
REMARK    7  A    between atoms: N_12  and  S_13
REMARK    8  A    between atoms: S_13  and  C_16
REMARK    9  A    between atoms: C_19  and  C_20
REMARK                            x       y       z     vdW  Elec       q    Type
REMARK                         _______ _______ _______ _____ _____    ______ ____
ROOT
ATOM      1  C   UNL     1       3.212   4.496  18.295  0.00  0.00    +0.000 C 
ATOM      2  C   UNL     1       3.080   5.719  18.825  0.00  0.00    +0.000 C 
ATOM      3  C   UNL     1       2.043   6.772  18.646  0.00  0.00    +0.000 C 
ATOM      4  N   UNL     1       4.174   5.992  19.595  0.00  0.00    +0.000 N 
ATOM      5  C   UNL     1       5.094   4.962  19.569  0.00  0.00    +0.000 C 
ATOM      6  O   UNL     1       6.174   4.990  20.133  0.00  0.00    +0.000 OA
ATOM      7  C   UNL     1       4.544   3.868  18.661  0.00  0.00    +0.000 C 
ATOM      8  H   UNL     1       4.344   6.859  20.091  0.00  0.00    +0.000 HD
ENDROOT
BRANCH   7   9
ATOM      9  C   UNL     1       4.389   2.598  19.528  0.00  0.00    +0.000 C 
ATOM     10  F   UNL     1       3.452   2.747  20.500  0.00  0.00    +0.000 F 
ATOM     11  F   UNL     1       3.977   1.548  18.764  0.00  0.00    +0.000 F 
ATOM     12  F   UNL     1       5.520   2.199  20.148  0.00  0.00    +0.000 F 
ENDBRANCH   7   9
BRANCH   1  13
ATOM     13  C   UNL     1       2.234   3.834  17.420  0.00  0.00    +0.000 C 
ATOM     14  O   UNL     1       2.482   3.414  16.303  0.00  0.00    +0.000 OA
BRANCH  13  16
ATOM     15  C   UNL     1       0.790   2.525  18.700  0.00  0.00    +0.000 C 
ATOM     16  O   UNL     1       1.027   3.769  18.036  0.00  0.00    +0.000 OA
ENDBRANCH  13  16
ENDBRANCH   1  13
BRANCH   7  17
ATOM     17  N   UNL     1       5.412   3.662  17.456  0.00  0.00    +0.000 NA
ATOM     18  H   UNL     1       5.001   3.112  16.699  0.00  0.00    +0.000 HD
BRANCH  17  19
ATOM     19  S   UNL     1       6.543   4.767  16.921  0.00  0.00    +0.000 S 
ATOM     20  O   UNL     1       5.940   6.064  17.135  0.00  0.00    +0.000 OA
ATOM     21  O   UNL     1       7.826   4.445  17.498  0.00  0.00    +0.000 OA
BRANCH  19  22
ATOM     22  C   UNL     1       6.617   4.503  15.177  0.00  0.00    +0.000 A 
ATOM     23  C   UNL     1       5.675   3.662  14.580  0.00  0.00    +0.000 A 
ATOM     24  C   UNL     1       5.737   3.433  13.206  0.00  0.00    +0.000 A 
ATOM     25  C   UNL     1       6.730   4.044  12.427  0.00  0.00    +0.000 A 
ATOM     26  C   UNL     1       6.833   3.766  10.958  0.00  0.00    +0.000 C 
ATOM     27  C   UNL     1       7.650   4.908  13.038  0.00  0.00    +0.000 A 
ATOM     28  C   UNL     1       7.590   5.149  14.410  0.00  0.00    +0.000 A 
ENDBRANCH  19  22
ENDBRANCH  17  19
ENDBRANCH   7  17
TORSDOF 6
ENDMDL
MODEL 5
REMARK VINA RESULT:      -6.8      1.258      1.880
REMARK  Name = 
REMARK  9 active torsions:
REMARK  status: ('A' for Active; 'I' for Inactive)
REMARK    1  A    between atoms: C_1  and  O_2
REMARK    2  A    between atoms: O_2  and  C_3
REMARK    3  A    between atoms: C_3  and  C_5
REMARK    4  A    between atoms: C_6  and  C_7
REMARK    5  A    between atoms: C_11  and  N_12
REMARK    6  A    between atoms: C_11  and  C_23
REMARK    7  A    between atoms: N_12  and  S_13
REMARK    8  A    between atoms: S_13  and  C_16
REMARK    9  A    between atoms: C_19  and  C_20
REMARK                            x       y       z     vdW  Elec       q    Type
REMARK                         _______ _______ _______ _____ _____    ______ ____
ROOT
ATOM      1  C   UNL     1       5.833   5.084  16.391  0.00  0.00    +0.000 C 
ATOM      2  C   UNL     1       5.552   4.142  15.482  0.00  0.00    +0.000 C 
ATOM      3  C   UNL     1       5.986   3.964  14.069  0.00  0.00    +0.000 C 
ATOM      4  N   UNL     1       4.640   3.272  16.008  0.00  0.00    +0.000 N 
ATOM      5  C   UNL     1       4.254   3.636  17.284  0.00  0.00    +0.000 C 
ATOM      6  O   UNL     1       3.413   3.050  17.943  0.00  0.00    +0.000 OA
ATOM      7  C   UNL     1       5.001   4.915  17.650  0.00  0.00    +0.000 C 
ATOM      8  H   UNL     1       4.234   2.479  15.525  0.00  0.00    +0.000 HD
ENDROOT
BRANCH   7   9
ATOM      9  C   UNL     1       5.858   4.596  18.895  0.00  0.00    +0.000 C 
ATOM     10  F   UNL     1       7.113   4.191  18.569  0.00  0.00    +0.000 F 
ATOM     11  F   UNL     1       6.010   5.708  19.666  0.00  0.00    +0.000 F 
ATOM     12  F   UNL     1       5.347   3.640  19.700  0.00  0.00    +0.000 F 
ENDBRANCH   7   9
BRANCH   1  13
ATOM     13  C   UNL     1       6.782   6.191  16.208  0.00  0.00    +0.000 C 
ATOM     14  O   UNL     1       7.793   6.128  15.530  0.00  0.00    +0.000 OA
BRANCH  13  16
ATOM     15  C   UNL     1       7.435   7.992  17.538  0.00  0.00    +0.000 C 
ATOM     16  O   UNL     1       6.369   7.278  16.907  0.00  0.00    +0.000 OA
ENDBRANCH  13  16
ENDBRANCH   1  13
BRANCH   7  17
ATOM     17  N   UNL     1       4.061   6.064  17.854  0.00  0.00    +0.000 NA
ATOM     18  H   UNL     1       4.003   6.735  17.084  0.00  0.00    +0.000 HD
BRANCH  17  19
ATOM     19  S   UNL     1       2.654   5.972  18.747  0.00  0.00    +0.000 S 
ATOM     20  O   UNL     1       1.708   5.282  17.898  0.00  0.00    +0.000 OA
ATOM     21  O   UNL     1       2.965   5.470  20.064  0.00  0.00    +0.000 OA
BRANCH  19  22
ATOM     22  C   UNL     1       2.115   7.647  18.884  0.00  0.00    +0.000 A 
ATOM     23  C   UNL     1       2.282   8.502  17.793  0.00  0.00    +0.000 A 
ATOM     24  C   UNL     1       1.877   9.832  17.897  0.00  0.00    +0.000 A 
ATOM     25  C   UNL     1       1.300  10.307  19.084  0.00  0.00    +0.000 A 
ATOM     26  C   UNL     1       0.903  11.746  19.223  0.00  0.00    +0.000 C 
ATOM     27  C   UNL     1       1.111   9.428  20.160  0.00  0.00    +0.000 A 
ATOM     28  C   UNL     1       1.508   8.095  20.060  0.00  0.00    +0.000 A 
ENDBRANCH  19  22
ENDBRANCH  17  19
ENDBRANCH   7  17
TORSDOF 6
ENDMDL
MODEL 6
REMARK VINA RESULT:      -6.6      2.435      3.355
REMARK  Name = 
REMARK  9 active torsions:
REMARK  status: ('A' for Active; 'I' for Inactive)
REMARK    1  A    between atoms: C_1  and  O_2
REMARK    2  A    between atoms: O_2  and  C_3
REMARK    3  A    between atoms: C_3  and  C_5
REMARK    4  A    between atoms: C_6  and  C_7
REMARK    5  A    between atoms: C_11  and  N_12
REMARK    6  A    between atoms: C_11  and  C_23
REMARK    7  A    between atoms: N_12  and  S_13
REMARK    8  A    between atoms: S_13  and  C_16
REMARK    9  A    between atoms: C_19  and  C_20
REMARK                            x       y       z     vdW  Elec       q    Type
REMARK                         _______ _______ _______ _____ _____    ______ ____
ROOT
ATOM      1  C   UNL     1       4.440   4.322  18.242  0.00  0.00    +0.000 C 
ATOM      2  C   UNL     1       4.261   3.997  16.955  0.00  0.00    +0.000 C 
ATOM      3  C   UNL     1       5.177   4.042  15.783  0.00  0.00    +0.000 C 
ATOM      4  N   UNL     1       2.956   3.643  16.762  0.00  0.00    +0.000 N 
ATOM      5  C   UNL     1       2.212   3.760  17.920  0.00  0.00    +0.000 C 
ATOM      6  O   UNL     1       1.013   3.552  17.992  0.00  0.00    +0.000 OA
ATOM      7  C   UNL     1       3.139   4.262  19.022  0.00  0.00    +0.000 C 
ATOM      8  H   UNL     1       2.543   3.377  15.876  0.00  0.00    +0.000 HD
ENDROOT
BRANCH   7   9
ATOM      9  C   UNL     1       3.154   3.182  20.126  0.00  0.00    +0.000 C 
ATOM     10  F   UNL     1       2.650   3.638  21.302  0.00  0.00    +0.000 F 
ATOM     11  F   UNL     1       2.375   2.123  19.768  0.00  0.00    +0.000 F 
ATOM     12  F   UNL     1       4.376   2.680  20.406  0.00  0.00    +0.000 F 
ENDBRANCH   7   9
BRANCH   1  13
ATOM     13  C   UNL     1       5.711   4.743  18.848  0.00  0.00    +0.000 C 
ATOM     14  O   UNL     1       5.810   5.555  19.752  0.00  0.00    +0.000 OA
BRANCH  13  16
ATOM     15  C   UNL     1       7.925   4.903  18.131  0.00  0.00    +0.000 C 
ATOM     16  O   UNL     1       6.746   4.101  18.249  0.00  0.00    +0.000 OA
ENDBRANCH  13  16
ENDBRANCH   1  13
BRANCH   7  17
ATOM     17  N   UNL     1       2.724   5.614  19.518  0.00  0.00    +0.000 NA
ATOM     18  H   UNL     1       3.066   5.873  20.447  0.00  0.00    +0.000 HD
BRANCH  17  19
ATOM     19  S   UNL     1       2.464   6.933  18.528  0.00  0.00    +0.000 S 
ATOM     20  O   UNL     1       3.781   7.440  18.214  0.00  0.00    +0.000 OA
ATOM     21  O   UNL     1       1.548   6.559  17.477  0.00  0.00    +0.000 OA
BRANCH  19  22
ATOM     22  C   UNL     1       1.680   8.117  19.577  0.00  0.00    +0.000 A 
ATOM     23  C   UNL     1       1.484   7.801  20.923  0.00  0.00    +0.000 A 
ATOM     24  C   UNL     1       0.849   8.722  21.756  0.00  0.00    +0.000 A 
ATOM     25  C   UNL     1       0.417   9.957  21.251  0.00  0.00    +0.000 A 
ATOM     26  C   UNL     1      -0.308  10.934  22.126  0.00  0.00    +0.000 C 
ATOM     27  C   UNL     1       0.648  10.270  19.903  0.00  0.00    +0.000 A 
ATOM     28  C   UNL     1       1.289   9.357  19.067  0.00  0.00    +0.000 A 
ENDBRANCH  19  22
ENDBRANCH  17  19
ENDBRANCH   7  17
TORSDOF 6
ENDMDL
MODEL 7
REMARK VINA RESULT:      -6.6      3.394      5.699
REMARK  Name = 
REMARK  9 active torsions:
REMARK  status: ('A' for Active; 'I' for Inactive)
REMARK    1  A    between atoms: C_1  and  O_2
REMARK    2  A    between atoms: O_2  and  C_3
REMARK    3  A    between atoms: C_3  and  C_5
REMARK    4  A    between atoms: C_6  and  C_7
REMARK    5  A    between atoms: C_11  and  N_12
REMARK    6  A    between atoms: C_11  and  C_23
REMARK    7  A    between atoms: N_12  and  S_13
REMARK    8  A    between atoms: S_13  and  C_16
REMARK    9  A    between atoms: C_19  and  C_20
REMARK                            x       y       z     vdW  Elec       q    Type
REMARK                         _______ _______ _______ _____ _____    ______ ____
ROOT
ATOM      1  C   UNL     1       2.477   4.256  19.812  0.00  0.00    +0.000 C 
ATOM      2  C   UNL     1       2.700   3.202  20.609  0.00  0.00    +0.000 C 
ATOM      3  C   UNL     1       2.606   3.037  22.086  0.00  0.00    +0.000 C 
ATOM      4  N   UNL     1       3.164   2.162  19.856  0.00  0.00    +0.000 N 
ATOM      5  C   UNL     1       3.301   2.509  18.525  0.00  0.00    +0.000 C 
ATOM      6  O   UNL     1       3.746   1.770  17.663  0.00  0.00    +0.000 OA
ATOM      7  C   UNL     1       2.881   3.967  18.377  0.00  0.00    +0.000 C 
ATOM      8  H   UNL     1       3.437   1.253  20.210  0.00  0.00    +0.000 HD
ENDROOT
BRANCH   7   9
ATOM      9  C   UNL     1       1.682   3.995  17.403  0.00  0.00    +0.000 C 
ATOM     10  F   UNL     1       1.207   5.251  17.203  0.00  0.00    +0.000 F 
ATOM     11  F   UNL     1       2.055   3.534  16.176  0.00  0.00    +0.000 F 
ATOM     12  F   UNL     1       0.627   3.246  17.788  0.00  0.00    +0.000 F 
ENDBRANCH   7   9
BRANCH   1  13
ATOM     13  C   UNL     1       1.960   5.561  20.246  0.00  0.00    +0.000 C 
ATOM     14  O   UNL     1       0.944   5.717  20.902  0.00  0.00    +0.000 OA
BRANCH  13  16
ATOM     15  C   UNL     1       2.073   7.744  19.434  0.00  0.00    +0.000 C 
ATOM     16  O   UNL     1       2.773   6.553  19.805  0.00  0.00    +0.000 OA
ENDBRANCH  13  16
ENDBRANCH   1  13
BRANCH   7  17
ATOM     17  N   UNL     1       4.025   4.829  17.937  0.00  0.00    +0.000 NA
ATOM     18  H   UNL     1       3.897   5.837  18.058  0.00  0.00    +0.000 HD
BRANCH  17  19
ATOM     19  S   UNL     1       5.626   4.362  18.004  0.00  0.00    +0.000 S 
ATOM     20  O   UNL     1       5.794   3.762  19.309  0.00  0.00    +0.000 OA
ATOM     21  O   UNL     1       5.951   3.625  16.806  0.00  0.00    +0.000 OA
BRANCH  19  22
ATOM     22  C   UNL     1       6.524   5.882  18.003  0.00  0.00    +0.000 A 
ATOM     23  C   UNL     1       7.649   6.002  18.822  0.00  0.00    +0.000 A 
ATOM     24  C   UNL     1       8.354   7.205  18.843  0.00  0.00    +0.000 A 
ATOM     25  C   UNL     1       7.943   8.283  18.046  0.00  0.00    +0.000 A 
ATOM     26  C   UNL     1       8.666   9.595  18.096  0.00  0.00    +0.000 C 
ATOM     27  C   UNL     1       6.829   8.136  17.207  0.00  0.00    +0.000 A 
ATOM     28  C   UNL     1       6.123   6.933  17.176  0.00  0.00    +0.000 A 
ENDBRANCH  19  22
ENDBRANCH  17  19
ENDBRANCH   7  17
TORSDOF 6
ENDMDL
MODEL 8
REMARK VINA RESULT:      -6.6      2.432      3.416
REMARK  Name = 
REMARK  9 active torsions:
REMARK  status: ('A' for Active; 'I' for Inactive)
REMARK    1  A    between atoms: C_1  and  O_2
REMARK    2  A    between atoms: O_2  and  C_3
REMARK    3  A    between atoms: C_3  and  C_5
REMARK    4  A    between atoms: C_6  and  C_7
REMARK    5  A    between atoms: C_11  and  N_12
REMARK    6  A    between atoms: C_11  and  C_23
REMARK    7  A    between atoms: N_12  and  S_13
REMARK    8  A    between atoms: S_13  and  C_16
REMARK    9  A    between atoms: C_19  and  C_20
REMARK                            x       y       z     vdW  Elec       q    Type
REMARK                         _______ _______ _______ _____ _____    ______ ____
ROOT
ATOM      1  C   UNL     1       4.436   4.320  18.253  0.00  0.00    +0.000 C 
ATOM      2  C   UNL     1       4.237   4.002  16.967  0.00  0.00    +0.000 C 
ATOM      3  C   UNL     1       5.139   4.037  15.784  0.00  0.00    +0.000 C 
ATOM      4  N   UNL     1       2.925   3.668  16.788  0.00  0.00    +0.000 N 
ATOM      5  C   UNL     1       2.196   3.793  17.955  0.00  0.00    +0.000 C 
ATOM      6  O   UNL     1       0.995   3.604  18.041  0.00  0.00    +0.000 OA
ATOM      7  C   UNL     1       3.144   4.278  19.047  0.00  0.00    +0.000 C 
ATOM      8  H   UNL     1       2.496   3.411  15.907  0.00  0.00    +0.000 HD
ENDROOT
BRANCH   7   9
ATOM      9  C   UNL     1       3.155   3.194  20.149  0.00  0.00    +0.000 C 
ATOM     10  F   UNL     1       4.409   2.764  20.438  0.00  0.00    +0.000 F 
ATOM     11  F   UNL     1       2.649   3.692  21.311  0.00  0.00    +0.000 F 
ATOM     12  F   UNL     1       2.432   2.091  19.859  0.00  0.00    +0.000 F 
ENDBRANCH   7   9
BRANCH   1  13
ATOM     13  C   UNL     1       5.721   4.720  18.844  0.00  0.00    +0.000 C 
ATOM     14  O   UNL     1       5.847   5.564  19.714  0.00  0.00    +0.000 OA
BRANCH  13  16
ATOM     15  C   UNL     1       7.878   4.814  17.964  0.00  0.00    +0.000 C 
ATOM     16  O   UNL     1       6.733   4.016  18.276  0.00  0.00    +0.000 OA
ENDBRANCH  13  16
ENDBRANCH   1  13
BRANCH   7  17
ATOM     17  N   UNL     1       2.756   5.635  19.553  0.00  0.00    +0.000 NA
ATOM     18  H   UNL     1       3.108   5.882  20.481  0.00  0.00    +0.000 HD
BRANCH  17  19
ATOM     19  S   UNL     1       2.512   6.962  18.571  0.00  0.00    +0.000 S 
ATOM     20  O   UNL     1       3.833   7.491  18.311  0.00  0.00    +0.000 OA
ATOM     21  O   UNL     1       1.640   6.589  17.483  0.00  0.00    +0.000 OA
BRANCH  19  22
ATOM     22  C   UNL     1       1.675   8.122  19.606  0.00  0.00    +0.000 A 
ATOM     23  C   UNL     1       1.255   9.335  19.058  0.00  0.00    +0.000 A 
ATOM     24  C   UNL     1       0.609  10.266  19.871  0.00  0.00    +0.000 A 
ATOM     25  C   UNL     1       0.377   9.985  21.225  0.00  0.00    +0.000 A 
ATOM     26  C   UNL     1      -0.275  10.997  22.119  0.00  0.00    +0.000 C 
ATOM     27  C   UNL     1       0.778   8.749  21.752  0.00  0.00    +0.000 A 
ATOM     28  C   UNL     1       1.418   7.811  20.943  0.00  0.00    +0.000 A 
ENDBRANCH  19  22
ENDBRANCH  17  19
ENDBRANCH   7  17
TORSDOF 6
ENDMDL
MODEL 9
REMARK VINA RESULT:      -6.6      3.110      4.905
REMARK  Name = 
REMARK  9 active torsions:
REMARK  status: ('A' for Active; 'I' for Inactive)
REMARK    1  A    between atoms: C_1  and  O_2
REMARK    2  A    between atoms: O_2  and  C_3
REMARK    3  A    between atoms: C_3  and  C_5
REMARK    4  A    between atoms: C_6  and  C_7
REMARK    5  A    between atoms: C_11  and  N_12
REMARK    6  A    between atoms: C_11  and  C_23
REMARK    7  A    between atoms: N_12  and  S_13
REMARK    8  A    between atoms: S_13  and  C_16
REMARK    9  A    between atoms: C_19  and  C_20
REMARK                            x       y       z     vdW  Elec       q    Type
REMARK                         _______ _______ _______ _____ _____    ______ ____
ROOT
ATOM      1  C   UNL     1       6.956   5.806  17.333  0.00  0.00    +0.000 C 
ATOM      2  C   UNL     1       7.226   7.118  17.306  0.00  0.00    +0.000 C 
ATOM      3  C   UNL     1       8.163   7.956  18.103  0.00  0.00    +0.000 C 
ATOM      4  N   UNL     1       6.396   7.727  16.409  0.00  0.00    +0.000 N 
ATOM      5  C   UNL     1       5.512   6.833  15.834  0.00  0.00    +0.000 C 
ATOM      6  O   UNL     1       4.637   7.141  15.043  0.00  0.00    +0.000 OA
ATOM      7  C   UNL     1       5.786   5.457  16.431  0.00  0.00    +0.000 C 
ATOM      8  H   UNL     1       6.369   8.719  16.209  0.00  0.00    +0.000 HD
ENDROOT
BRANCH   7   9
ATOM      9  C   UNL     1       6.190   4.531  15.262  0.00  0.00    +0.000 C 
ATOM     10  F   UNL     1       6.234   3.224  15.628  0.00  0.00    +0.000 F 
ATOM     11  F   UNL     1       5.276   4.609  14.255  0.00  0.00    +0.000 F 
ATOM     12  F   UNL     1       7.390   4.812  14.711  0.00  0.00    +0.000 F 
ENDBRANCH   7   9
BRANCH   1  13
ATOM     13  C   UNL     1       7.647   4.809  18.162  0.00  0.00    +0.000 C 
ATOM     14  O   UNL     1       8.496   4.038  17.749  0.00  0.00    +0.000 OA
BRANCH  13  16
ATOM     15  C   UNL     1       8.179   5.335  20.371  0.00  0.00    +0.000 C 
ATOM     16  O   UNL     1       7.196   4.874  19.440  0.00  0.00    +0.000 OA
ENDBRANCH  13  16
ENDBRANCH   1  13
BRANCH   7  17
ATOM     17  N   UNL     1       4.612   4.950  17.213  0.00  0.00    +0.000 NA
ATOM     18  H   UNL     1       4.674   3.979  17.530  0.00  0.00    +0.000 HD
BRANCH  17  19
ATOM     19  S   UNL     1       3.670   5.904  18.206  0.00  0.00    +0.000 S 
ATOM     20  O   UNL     1       4.603   6.732  18.936  0.00  0.00    +0.000 OA
ATOM     21  O   UNL     1       2.612   6.497  17.423  0.00  0.00    +0.000 OA
BRANCH  19  22
ATOM     22  C   UNL     1       2.962   4.768  19.357  0.00  0.00    +0.000 A 
ATOM     23  C   UNL     1       1.695   5.037  19.879  0.00  0.00    +0.000 A 
ATOM     24  C   UNL     1       1.135   4.156  20.803  0.00  0.00    +0.000 A 
ATOM     25  C   UNL     1       1.833   3.006  21.202  0.00  0.00    +0.000 A 
ATOM     26  C   UNL     1       1.260   2.077  22.229  0.00  0.00    +0.000 C 
ATOM     27  C   UNL     1       3.091   2.735  20.645  0.00  0.00    +0.000 A 
ATOM     28  C   UNL     1       3.654   3.609  19.715  0.00  0.00    +0.000 A 
ENDBRANCH  19  22
ENDBRANCH  17  19
ENDBRANCH   7  17
TORSDOF 6
ENDMDL
