MODEL 1
REMARK VINA RESULT:      -7.1      0.000      0.000
REMARK  Name = 
REMARK  7 active torsions:
REMARK  status: ('A' for Active; 'I' for Inactive)
REMARK    1  A    between atoms: C_1  and  C_2
REMARK    2  A    between atoms: C_2  and  C_13
REMARK    3  A    between atoms: N_3  and  N_4
REMARK    4  A    between atoms: C_5  and  C_7
REMARK    5  A    between atoms: C_7  and  C_8
REMARK    6  A    between atoms: C_16  and  C_17
REMARK    7  A    between atoms: C_19  and  C_20
REMARK                            x       y       z     vdW  Elec       q    Type
REMARK                         _______ _______ _______ _____ _____    ______ ____
ROOT
ATOM      1  C   UNL     1       2.208   8.250  18.093  0.00  0.00    +0.000 C 
ATOM      2  C   UNL     1       2.142   7.242  19.227  0.00  0.00    +0.000 C 
ATOM      3  N   UNL     1       1.773   7.506  20.447  0.00  0.00    +0.000 NA
ENDROOT
BRANCH   2   4
ATOM      4  C   UNL     1       2.545   5.830  18.899  0.00  0.00    +0.000 A 
ATOM      5  C   UNL     1       1.751   4.774  19.381  0.00  0.00    +0.000 A 
ATOM      6  C   UNL     1       2.063   3.447  19.089  0.00  0.00    +0.000 A 
ATOM      7  C   UNL     1       3.174   3.143  18.305  0.00  0.00    +0.000 A 
ATOM      8  C   UNL     1       3.508   1.723  17.962  0.00  0.00    +0.000 C 
ATOM      9  C   UNL     1       3.977   4.188  17.825  0.00  0.00    +0.000 A 
ATOM     10  C   UNL     1       3.684   5.534  18.117  0.00  0.00    +0.000 A 
ATOM     11  C   UNL     1       4.610   6.594  17.579  0.00  0.00    +0.000 C 
ENDBRANCH   2   4
BRANCH   3  12
ATOM     12  N   UNL     1       1.347   8.736  20.799  0.00  0.00    +0.000 N 
ATOM     13  C   UNL     1       0.087   8.907  21.341  0.00  0.00    +0.000 C 
ATOM     14  O   UNL     1      -0.749   8.047  21.577  0.00  0.00    +0.000 OA
ATOM     15  H   UNL     1       1.934   9.543  20.656  0.00  0.00    +0.000 HD
BRANCH  13  16
ATOM     16  C   UNL     1      -0.247  10.354  21.567  0.00  0.00    +0.000 C 
ATOM     17  C   UNL     1      -0.680  10.673  22.984  0.00  0.00    +0.000 C 
ATOM     18  C   UNL     1       0.608  11.422  20.904  0.00  0.00    +0.000 C 
ATOM     19  C   UNL     1      -0.767  11.153  20.372  0.00  0.00    +0.000 C 
ATOM     20 BR   UNL     1      -0.846  10.422  18.600  0.00  0.00    +0.000 Br
ATOM     21 BR   UNL     1      -2.153  12.442  20.632  0.00  0.00    +0.000 Br
ENDBRANCH  13  16
ENDBRANCH   3  12
TORSDOF 3
ENDMDL
MODEL 2
REMARK VINA RESULT:      -6.9      0.459      1.608
REMARK  Name = 
REMARK  7 active torsions:
REMARK  status: ('A' for Active; 'I' for Inactive)
REMARK    1  A    between atoms: C_1  and  C_2
REMARK    2  A    between atoms: C_2  and  C_13
REMARK    3  A    between atoms: N_3  and  N_4
REMARK    4  A    between atoms: C_5  and  C_7
REMARK    5  A    between atoms: C_7  and  C_8
REMARK    6  A    between atoms: C_16  and  C_17
REMARK    7  A    between atoms: C_19  and  C_20
REMARK                            x       y       z     vdW  Elec       q    Type
REMARK                         _______ _______ _______ _____ _____    ______ ____
ROOT
ATOM      1  C   UNL     1       2.356   7.995  18.121  0.00  0.00    +0.000 C 
ATOM      2  C   UNL     1       2.224   6.991  19.253  0.00  0.00    +0.000 C 
ATOM      3  N   UNL     1       1.834   7.269  20.464  0.00  0.00    +0.000 NA
ENDROOT
BRANCH   2   4
ATOM      4  C   UNL     1       2.584   5.565  18.935  0.00  0.00    +0.000 A 
ATOM      5  C   UNL     1       3.622   5.322  18.017  0.00  0.00    +0.000 A 
ATOM      6  C   UNL     1       4.013   4.021  17.702  0.00  0.00    +0.000 A 
ATOM      7  C   UNL     1       3.381   2.932  18.299  0.00  0.00    +0.000 A 
ATOM      8  C   UNL     1       3.808   1.530  17.990  0.00  0.00    +0.000 C 
ATOM      9  C   UNL     1       2.340   3.164  19.210  0.00  0.00    +0.000 A 
ATOM     10  C   UNL     1       1.924   4.469  19.535  0.00  0.00    +0.000 A 
ATOM     11  C   UNL     1       0.785   4.629  20.508  0.00  0.00    +0.000 C 
ENDBRANCH   2   4
BRANCH   3  12
ATOM     12  N   UNL     1       1.445   8.514  20.805  0.00  0.00    +0.000 N 
ATOM     13  C   UNL     1       0.180   8.730  21.320  0.00  0.00    +0.000 C 
ATOM     14  O   UNL     1      -0.691   7.901  21.538  0.00  0.00    +0.000 OA
ATOM     15  H   UNL     1       2.063   9.299  20.674  0.00  0.00    +0.000 HD
BRANCH  13  16
ATOM     16  C   UNL     1      -0.108  10.188  21.537  0.00  0.00    +0.000 C 
ATOM     17  C   UNL     1      -0.565  10.524  22.942  0.00  0.00    +0.000 C 
ATOM     18  C   UNL     1       0.801  11.224  20.896  0.00  0.00    +0.000 C 
ATOM     19  C   UNL     1      -0.569  11.005  20.329  0.00  0.00    +0.000 C 
ATOM     20 BR   UNL     1      -0.629  10.275  18.556  0.00  0.00    +0.000 Br
ATOM     21 BR   UNL     1      -1.914  12.342  20.554  0.00  0.00    +0.000 Br
ENDBRANCH  13  16
ENDBRANCH   3  12
TORSDOF 3
ENDMDL
MODEL 3
REMARK VINA RESULT:      -6.8      3.293      7.348
REMARK  Name = 
REMARK  7 active torsions:
REMARK  status: ('A' for Active; 'I' for Inactive)
REMARK    1  A    between atoms: C_1  and  C_2
REMARK    2  A    between atoms: C_2  and  C_13
REMARK    3  A    between atoms: N_3  and  N_4
REMARK    4  A    between atoms: C_5  and  C_7
REMARK    5  A    between atoms: C_7  and  C_8
REMARK    6  A    between atoms: C_16  and  C_17
REMARK    7  A    between atoms: C_19  and  C_20
REMARK                            x       y       z     vdW  Elec       q    Type
REMARK                         _______ _______ _______ _____ _____    ______ ____
ROOT
ATOM      1  C   UNL     1       1.902   9.008  18.397  0.00  0.00    +0.000 C 
ATOM      2  C   UNL     1       1.575   8.489  19.787  0.00  0.00    +0.000 C 
ATOM      3  N   UNL     1       2.022   7.379  20.300  0.00  0.00    +0.000 NA
ENDROOT
BRANCH   2   4
ATOM      4  C   UNL     1       0.654   9.336  20.623  0.00  0.00    +0.000 A 
ATOM      5  C   UNL     1       0.698   9.197  22.022  0.00  0.00    +0.000 A 
ATOM      6  C   UNL     1      -0.116   9.971  22.847  0.00  0.00    +0.000 A 
ATOM      7  C   UNL     1      -0.990  10.907  22.296  0.00  0.00    +0.000 A 
ATOM      8  C   UNL     1      -1.852  11.763  23.172  0.00  0.00    +0.000 C 
ATOM      9  C   UNL     1      -1.047  11.047  20.902  0.00  0.00    +0.000 A 
ATOM     10  C   UNL     1      -0.240  10.268  20.051  0.00  0.00    +0.000 A 
ATOM     11  C   UNL     1      -0.378  10.469  18.564  0.00  0.00    +0.000 C 
ENDBRANCH   2   4
BRANCH   3  12
ATOM     12  N   UNL     1       2.893   6.599  19.628  0.00  0.00    +0.000 N 
ATOM     13  C   UNL     1       3.113   5.296  20.032  0.00  0.00    +0.000 C 
ATOM     14  O   UNL     1       2.589   4.702  20.964  0.00  0.00    +0.000 OA
ATOM     15  H   UNL     1       3.403   6.961  18.838  0.00  0.00    +0.000 HD
BRANCH  13  16
ATOM     16  C   UNL     1       4.192   4.623  19.232  0.00  0.00    +0.000 C 
ATOM     17  C   UNL     1       5.541   5.308  19.317  0.00  0.00    +0.000 C 
ATOM     18  C   UNL     1       4.249   3.104  19.199  0.00  0.00    +0.000 C 
ATOM     19  C   UNL     1       3.766   3.844  17.988  0.00  0.00    +0.000 C 
ATOM     20 BR   UNL     1       1.925   3.571  17.523  0.00  0.00    +0.000 Br
ATOM     21 BR   UNL     1       4.855   3.907  16.420  0.00  0.00    +0.000 Br
ENDBRANCH  13  16
ENDBRANCH   3  12
TORSDOF 3
ENDMDL
MODEL 4
REMARK VINA RESULT:      -6.6      1.004      1.023
REMARK  Name = 
REMARK  7 active torsions:
REMARK  status: ('A' for Active; 'I' for Inactive)
REMARK    1  A    between atoms: C_1  and  C_2
REMARK    2  A    between atoms: C_2  and  C_13
REMARK    3  A    between atoms: N_3  and  N_4
REMARK    4  A    between atoms: C_5  and  C_7
REMARK    5  A    between atoms: C_7  and  C_8
REMARK    6  A    between atoms: C_16  and  C_17
REMARK    7  A    between atoms: C_19  and  C_20
REMARK                            x       y       z     vdW  Elec       q    Type
REMARK                         _______ _______ _______ _____ _____    ______ ____
ROOT
ATOM      1  C   UNL     1       3.111   7.851  17.637  0.00  0.00    +0.000 C 
ATOM      2  C   UNL     1       2.643   6.967  18.780  0.00  0.00    +0.000 C 
ATOM      3  N   UNL     1       2.024   7.382  19.847  0.00  0.00    +0.000 NA
ENDROOT
BRANCH   2   4
ATOM      4  C   UNL     1       2.931   5.495  18.656  0.00  0.00    +0.000 A 
ATOM      5  C   UNL     1       1.884   4.633  18.284  0.00  0.00    +0.000 A 
ATOM      6  C   UNL     1       2.098   3.265  18.132  0.00  0.00    +0.000 A 
ATOM      7  C   UNL     1       3.365   2.723  18.343  0.00  0.00    +0.000 A 
ATOM      8  C   UNL     1       3.617   1.258  18.158  0.00  0.00    +0.000 C 
ATOM      9  C   UNL     1       4.415   3.573  18.721  0.00  0.00    +0.000 A 
ATOM     10  C   UNL     1       4.216   4.957  18.890  0.00  0.00    +0.000 A 
ATOM     11  C   UNL     1       5.393   5.795  19.317  0.00  0.00    +0.000 C 
ENDBRANCH   2   4
BRANCH   3  12
ATOM     12  N   UNL     1       1.685   8.679  19.999  0.00  0.00    +0.000 N 
ATOM     13  C   UNL     1       0.563   9.023  20.730  0.00  0.00    +0.000 C 
ATOM     14  O   UNL     1      -0.213   8.275  21.309  0.00  0.00    +0.000 OA
ATOM     15  H   UNL     1       2.234   9.407  19.571  0.00  0.00    +0.000 HD
BRANCH  13  16
ATOM     16  C   UNL     1       0.288  10.499  20.697  0.00  0.00    +0.000 C 
ATOM     17  C   UNL     1       0.096  11.122  22.065  0.00  0.00    +0.000 C 
ATOM     18  C   UNL     1       1.039  11.368  19.700  0.00  0.00    +0.000 C 
ATOM     19  C   UNL     1      -0.408  11.061  19.457  0.00  0.00    +0.000 C 
ATOM     20 BR   UNL     1      -0.783   9.987  17.912  0.00  0.00    +0.000 Br
ATOM     21 BR   UNL     1      -1.716  12.438  19.654  0.00  0.00    +0.000 Br
ENDBRANCH  13  16
ENDBRANCH   3  12
TORSDOF 3
ENDMDL
MODEL 5
REMARK VINA RESULT:      -6.6      3.150      7.393
REMARK  Name = 
REMARK  7 active torsions:
REMARK  status: ('A' for Active; 'I' for Inactive)
REMARK    1  A    between atoms: C_1  and  C_2
REMARK    2  A    between atoms: C_2  and  C_13
REMARK    3  A    between atoms: N_3  and  N_4
REMARK    4  A    between atoms: C_5  and  C_7
REMARK    5  A    between atoms: C_7  and  C_8
REMARK    6  A    between atoms: C_16  and  C_17
REMARK    7  A    between atoms: C_19  and  C_20
REMARK                            x       y       z     vdW  Elec       q    Type
REMARK                         _______ _______ _______ _____ _____    ______ ____
ROOT
ATOM      1  C   UNL     1       1.973   9.536  17.835  0.00  0.00    +0.000 C 
ATOM      2  C   UNL     1       1.384   9.146  19.179  0.00  0.00    +0.000 C 
ATOM      3  N   UNL     1       1.632   8.039  19.817  0.00  0.00    +0.000 NA
ENDROOT
BRANCH   2   4
ATOM      4  C   UNL     1       0.432  10.127  19.809  0.00  0.00    +0.000 A 
ATOM      5  C   UNL     1       0.744  10.648  21.078  0.00  0.00    +0.000 A 
ATOM      6  C   UNL     1      -0.089  11.578  21.698  0.00  0.00    +0.000 A 
ATOM      7  C   UNL     1      -1.252  12.013  21.065  0.00  0.00    +0.000 A 
ATOM      8  C   UNL     1      -2.143  13.031  21.709  0.00  0.00    +0.000 C 
ATOM      9  C   UNL     1      -1.576  11.495  19.803  0.00  0.00    +0.000 A 
ATOM     10  C   UNL     1      -0.753  10.548  19.164  0.00  0.00    +0.000 A 
ATOM     11  C   UNL     1      -1.185  10.027  17.817  0.00  0.00    +0.000 C 
ENDBRANCH   2   4
BRANCH   3  12
ATOM     12  N   UNL     1       2.516   7.139  19.339  0.00  0.00    +0.000 N 
ATOM     13  C   UNL     1       2.603   5.881  19.906  0.00  0.00    +0.000 C 
ATOM     14  O   UNL     1       1.943   5.429  20.831  0.00  0.00    +0.000 OA
ATOM     15  H   UNL     1       3.130   7.378  18.577  0.00  0.00    +0.000 HD
BRANCH  13  16
ATOM     16  C   UNL     1       3.713   5.062  19.312  0.00  0.00    +0.000 C 
ATOM     17  C   UNL     1       5.071   5.732  19.365  0.00  0.00    +0.000 C 
ATOM     18  C   UNL     1       3.732   3.561  19.552  0.00  0.00    +0.000 C 
ATOM     19  C   UNL     1       3.348   4.079  18.199  0.00  0.00    +0.000 C 
ATOM     20 BR   UNL     1       1.534   3.753  17.667  0.00  0.00    +0.000 Br
ATOM     21 BR   UNL     1       4.537   3.846  16.722  0.00  0.00    +0.000 Br
ENDBRANCH  13  16
ENDBRANCH   3  12
TORSDOF 3
ENDMDL
MODEL 6
REMARK VINA RESULT:      -6.6      2.298      3.294
REMARK  Name = 
REMARK  7 active torsions:
REMARK  status: ('A' for Active; 'I' for Inactive)
REMARK    1  A    between atoms: C_1  and  C_2
REMARK    2  A    between atoms: C_2  and  C_13
REMARK    3  A    between atoms: N_3  and  N_4
REMARK    4  A    between atoms: C_5  and  C_7
REMARK    5  A    between atoms: C_7  and  C_8
REMARK    6  A    between atoms: C_16  and  C_17
REMARK    7  A    between atoms: C_19  and  C_20
REMARK                            x       y       z     vdW  Elec       q    Type
REMARK                         _______ _______ _______ _____ _____    ______ ____
ROOT
ATOM      1  C   UNL     1       2.159   6.917  19.755  0.00  0.00    +0.000 C 
ATOM      2  C   UNL     1       2.550   7.306  18.340  0.00  0.00    +0.000 C 
ATOM      3  N   UNL     1       2.019   8.276  17.653  0.00  0.00    +0.000 NA
ENDROOT
BRANCH   2   4
ATOM      4  C   UNL     1       3.635   6.491  17.691  0.00  0.00    +0.000 A 
ATOM      5  C   UNL     1       4.845   7.126  17.357  0.00  0.00    +0.000 A 
ATOM      6  C   UNL     1       5.893   6.415  16.775  0.00  0.00    +0.000 A 
ATOM      7  C   UNL     1       5.761   5.051  16.516  0.00  0.00    +0.000 A 
ATOM      8  C   UNL     1       6.888   4.269  15.915  0.00  0.00    +0.000 C 
ATOM      9  C   UNL     1       4.556   4.411  16.839  0.00  0.00    +0.000 A 
ATOM     10  C   UNL     1       3.482   5.113  17.418  0.00  0.00    +0.000 A 
ATOM     11  C   UNL     1       2.215   4.352  17.714  0.00  0.00    +0.000 C 
ENDBRANCH   2   4
BRANCH   3  12
ATOM     12  N   UNL     1       1.080   9.082  18.190  0.00  0.00    +0.000 N 
ATOM     13  C   UNL     1       1.363  10.413  18.433  0.00  0.00    +0.000 C 
ATOM     14  O   UNL     1       2.405  11.011  18.205  0.00  0.00    +0.000 OA
ATOM     15  H   UNL     1       0.172   8.721  18.435  0.00  0.00    +0.000 HD
BRANCH  13  16
ATOM     16  C   UNL     1       0.236  11.120  19.131  0.00  0.00    +0.000 C 
ATOM     17  C   UNL     1      -0.151  12.440  18.496  0.00  0.00    +0.000 C 
ATOM     18  C   UNL     1      -0.928  10.303  19.667  0.00  0.00    +0.000 C 
ATOM     19  C   UNL     1       0.068  10.873  20.630  0.00  0.00    +0.000 C 
ATOM     20 BR   UNL     1       1.128   9.592  21.588  0.00  0.00    +0.000 Br
ATOM     21 BR   UNL     1      -0.436  12.319  21.772  0.00  0.00    +0.000 Br
ENDBRANCH  13  16
ENDBRANCH   3  12
TORSDOF 3
ENDMDL
MODEL 7
REMARK VINA RESULT:      -6.5      2.150      2.946
REMARK  Name = 
REMARK  7 active torsions:
REMARK  status: ('A' for Active; 'I' for Inactive)
REMARK    1  A    between atoms: C_1  and  C_2
REMARK    2  A    between atoms: C_2  and  C_13
REMARK    3  A    between atoms: N_3  and  N_4
REMARK    4  A    between atoms: C_5  and  C_7
REMARK    5  A    between atoms: C_7  and  C_8
REMARK    6  A    between atoms: C_16  and  C_17
REMARK    7  A    between atoms: C_19  and  C_20
REMARK                            x       y       z     vdW  Elec       q    Type
REMARK                         _______ _______ _______ _____ _____    ______ ____
ROOT
ATOM      1  C   UNL     1       2.246   6.912  20.167  0.00  0.00    +0.000 C 
ATOM      2  C   UNL     1       2.590   7.356  18.755  0.00  0.00    +0.000 C 
ATOM      3  N   UNL     1       2.252   8.494  18.222  0.00  0.00    +0.000 NA
ENDROOT
BRANCH   2   4
ATOM      4  C   UNL     1       3.378   6.387  17.916  0.00  0.00    +0.000 A 
ATOM      5  C   UNL     1       4.544   6.845  17.276  0.00  0.00    +0.000 A 
ATOM      6  C   UNL     1       5.325   5.987  16.505  0.00  0.00    +0.000 A 
ATOM      7  C   UNL     1       4.965   4.648  16.358  0.00  0.00    +0.000 A 
ATOM      8  C   UNL     1       5.810   3.708  15.553  0.00  0.00    +0.000 C 
ATOM      9  C   UNL     1       3.801   4.184  16.986  0.00  0.00    +0.000 A 
ATOM     10  C   UNL     1       2.992   5.037  17.761  0.00  0.00    +0.000 A 
ATOM     11  C   UNL     1       1.748   4.460  18.385  0.00  0.00    +0.000 C 
ENDBRANCH   2   4
BRANCH   3  12
ATOM     12  N   UNL     1       1.593   9.432  18.934  0.00  0.00    +0.000 N 
ATOM     13  C   UNL     1       0.421   9.979  18.444  0.00  0.00    +0.000 C 
ATOM     14  O   UNL     1      -0.150   9.712  17.397  0.00  0.00    +0.000 OA
ATOM     15  H   UNL     1       1.953   9.753  19.818  0.00  0.00    +0.000 HD
BRANCH  13  16
ATOM     16  C   UNL     1      -0.107  11.078  19.321  0.00  0.00    +0.000 C 
ATOM     17  C   UNL     1      -1.596  10.992  19.589  0.00  0.00    +0.000 C 
ATOM     18  C   UNL     1       0.728  11.547  20.502  0.00  0.00    +0.000 C 
ATOM     19  C   UNL     1       0.624  12.421  19.289  0.00  0.00    +0.000 C 
ATOM     20 BR   UNL     1       2.252  12.683  18.309  0.00  0.00    +0.000 Br
ATOM     21 BR   UNL     1      -0.382  14.043  19.372  0.00  0.00    +0.000 Br
ENDBRANCH  13  16
ENDBRANCH   3  12
TORSDOF 3
ENDMDL
MODEL 8
REMARK VINA RESULT:      -6.5      2.034      3.036
REMARK  Name = 
REMARK  7 active torsions:
REMARK  status: ('A' for Active; 'I' for Inactive)
REMARK    1  A    between atoms: C_1  and  C_2
REMARK    2  A    between atoms: C_2  and  C_13
REMARK    3  A    between atoms: N_3  and  N_4
REMARK    4  A    between atoms: C_5  and  C_7
REMARK    5  A    between atoms: C_7  and  C_8
REMARK    6  A    between atoms: C_16  and  C_17
REMARK    7  A    between atoms: C_19  and  C_20
REMARK                            x       y       z     vdW  Elec       q    Type
REMARK                         _______ _______ _______ _____ _____    ______ ____
ROOT
ATOM      1  C   UNL     1       2.232   7.236  19.996  0.00  0.00    +0.000 C 
ATOM      2  C   UNL     1       2.625   7.603  18.575  0.00  0.00    +0.000 C 
ATOM      3  N   UNL     1       2.328   8.721  17.977  0.00  0.00    +0.000 NA
ENDROOT
BRANCH   2   4
ATOM      4  C   UNL     1       3.414   6.578  17.807  0.00  0.00    +0.000 A 
ATOM      5  C   UNL     1       4.594   6.985  17.157  0.00  0.00    +0.000 A 
ATOM      6  C   UNL     1       5.377   6.074  16.451  0.00  0.00    +0.000 A 
ATOM      7  C   UNL     1       5.005   4.732  16.380  0.00  0.00    +0.000 A 
ATOM      8  C   UNL     1       5.850   3.737  15.647  0.00  0.00    +0.000 C 
ATOM      9  C   UNL     1       3.827   4.318  17.019  0.00  0.00    +0.000 A 
ATOM     10  C   UNL     1       3.017   5.224  17.729  0.00  0.00    +0.000 A 
ATOM     11  C   UNL     1       1.758   4.699  18.369  0.00  0.00    +0.000 C 
ENDBRANCH   2   4
BRANCH   3  12
ATOM     12  N   UNL     1       1.671   9.706  18.622  0.00  0.00    +0.000 N 
ATOM     13  C   UNL     1       0.350   9.977  18.316  0.00  0.00    +0.000 C 
ATOM     14  O   UNL     1      -0.361   9.408  17.500  0.00  0.00    +0.000 OA
ATOM     15  H   UNL     1       2.137  10.263  19.321  0.00  0.00    +0.000 HD
BRANCH  13  16
ATOM     16  C   UNL     1      -0.176  11.172  19.057  0.00  0.00    +0.000 C 
ATOM     17  C   UNL     1       0.336  12.498  18.532  0.00  0.00    +0.000 C 
ATOM     18  C   UNL     1      -1.628  11.182  19.508  0.00  0.00    +0.000 C 
ATOM     19  C   UNL     1      -0.549  10.983  20.528  0.00  0.00    +0.000 C 
ATOM     20 BR   UNL     1      -0.518   9.268  21.386  0.00  0.00    +0.000 Br
ATOM     21 BR   UNL     1      -0.163  12.371  21.782  0.00  0.00    +0.000 Br
ENDBRANCH  13  16
ENDBRANCH   3  12
TORSDOF 3
ENDMDL
MODEL 9
REMARK VINA RESULT:      -6.5      3.211      7.365
REMARK  Name = 
REMARK  7 active torsions:
REMARK  status: ('A' for Active; 'I' for Inactive)
REMARK    1  A    between atoms: C_1  and  C_2
REMARK    2  A    between atoms: C_2  and  C_13
REMARK    3  A    between atoms: N_3  and  N_4
REMARK    4  A    between atoms: C_5  and  C_7
REMARK    5  A    between atoms: C_7  and  C_8
REMARK    6  A    between atoms: C_16  and  C_17
REMARK    7  A    between atoms: C_19  and  C_20
REMARK                            x       y       z     vdW  Elec       q    Type
REMARK                         _______ _______ _______ _____ _____    ______ ____
ROOT
ATOM      1  C   UNL     1       1.927   9.218  17.870  0.00  0.00    +0.000 C 
ATOM      2  C   UNL     1       1.495   8.841  19.277  0.00  0.00    +0.000 C 
ATOM      3  N   UNL     1       1.866   7.769  19.916  0.00  0.00    +0.000 NA
ENDROOT
BRANCH   2   4
ATOM      4  C   UNL     1       0.557   9.790  19.972  0.00  0.00    +0.000 A 
ATOM      5  C   UNL     1      -0.296  10.588  19.187  0.00  0.00    +0.000 A 
ATOM      6  C   UNL     1      -1.201  11.468  19.778  0.00  0.00    +0.000 A 
ATOM      7  C   UNL     1      -1.280  11.571  21.165  0.00  0.00    +0.000 A 
ATOM      8  C   UNL     1      -2.266  12.494  21.814  0.00  0.00    +0.000 C 
ATOM      9  C   UNL     1      -0.429  10.786  21.956  0.00  0.00    +0.000 A 
ATOM     10  C   UNL     1       0.499   9.898  21.379  0.00  0.00    +0.000 A 
ATOM     11  C   UNL     1       1.391   9.106  22.301  0.00  0.00    +0.000 C 
ENDBRANCH   2   4
BRANCH   3  12
ATOM     12  N   UNL     1       2.747   6.902  19.376  0.00  0.00    +0.000 N 
ATOM     13  C   UNL     1       2.904   5.641  19.920  0.00  0.00    +0.000 C 
ATOM     14  O   UNL     1       2.312   5.159  20.875  0.00  0.00    +0.000 OA
ATOM     15  H   UNL     1       3.309   7.168  18.583  0.00  0.00    +0.000 HD
BRANCH  13  16
ATOM     16  C   UNL     1       4.001   4.862  19.253  0.00  0.00    +0.000 C 
ATOM     17  C   UNL     1       5.360   5.530  19.320  0.00  0.00    +0.000 C 
ATOM     18  C   UNL     1       4.026   3.349  19.396  0.00  0.00    +0.000 C 
ATOM     19  C   UNL     1       3.614   3.952  18.087  0.00  0.00    +0.000 C 
ATOM     20 BR   UNL     1       1.789   3.658  17.573  0.00  0.00    +0.000 Br
ATOM     21 BR   UNL     1       4.771   3.815  16.574  0.00  0.00    +0.000 Br
ENDBRANCH  13  16
ENDBRANCH   3  12
TORSDOF 3
ENDMDL
