MODEL 1
REMARK VINA RESULT:      -8.4      0.000      0.000
REMARK  Name = 
REMARK  6 active torsions:
REMARK  status: ('A' for Active; 'I' for Inactive)
REMARK    1  A    between atoms: C_1  and  C_2
REMARK    2  A    between atoms: C_2  and  C_3
REMARK    3  A    between atoms: C_5  and  N_6
REMARK    4  A    between atoms: C_7  and  C_9
REMARK    5  A    between atoms: C_12  and  C_13
REMARK    6  A    between atoms: C_23  and  C_24
REMARK                            x       y       z     vdW  Elec       q    Type
REMARK                         _______ _______ _______ _____ _____    ______ ____
ROOT
ATOM      1  C   UNL     1       4.104   5.632  18.488  0.00  0.00    +0.000 A 
ATOM      2  C   UNL     1       3.400   6.675  19.122  0.00  0.00    +0.000 A 
ATOM      3  C   UNL     1       2.331   6.441  19.998  0.00  0.00    +0.000 A 
ATOM      4  C   UNL     1       1.977   5.121  20.289  0.00  0.00    +0.000 A 
ATOM      5  C   UNL     1       2.659   4.065  19.678  0.00  0.00    +0.000 A 
ATOM      6  C   UNL     1       3.702   4.325  18.788  0.00  0.00    +0.000 A 
ATOM      7  F   UNL     1       4.326   3.277  18.232  0.00  0.00    +0.000 F 
ENDROOT
BRANCH   1   9
ATOM      8  C   UNL     1       5.489   7.456  17.420  0.00  0.00    +0.000 C 
ATOM      9  C   UNL     1       5.264   5.933  17.526  0.00  0.00    +0.000 C 
ATOM     10  C   UNL     1       4.975   5.381  16.160  0.00  0.00    +0.000 C 
ATOM     11  C   UNL     1       5.789   4.519  15.544  0.00  0.00    +0.000 C 
ATOM     12  O   UNL     1       6.979   4.087  16.146  0.00  0.00    +0.000 OA
ATOM     13  C   UNL     1       7.261   4.606  17.372  0.00  0.00    +0.000 C 
ATOM     14  N   UNL     1       8.439   4.135  17.853  0.00  0.00    +0.000 N 
ATOM     15  N   UNL     1       6.543   5.419  18.048  0.00  0.00    +0.000 NA
ATOM     16  H   UNL     1       8.724   3.240  17.485  0.00  0.00    +0.000 HD
ATOM     17  H   UNL     1       8.503   4.220  18.862  0.00  0.00    +0.000 HD
BRANCH  11  18
ATOM     18  C   UNL     1       5.539   3.950  14.182  0.00  0.00    +0.000 C 
ATOM     19  F   UNL     1       6.498   4.327  13.290  0.00  0.00    +0.000 F 
ENDBRANCH  11  18
ENDBRANCH   1   9
BRANCH   3  20
ATOM     20  N   UNL     1       1.592   7.484  20.597  0.00  0.00    +0.000 N 
ATOM     21  C   UNL     1       1.296   8.709  20.019  0.00  0.00    +0.000 C 
ATOM     22  O   UNL     1       1.606   9.088  18.894  0.00  0.00    +0.000 OA
ATOM     23  H   UNL     1       1.167   7.314  21.505  0.00  0.00    +0.000 HD
BRANCH  21  24
ATOM     24  C   UNL     1       0.480   9.628  20.855  0.00  0.00    +0.000 A 
ATOM     25  C   UNL     1       0.546   9.507  22.238  0.00  0.00    +0.000 A 
ATOM     26  N   UNL     1      -0.141  10.323  23.075  0.00  0.00    +0.000 NA
ATOM     27  C   UNL     1      -0.906  11.276  22.474  0.00  0.00    +0.000 A 
ATOM     28  C   UNL     1      -0.974  11.379  21.084  0.00  0.00    +0.000 A 
ATOM     29  N   UNL     1      -0.284  10.568  20.238  0.00  0.00    +0.000 NA
BRANCH  27  30
ATOM     30  C   UNL     1      -1.670  12.249  23.332  0.00  0.00    +0.000 C 
ATOM     31  F   UNL     1      -1.939  13.416  22.680  0.00  0.00    +0.000 F 
ATOM     32  F   UNL     1      -2.882  11.762  23.724  0.00  0.00    +0.000 F 
ENDBRANCH  27  30
ENDBRANCH  21  24
ENDBRANCH   3  20
TORSDOF 5
ENDMDL
MODEL 2
REMARK VINA RESULT:      -8.0      1.958      2.519
REMARK  Name = 
REMARK  6 active torsions:
REMARK  status: ('A' for Active; 'I' for Inactive)
REMARK    1  A    between atoms: C_1  and  C_2
REMARK    2  A    between atoms: C_2  and  C_3
REMARK    3  A    between atoms: C_5  and  N_6
REMARK    4  A    between atoms: C_7  and  C_9
REMARK    5  A    between atoms: C_12  and  C_13
REMARK    6  A    between atoms: C_23  and  C_24
REMARK                            x       y       z     vdW  Elec       q    Type
REMARK                         _______ _______ _______ _____ _____    ______ ____
ROOT
ATOM      1  C   UNL     1       3.531   4.334  18.998  0.00  0.00    +0.000 A 
ATOM      2  C   UNL     1       2.983   5.527  19.511  0.00  0.00    +0.000 A 
ATOM      3  C   UNL     1       1.915   5.537  20.419  0.00  0.00    +0.000 A 
ATOM      4  C   UNL     1       1.403   4.318  20.867  0.00  0.00    +0.000 A 
ATOM      5  C   UNL     1       1.927   3.119  20.379  0.00  0.00    +0.000 A 
ATOM      6  C   UNL     1       2.972   3.135  19.454  0.00  0.00    +0.000 A 
ATOM      7  F   UNL     1       3.442   1.957  19.021  0.00  0.00    +0.000 F 
ENDROOT
BRANCH   1   9
ATOM      8  C   UNL     1       4.831   3.001  17.290  0.00  0.00    +0.000 C 
ATOM      9  C   UNL     1       4.696   4.367  17.996  0.00  0.00    +0.000 C 
ATOM     10  C   UNL     1       5.985   4.690  18.694  0.00  0.00    +0.000 C 
ATOM     11  C   UNL     1       6.753   5.727  18.345  0.00  0.00    +0.000 C 
ATOM     12  O   UNL     1       6.394   6.572  17.286  0.00  0.00    +0.000 OA
ATOM     13  C   UNL     1       5.241   6.267  16.631  0.00  0.00    +0.000 C 
ATOM     14  N   UNL     1       5.000   7.136  15.617  0.00  0.00    +0.000 N 
ATOM     15  N   UNL     1       4.434   5.312  16.897  0.00  0.00    +0.000 NA
ATOM     16  H   UNL     1       5.424   8.046  15.724  0.00  0.00    +0.000 HD
ATOM     17  H   UNL     1       4.022   7.151  15.349  0.00  0.00    +0.000 HD
BRANCH  11  18
ATOM     18  C   UNL     1       8.046   6.080  19.012  0.00  0.00    +0.000 C 
ATOM     19  F   UNL     1       8.466   7.331  18.675  0.00  0.00    +0.000 F 
ENDBRANCH  11  18
ENDBRANCH   1   9
BRANCH   3  20
ATOM     20  N   UNL     1       1.332   6.731  20.898  0.00  0.00    +0.000 N 
ATOM     21  C   UNL     1       1.421   7.978  20.299  0.00  0.00    +0.000 C 
ATOM     22  O   UNL     1       2.000   8.255  19.253  0.00  0.00    +0.000 OA
ATOM     23  H   UNL     1       0.728   6.678  21.714  0.00  0.00    +0.000 HD
BRANCH  21  24
ATOM     24  C   UNL     1       0.695   9.073  20.996  0.00  0.00    +0.000 A 
ATOM     25  C   UNL     1       0.813   9.178  22.376  0.00  0.00    +0.000 A 
ATOM     26  N   UNL     1       0.210  10.163  23.086  0.00  0.00    +0.000 NA
ATOM     27  C   UNL     1      -0.525  11.049  22.359  0.00  0.00    +0.000 A 
ATOM     28  C   UNL     1      -0.648  10.925  20.975  0.00  0.00    +0.000 A 
ATOM     29  N   UNL     1      -0.042   9.943  20.254  0.00  0.00    +0.000 NA
BRANCH  27  30
ATOM     30  C   UNL     1      -1.196  12.197  23.067  0.00  0.00    +0.000 C 
ATOM     31  F   UNL     1      -1.002  13.385  22.427  0.00  0.00    +0.000 F 
ATOM     32  F   UNL     1      -2.548  12.043  23.148  0.00  0.00    +0.000 F 
ENDBRANCH  27  30
ENDBRANCH  21  24
ENDBRANCH   3  20
TORSDOF 5
ENDMDL
MODEL 3
REMARK VINA RESULT:      -8.0      1.992      2.592
REMARK  Name = 
REMARK  6 active torsions:
REMARK  status: ('A' for Active; 'I' for Inactive)
REMARK    1  A    between atoms: C_1  and  C_2
REMARK    2  A    between atoms: C_2  and  C_3
REMARK    3  A    between atoms: C_5  and  N_6
REMARK    4  A    between atoms: C_7  and  C_9
REMARK    5  A    between atoms: C_12  and  C_13
REMARK    6  A    between atoms: C_23  and  C_24
REMARK                            x       y       z     vdW  Elec       q    Type
REMARK                         _______ _______ _______ _____ _____    ______ ____
ROOT
ATOM      1  C   UNL     1       4.488   5.190  18.136  0.00  0.00    +0.000 A 
ATOM      2  C   UNL     1       3.856   6.171  18.927  0.00  0.00    +0.000 A 
ATOM      3  C   UNL     1       2.465   6.228  19.089  0.00  0.00    +0.000 A 
ATOM      4  C   UNL     1       1.677   5.249  18.481  0.00  0.00    +0.000 A 
ATOM      5  C   UNL     1       2.274   4.262  17.693  0.00  0.00    +0.000 A 
ATOM      6  C   UNL     1       3.660   4.242  17.524  0.00  0.00    +0.000 A 
ATOM      7  F   UNL     1       4.183   3.271  16.762  0.00  0.00    +0.000 F 
ENDROOT
BRANCH   1   9
ATOM      8  C   UNL     1       6.635   4.096  18.897  0.00  0.00    +0.000 C 
ATOM      9  C   UNL     1       6.017   5.169  17.975  0.00  0.00    +0.000 C 
ATOM     10  C   UNL     1       6.602   6.508  18.316  0.00  0.00    +0.000 C 
ATOM     11  C   UNL     1       7.358   7.203  17.460  0.00  0.00    +0.000 C 
ATOM     12  O   UNL     1       7.657   6.703  16.185  0.00  0.00    +0.000 OA
ATOM     13  C   UNL     1       7.152   5.477  15.881  0.00  0.00    +0.000 C 
ATOM     14  N   UNL     1       7.515   5.084  14.633  0.00  0.00    +0.000 N 
ATOM     15  N   UNL     1       6.409   4.745  16.620  0.00  0.00    +0.000 NA
ATOM     16  H   UNL     1       7.731   5.835  13.995  0.00  0.00    +0.000 HD
ATOM     17  H   UNL     1       6.896   4.372  14.260  0.00  0.00    +0.000 HD
BRANCH  11  18
ATOM     18  C   UNL     1       7.964   8.538  17.763  0.00  0.00    +0.000 C 
ATOM     19  F   UNL     1       8.789   8.488  18.846  0.00  0.00    +0.000 F 
ENDBRANCH  11  18
ENDBRANCH   1   9
BRANCH   3  20
ATOM     20  N   UNL     1       1.825   7.238  19.841  0.00  0.00    +0.000 N 
ATOM     21  C   UNL     1       1.575   8.534  19.416  0.00  0.00    +0.000 C 
ATOM     22  O   UNL     1       1.847   9.018  18.322  0.00  0.00    +0.000 OA
ATOM     23  H   UNL     1       1.441   6.992  20.749  0.00  0.00    +0.000 HD
BRANCH  21  24
ATOM     24  C   UNL     1       0.863   9.399  20.394  0.00  0.00    +0.000 A 
ATOM     25  C   UNL     1       0.799  10.765  20.152  0.00  0.00    +0.000 A 
ATOM     26  N   UNL     1       0.146  11.621  20.975  0.00  0.00    +0.000 NA
ATOM     27  C   UNL     1      -0.448  11.057  22.063  0.00  0.00    +0.000 A 
ATOM     28  C   UNL     1      -0.365   9.685  22.302  0.00  0.00    +0.000 A 
ATOM     29  N   UNL     1       0.284   8.818  21.478  0.00  0.00    +0.000 NA
BRANCH  27  30
ATOM     30  C   UNL     1      -1.229  11.932  23.007  0.00  0.00    +0.000 C 
ATOM     31  F   UNL     1      -1.739  13.035  22.389  0.00  0.00    +0.000 F 
ATOM     32  F   UNL     1      -2.302  11.289  23.551  0.00  0.00    +0.000 F 
ENDBRANCH  27  30
ENDBRANCH  21  24
ENDBRANCH   3  20
TORSDOF 5
ENDMDL
MODEL 4
REMARK VINA RESULT:      -8.0      2.569      4.251
REMARK  Name = 
REMARK  6 active torsions:
REMARK  status: ('A' for Active; 'I' for Inactive)
REMARK    1  A    between atoms: C_1  and  C_2
REMARK    2  A    between atoms: C_2  and  C_3
REMARK    3  A    between atoms: C_5  and  N_6
REMARK    4  A    between atoms: C_7  and  C_9
REMARK    5  A    between atoms: C_12  and  C_13
REMARK    6  A    between atoms: C_23  and  C_24
REMARK                            x       y       z     vdW  Elec       q    Type
REMARK                         _______ _______ _______ _____ _____    ______ ____
ROOT
ATOM      1  C   UNL     1       3.277   5.165  17.922  0.00  0.00    +0.000 A 
ATOM      2  C   UNL     1       2.416   6.204  18.329  0.00  0.00    +0.000 A 
ATOM      3  C   UNL     1       2.681   7.554  18.057  0.00  0.00    +0.000 A 
ATOM      4  C   UNL     1       3.820   7.879  17.316  0.00  0.00    +0.000 A 
ATOM      5  C   UNL     1       4.691   6.870  16.897  0.00  0.00    +0.000 A 
ATOM      6  C   UNL     1       4.419   5.536  17.203  0.00  0.00    +0.000 A 
ATOM      7  F   UNL     1       5.284   4.607  16.774  0.00  0.00    +0.000 F 
ENDROOT
BRANCH   1   9
ATOM      8  C   UNL     1       2.511   2.951  16.973  0.00  0.00    +0.000 C 
ATOM      9  C   UNL     1       2.954   3.698  18.249  0.00  0.00    +0.000 C 
ATOM     10  C   UNL     1       1.861   3.614  19.274  0.00  0.00    +0.000 C 
ATOM     11  C   UNL     1       2.009   2.969  20.435  0.00  0.00    +0.000 C 
ATOM     12  O   UNL     1       3.208   2.318  20.756  0.00  0.00    +0.000 OA
ATOM     13  C   UNL     1       4.194   2.367  19.819  0.00  0.00    +0.000 C 
ATOM     14  N   UNL     1       5.300   1.694  20.223  0.00  0.00    +0.000 N 
ATOM     15  N   UNL     1       4.156   2.969  18.691  0.00  0.00    +0.000 NA
ATOM     16  H   UNL     1       5.407   1.609  21.224  0.00  0.00    +0.000 HD
ATOM     17  H   UNL     1       6.134   1.994  19.730  0.00  0.00    +0.000 HD
BRANCH  11  18
ATOM     18  C   UNL     1       0.942   2.857  21.480  0.00  0.00    +0.000 C 
ATOM     19  F   UNL     1       1.342   2.093  22.534  0.00  0.00    +0.000 F 
ENDBRANCH  11  18
ENDBRANCH   1   9
BRANCH   3  20
ATOM     20  N   UNL     1       1.847   8.601  18.505  0.00  0.00    +0.000 N 
ATOM     21  C   UNL     1       1.418   8.801  19.808  0.00  0.00    +0.000 C 
ATOM     22  O   UNL     1       1.699   8.120  20.790  0.00  0.00    +0.000 OA
ATOM     23  H   UNL     1       1.586   9.326  17.841  0.00  0.00    +0.000 HD
BRANCH  21  24
ATOM     24  C   UNL     1       0.560   9.996  20.021  0.00  0.00    +0.000 A 
ATOM     25  C   UNL     1      -0.559  10.165  19.215  0.00  0.00    +0.000 A 
ATOM     26  N   UNL     1      -1.411  11.209  19.361  0.00  0.00    +0.000 NA
ATOM     27  C   UNL     1      -1.101  12.090  20.352  0.00  0.00    +0.000 A 
ATOM     28  C   UNL     1       0.033  11.916  21.146  0.00  0.00    +0.000 A 
ATOM     29  N   UNL     1       0.890  10.869  21.010  0.00  0.00    +0.000 NA
BRANCH  27  30
ATOM     30  C   UNL     1      -2.018  13.256  20.607  0.00  0.00    +0.000 C 
ATOM     31  F   UNL     1      -1.550  14.414  20.060  0.00  0.00    +0.000 F 
ATOM     32  F   UNL     1      -3.258  13.074  20.069  0.00  0.00    +0.000 F 
ENDBRANCH  27  30
ENDBRANCH  21  24
ENDBRANCH   3  20
TORSDOF 5
ENDMDL
MODEL 5
REMARK VINA RESULT:      -8.0      2.091      2.619
REMARK  Name = 
REMARK  6 active torsions:
REMARK  status: ('A' for Active; 'I' for Inactive)
REMARK    1  A    between atoms: C_1  and  C_2
REMARK    2  A    between atoms: C_2  and  C_3
REMARK    3  A    between atoms: C_5  and  N_6
REMARK    4  A    between atoms: C_7  and  C_9
REMARK    5  A    between atoms: C_12  and  C_13
REMARK    6  A    between atoms: C_23  and  C_24
REMARK                            x       y       z     vdW  Elec       q    Type
REMARK                         _______ _______ _______ _____ _____    ______ ____
ROOT
ATOM      1  C   UNL     1       4.303   5.397  18.027  0.00  0.00    +0.000 A 
ATOM      2  C   UNL     1       3.765   6.538  18.656  0.00  0.00    +0.000 A 
ATOM      3  C   UNL     1       2.385   6.742  18.796  0.00  0.00    +0.000 A 
ATOM      4  C   UNL     1       1.510   5.756  18.335  0.00  0.00    +0.000 A 
ATOM      5  C   UNL     1       2.014   4.612  17.710  0.00  0.00    +0.000 A 
ATOM      6  C   UNL     1       3.391   4.445  17.558  0.00  0.00    +0.000 A 
ATOM      7  F   UNL     1       3.823   3.328  16.956  0.00  0.00    +0.000 F 
ENDROOT
BRANCH   1   9
ATOM      8  C   UNL     1       6.313   4.070  18.795  0.00  0.00    +0.000 C 
ATOM      9  C   UNL     1       5.824   5.217  17.885  0.00  0.00    +0.000 C 
ATOM     10  C   UNL     1       6.542   6.481  18.255  0.00  0.00    +0.000 C 
ATOM     11  C   UNL     1       7.380   7.105  17.421  0.00  0.00    +0.000 C 
ATOM     12  O   UNL     1       7.641   6.597  16.141  0.00  0.00    +0.000 OA
ATOM     13  C   UNL     1       7.014   5.436  15.810  0.00  0.00    +0.000 C 
ATOM     14  N   UNL     1       7.351   5.026  14.561  0.00  0.00    +0.000 N 
ATOM     15  N   UNL     1       6.188   4.774  16.528  0.00  0.00    +0.000 NA
ATOM     16  H   UNL     1       7.654   5.760  13.938  0.00  0.00    +0.000 HD
ATOM     17  H   UNL     1       6.665   4.390  14.168  0.00  0.00    +0.000 HD
BRANCH  11  18
ATOM     18  C   UNL     1       8.119   8.363  17.754  0.00  0.00    +0.000 C 
ATOM     19  F   UNL     1       8.817   8.251  18.918  0.00  0.00    +0.000 F 
ENDBRANCH  11  18
ENDBRANCH   1   9
BRANCH   3  20
ATOM     20  N   UNL     1       1.841   7.906  19.381  0.00  0.00    +0.000 N 
ATOM     21  C   UNL     1       1.583   9.101  18.729  0.00  0.00    +0.000 C 
ATOM     22  O   UNL     1       1.765   9.348  17.540  0.00  0.00    +0.000 OA
ATOM     23  H   UNL     1       1.536   7.861  20.350  0.00  0.00    +0.000 HD
BRANCH  21  24
ATOM     24  C   UNL     1       0.986  10.171  19.570  0.00  0.00    +0.000 A 
ATOM     25  C   UNL     1       0.847   9.947  20.934  0.00  0.00    +0.000 A 
ATOM     26  N   UNL     1       0.340  10.879  21.778  0.00  0.00    +0.000 NA
ATOM     27  C   UNL     1      -0.028  12.058  21.204  0.00  0.00    +0.000 A 
ATOM     28  C   UNL     1       0.104  12.266  19.831  0.00  0.00    +0.000 A 
ATOM     29  N   UNL     1       0.616  11.338  18.978  0.00  0.00    +0.000 NA
BRANCH  27  30
ATOM     30  C   UNL     1      -0.563  13.161  22.078  0.00  0.00    +0.000 C 
ATOM     31  F   UNL     1      -1.678  13.745  21.552  0.00  0.00    +0.000 F 
ATOM     32  F   UNL     1      -0.932  12.718  23.314  0.00  0.00    +0.000 F 
ENDBRANCH  27  30
ENDBRANCH  21  24
ENDBRANCH   3  20
TORSDOF 5
ENDMDL
MODEL 6
REMARK VINA RESULT:      -7.9      2.570      4.253
REMARK  Name = 
REMARK  6 active torsions:
REMARK  status: ('A' for Active; 'I' for Inactive)
REMARK    1  A    between atoms: C_1  and  C_2
REMARK    2  A    between atoms: C_2  and  C_3
REMARK    3  A    between atoms: C_5  and  N_6
REMARK    4  A    between atoms: C_7  and  C_9
REMARK    5  A    between atoms: C_12  and  C_13
REMARK    6  A    between atoms: C_23  and  C_24
REMARK                            x       y       z     vdW  Elec       q    Type
REMARK                         _______ _______ _______ _____ _____    ______ ____
ROOT
ATOM      1  C   UNL     1       3.402   4.997  17.912  0.00  0.00    +0.000 A 
ATOM      2  C   UNL     1       2.551   6.073  18.237  0.00  0.00    +0.000 A 
ATOM      3  C   UNL     1       2.853   7.401  17.904  0.00  0.00    +0.000 A 
ATOM      4  C   UNL     1       4.020   7.664  17.184  0.00  0.00    +0.000 A 
ATOM      5  C   UNL     1       4.882   6.618  16.844  0.00  0.00    +0.000 A 
ATOM      6  C   UNL     1       4.573   5.307  17.211  0.00  0.00    +0.000 A 
ATOM      7  F   UNL     1       5.431   4.340  16.857  0.00  0.00    +0.000 F 
ENDROOT
BRANCH   1   9
ATOM      8  C   UNL     1       2.562   2.769  17.065  0.00  0.00    +0.000 C 
ATOM      9  C   UNL     1       3.038   3.556  18.305  0.00  0.00    +0.000 C 
ATOM     10  C   UNL     1       1.951   3.549  19.340  0.00  0.00    +0.000 C 
ATOM     11  C   UNL     1       2.090   2.949  20.526  0.00  0.00    +0.000 C 
ATOM     12  O   UNL     1       3.272   2.278  20.866  0.00  0.00    +0.000 OA
ATOM     13  C   UNL     1       4.251   2.257  19.921  0.00  0.00    +0.000 C 
ATOM     14  N   UNL     1       5.340   1.568  20.346  0.00  0.00    +0.000 N 
ATOM     15  N   UNL     1       4.221   2.810  18.768  0.00  0.00    +0.000 NA
ATOM     16  H   UNL     1       5.453   1.523  21.348  0.00  0.00    +0.000 HD
ATOM     17  H   UNL     1       6.178   1.822  19.834  0.00  0.00    +0.000 HD
BRANCH  11  18
ATOM     18  C   UNL     1       1.030   2.915  21.583  0.00  0.00    +0.000 C 
ATOM     19  F   UNL     1       1.290   1.975  22.534  0.00  0.00    +0.000 F 
ENDBRANCH  11  18
ENDBRANCH   1   9
BRANCH   3  20
ATOM     20  N   UNL     1       2.028   8.486  18.271  0.00  0.00    +0.000 N 
ATOM     21  C   UNL     1       1.544   8.748  19.543  0.00  0.00    +0.000 C 
ATOM     22  O   UNL     1       1.759   8.100  20.563  0.00  0.00    +0.000 OA
ATOM     23  H   UNL     1       1.818   9.191  17.568  0.00  0.00    +0.000 HD
BRANCH  21  24
ATOM     24  C   UNL     1       0.710   9.973  19.669  0.00  0.00    +0.000 A 
ATOM     25  C   UNL     1       0.736  10.676  20.867  0.00  0.00    +0.000 A 
ATOM     26  N   UNL     1       0.030  11.818  21.056  0.00  0.00    +0.000 NA
ATOM     27  C   UNL     1      -0.712  12.237  19.993  0.00  0.00    +0.000 A 
ATOM     28  C   UNL     1      -0.740  11.514  18.800  0.00  0.00    +0.000 A 
ATOM     29  N   UNL     1      -0.031  10.371  18.600  0.00  0.00    +0.000 NA
BRANCH  27  30
ATOM     30  C   UNL     1      -1.494  13.519  20.106  0.00  0.00    +0.000 C 
ATOM     31  F   UNL     1      -2.780  13.308  20.508  0.00  0.00    +0.000 F 
ATOM     32  F   UNL     1      -0.961  14.377  21.023  0.00  0.00    +0.000 F 
ENDBRANCH  27  30
ENDBRANCH  21  24
ENDBRANCH   3  20
TORSDOF 5
ENDMDL
MODEL 7
REMARK VINA RESULT:      -7.8      3.022      9.612
REMARK  Name = 
REMARK  6 active torsions:
REMARK  status: ('A' for Active; 'I' for Inactive)
REMARK    1  A    between atoms: C_1  and  C_2
REMARK    2  A    between atoms: C_2  and  C_3
REMARK    3  A    between atoms: C_5  and  N_6
REMARK    4  A    between atoms: C_7  and  C_9
REMARK    5  A    between atoms: C_12  and  C_13
REMARK    6  A    between atoms: C_23  and  C_24
REMARK                            x       y       z     vdW  Elec       q    Type
REMARK                         _______ _______ _______ _____ _____    ______ ____
ROOT
ATOM      1  C   UNL     1      -1.015  11.131  20.770  0.00  0.00    +0.000 A 
ATOM      2  C   UNL     1      -0.372   9.919  20.445  0.00  0.00    +0.000 A 
ATOM      3  C   UNL     1       0.142   9.053  21.420  0.00  0.00    +0.000 A 
ATOM      4  C   UNL     1      -0.029   9.380  22.767  0.00  0.00    +0.000 A 
ATOM      5  C   UNL     1      -0.664  10.573  23.120  0.00  0.00    +0.000 A 
ATOM      6  C   UNL     1      -1.143  11.433  22.130  0.00  0.00    +0.000 A 
ATOM      7  F   UNL     1      -1.749  12.562  22.523  0.00  0.00    +0.000 F 
ENDROOT
BRANCH   1   9
ATOM      8  C   UNL     1      -0.754  13.377  19.641  0.00  0.00    +0.000 C 
ATOM      9  C   UNL     1      -1.556  12.058  19.669  0.00  0.00    +0.000 C 
ATOM     10  C   UNL     1      -3.005  12.367  19.904  0.00  0.00    +0.000 C 
ATOM     11  C   UNL     1      -3.953  12.116  18.996  0.00  0.00    +0.000 C 
ATOM     12  O   UNL     1      -3.634  11.551  17.753  0.00  0.00    +0.000 OA
ATOM     13  C   UNL     1      -2.318  11.294  17.523  0.00  0.00    +0.000 C 
ATOM     14  N   UNL     1      -2.122  10.766  16.288  0.00  0.00    +0.000 N 
ATOM     15  N   UNL     1      -1.344  11.483  18.329  0.00  0.00    +0.000 NA
ATOM     16  H   UNL     1      -2.919  10.286  15.897  0.00  0.00    +0.000 HD
ATOM     17  H   UNL     1      -1.245  10.260  16.222  0.00  0.00    +0.000 HD
BRANCH  11  18
ATOM     18  C   UNL     1      -5.407  12.413  19.189  0.00  0.00    +0.000 C 
ATOM     19  F   UNL     1      -6.048  11.409  19.849  0.00  0.00    +0.000 F 
ENDBRANCH  11  18
ENDBRANCH   1   9
BRANCH   3  20
ATOM     20  N   UNL     1       0.829   7.862  21.097  0.00  0.00    +0.000 N 
ATOM     21  C   UNL     1       1.701   7.688  20.034  0.00  0.00    +0.000 C 
ATOM     22  O   UNL     1       2.036   8.532  19.208  0.00  0.00    +0.000 OA
ATOM     23  H   UNL     1       0.748   7.072  21.731  0.00  0.00    +0.000 HD
BRANCH  21  24
ATOM     24  C   UNL     1       2.314   6.338  19.926  0.00  0.00    +0.000 A 
ATOM     25  C   UNL     1       3.349   6.146  19.019  0.00  0.00    +0.000 A 
ATOM     26  N   UNL     1       3.983   4.956  18.879  0.00  0.00    +0.000 NA
ATOM     27  C   UNL     1       3.541   3.952  19.686  0.00  0.00    +0.000 A 
ATOM     28  C   UNL     1       2.492   4.154  20.583  0.00  0.00    +0.000 A 
ATOM     29  N   UNL     1       1.854   5.346  20.735  0.00  0.00    +0.000 NA
BRANCH  27  30
ATOM     30  C   UNL     1       4.219   2.609  19.621  0.00  0.00    +0.000 C 
ATOM     31  F   UNL     1       4.443   2.081  20.858  0.00  0.00    +0.000 F 
ATOM     32  F   UNL     1       3.475   1.679  18.957  0.00  0.00    +0.000 F 
ENDBRANCH  27  30
ENDBRANCH  21  24
ENDBRANCH   3  20
TORSDOF 5
ENDMDL
MODEL 8
REMARK VINA RESULT:      -7.7      2.410      3.180
REMARK  Name = 
REMARK  6 active torsions:
REMARK  status: ('A' for Active; 'I' for Inactive)
REMARK    1  A    between atoms: C_1  and  C_2
REMARK    2  A    between atoms: C_2  and  C_3
REMARK    3  A    between atoms: C_5  and  N_6
REMARK    4  A    between atoms: C_7  and  C_9
REMARK    5  A    between atoms: C_12  and  C_13
REMARK    6  A    between atoms: C_23  and  C_24
REMARK                            x       y       z     vdW  Elec       q    Type
REMARK                         _______ _______ _______ _____ _____    ______ ____
ROOT
ATOM      1  C   UNL     1       3.307   5.275  19.152  0.00  0.00    +0.000 A 
ATOM      2  C   UNL     1       2.903   6.625  19.178  0.00  0.00    +0.000 A 
ATOM      3  C   UNL     1       1.873   7.089  20.009  0.00  0.00    +0.000 A 
ATOM      4  C   UNL     1       1.254   6.187  20.878  0.00  0.00    +0.000 A 
ATOM      5  C   UNL     1       1.635   4.843  20.877  0.00  0.00    +0.000 A 
ATOM      6  C   UNL     1       2.645   4.401  20.021  0.00  0.00    +0.000 A 
ATOM      7  F   UNL     1       2.975   3.102  20.062  0.00  0.00    +0.000 F 
ENDROOT
BRANCH   1   9
ATOM      8  C   UNL     1       4.237   3.321  17.848  0.00  0.00    +0.000 C 
ATOM      9  C   UNL     1       4.434   4.806  18.218  0.00  0.00    +0.000 C 
ATOM     10  C   UNL     1       5.772   4.977  18.877  0.00  0.00    +0.000 C 
ATOM     11  C   UNL     1       6.756   5.699  18.333  0.00  0.00    +0.000 C 
ATOM     12  O   UNL     1       6.591   6.335  17.095  0.00  0.00    +0.000 OA
ATOM     13  C   UNL     1       5.390   6.161  16.479  0.00  0.00    +0.000 C 
ATOM     14  N   UNL     1       5.344   6.804  15.285  0.00  0.00    +0.000 N 
ATOM     15  N   UNL     1       4.385   5.506  16.922  0.00  0.00    +0.000 NA
ATOM     16  H   UNL     1       5.970   7.591  15.199  0.00  0.00    +0.000 HD
ATOM     17  H   UNL     1       4.393   6.981  14.981  0.00  0.00    +0.000 HD
BRANCH  11  18
ATOM     18  C   UNL     1       8.105   5.890  18.955  0.00  0.00    +0.000 C 
ATOM     19  F   UNL     1       8.534   7.179  18.853  0.00  0.00    +0.000 F 
ENDBRANCH  11  18
ENDBRANCH   1   9
BRANCH   3  20
ATOM     20  N   UNL     1       1.432   8.430  20.003  0.00  0.00    +0.000 N 
ATOM     21  C   UNL     1       1.232   9.227  21.120  0.00  0.00    +0.000 C 
ATOM     22  O   UNL     1       1.417   8.915  22.292  0.00  0.00    +0.000 OA
ATOM     23  H   UNL     1       1.316   8.895  19.106  0.00  0.00    +0.000 HD
BRANCH  21  24
ATOM     24  C   UNL     1       0.784  10.616  20.839  0.00  0.00    +0.000 A 
ATOM     25  C   UNL     1       0.820  11.077  19.529  0.00  0.00    +0.000 A 
ATOM     26  N   UNL     1       0.403  12.319  19.181  0.00  0.00    +0.000 NA
ATOM     27  C   UNL     1      -0.058  13.094  20.201  0.00  0.00    +0.000 A 
ATOM     28  C   UNL     1      -0.078  12.625  21.515  0.00  0.00    +0.000 A 
ATOM     29  N   UNL     1       0.335  11.378  21.872  0.00  0.00    +0.000 NA
BRANCH  27  30
ATOM     30  C   UNL     1      -0.579  14.473  19.894  0.00  0.00    +0.000 C 
ATOM     31  F   UNL     1      -0.505  14.772  18.566  0.00  0.00    +0.000 F 
ATOM     32  F   UNL     1      -1.893  14.623  20.230  0.00  0.00    +0.000 F 
ENDBRANCH  27  30
ENDBRANCH  21  24
ENDBRANCH   3  20
TORSDOF 5
ENDMDL
MODEL 9
REMARK VINA RESULT:      -7.7      2.815      3.493
REMARK  Name = 
REMARK  6 active torsions:
REMARK  status: ('A' for Active; 'I' for Inactive)
REMARK    1  A    between atoms: C_1  and  C_2
REMARK    2  A    between atoms: C_2  and  C_3
REMARK    3  A    between atoms: C_5  and  N_6
REMARK    4  A    between atoms: C_7  and  C_9
REMARK    5  A    between atoms: C_12  and  C_13
REMARK    6  A    between atoms: C_23  and  C_24
REMARK                            x       y       z     vdW  Elec       q    Type
REMARK                         _______ _______ _______ _____ _____    ______ ____
ROOT
ATOM      1  C   UNL     1       3.304   5.404  19.145  0.00  0.00    +0.000 A 
ATOM      2  C   UNL     1       2.976   6.769  19.029  0.00  0.00    +0.000 A 
ATOM      3  C   UNL     1       1.962   7.369  19.789  0.00  0.00    +0.000 A 
ATOM      4  C   UNL     1       1.281   6.595  20.730  0.00  0.00    +0.000 A 
ATOM      5  C   UNL     1       1.586   5.239  20.871  0.00  0.00    +0.000 A 
ATOM      6  C   UNL     1       2.581   4.658  20.083  0.00  0.00    +0.000 A 
ATOM      7  F   UNL     1       2.837   3.354  20.261  0.00  0.00    +0.000 F 
ENDROOT
BRANCH   1   9
ATOM      8  C   UNL     1       4.143   3.279  18.064  0.00  0.00    +0.000 C 
ATOM      9  C   UNL     1       4.416   4.782  18.285  0.00  0.00    +0.000 C 
ATOM     10  C   UNL     1       5.752   4.947  18.949  0.00  0.00    +0.000 C 
ATOM     11  C   UNL     1       6.782   5.557  18.355  0.00  0.00    +0.000 C 
ATOM     12  O   UNL     1       6.669   6.071  17.056  0.00  0.00    +0.000 OA
ATOM     13  C   UNL     1       5.469   5.900  16.438  0.00  0.00    +0.000 C 
ATOM     14  N   UNL     1       5.476   6.418  15.184  0.00  0.00    +0.000 N 
ATOM     15  N   UNL     1       4.424   5.348  16.925  0.00  0.00    +0.000 NA
ATOM     16  H   UNL     1       6.145   7.158  15.031  0.00  0.00    +0.000 HD
ATOM     17  H   UNL     1       4.540   6.614  14.845  0.00  0.00    +0.000 HD
BRANCH  11  18
ATOM     18  C   UNL     1       8.130   5.737  18.980  0.00  0.00    +0.000 C 
ATOM     19  F   UNL     1       8.544   7.035  18.931  0.00  0.00    +0.000 F 
ENDBRANCH  11  18
ENDBRANCH   1   9
BRANCH   3  20
ATOM     20  N   UNL     1       1.597   8.725  19.640  0.00  0.00    +0.000 N 
ATOM     21  C   UNL     1       1.694   9.472  18.476  0.00  0.00    +0.000 C 
ATOM     22  O   UNL     1       2.093   9.085  17.382  0.00  0.00    +0.000 OA
ATOM     23  H   UNL     1       1.153   9.193  20.425  0.00  0.00    +0.000 HD
BRANCH  21  24
ATOM     24  C   UNL     1       1.221  10.877  18.578  0.00  0.00    +0.000 A 
ATOM     25  C   UNL     1      -0.123  11.110  18.842  0.00  0.00    +0.000 A 
ATOM     26  N   UNL     1      -0.633  12.359  18.981  0.00  0.00    +0.000 NA
ATOM     27  C   UNL     1       0.259  13.379  18.845  0.00  0.00    +0.000 A 
ATOM     28  C   UNL     1       1.604  13.132  18.567  0.00  0.00    +0.000 A 
ATOM     29  N   UNL     1       2.124  11.883  18.432  0.00  0.00    +0.000 NA
BRANCH  27  30
ATOM     30  C   UNL     1      -0.218  14.796  19.025  0.00  0.00    +0.000 C 
ATOM     31  F   UNL     1      -1.209  14.896  19.955  0.00  0.00    +0.000 F 
ATOM     32  F   UNL     1       0.772  15.630  19.455  0.00  0.00    +0.000 F 
ENDBRANCH  27  30
ENDBRANCH  21  24
ENDBRANCH   3  20
TORSDOF 5
ENDMDL
