MODEL 1
REMARK VINA RESULT:      -8.1      0.000      0.000
REMARK  Name = 
REMARK  11 active torsions:
REMARK  status: ('A' for Active; 'I' for Inactive)
REMARK    1  A    between atoms: C_1  and  C_2
REMARK    2  A    between atoms: N_5  and  C_6
REMARK    3  A    between atoms: C_10  and  C_11
REMARK    4  A    between atoms: C_11  and  C_12
REMARK    5  A    between atoms: C_11  and  C_16
REMARK    6  A    between atoms: C_12  and  C_13
REMARK    7  A    between atoms: C_13  and  O_15
REMARK    8  A    between atoms: C_16  and  N_17
REMARK    9  A    between atoms: C_20  and  C_21
REMARK   10  A    between atoms: C_21  and  C_22
REMARK   11  A    between atoms: C_22  and  C_23
REMARK                            x       y       z     vdW  Elec       q    Type
REMARK                         _______ _______ _______ _____ _____    ______ ____
ROOT
ATOM      1  C   UNL     1       2.900   3.463  18.591  0.00  0.00    +0.000 C 
ENDROOT
BRANCH   1   2
ATOM      2  N   UNL     1       1.718   4.247  19.046  0.00  0.00    +0.000 NA
ATOM      3  C   UNL     1       1.284   5.167  17.959  0.00  0.00    +0.000 C 
ATOM      4  C   UNL     1       2.272   6.326  18.011  0.00  0.00    +0.000 C 
ATOM      5  C   UNL     1       2.516   6.513  19.513  0.00  0.00    +0.000 C 
ATOM      6  C   UNL     1       2.001   5.202  20.141  0.00  0.00    +0.000 C 
BRANCH   5   7
ATOM      7  C   UNL     1       1.779   7.758  20.050  0.00  0.00    +0.000 C 
BRANCH   7   8
ATOM      8  C   UNL     1       1.671   8.885  19.012  0.00  0.00    +0.000 C 
BRANCH   8   9
ATOM      9  C   UNL     1       0.906  10.074  19.547  0.00  0.00    +0.000 A 
ATOM     10  C   UNL     1       0.034   9.923  20.617  0.00  0.00    +0.000 A 
ATOM     11  C   UNL     1      -0.665  11.038  21.065  0.00  0.00    +0.000 A 
ATOM     12  C   UNL     1      -0.456  12.271  20.457  0.00  0.00    +0.000 A 
ATOM     13  C   UNL     1       0.455  12.346  19.396  0.00  0.00    +0.000 A 
ATOM     14  N   UNL     1       1.132  11.277  18.942  0.00  0.00    +0.000 NA
ATOM     15  N   UNL     1       0.740  13.558  18.782  0.00  0.00    +0.000 N 
ATOM     16  C   UNL     1      -0.294  14.566  18.844  0.00  0.00    +0.000 C 
ATOM     17  C   UNL     1      -0.705  14.774  20.301  0.00  0.00    +0.000 C 
ATOM     18  C   UNL     1      -1.272  13.471  20.851  0.00  0.00    +0.000 C 
ATOM     19  H   UNL     1       1.224  13.405  17.903  0.00  0.00    +0.000 HD
ENDBRANCH   8   9
ENDBRANCH   7   8
ENDBRANCH   5   7
ENDBRANCH   1   2
BRANCH   1  20
ATOM     20  C   UNL     1       4.242   3.673  19.357  0.00  0.00    +0.000 C 
BRANCH  20  25
ATOM     21  C   UNL     1       6.410   5.137  16.551  0.00  0.00    +0.000 A 
ATOM     22  C   UNL     1       7.413   5.793  17.268  0.00  0.00    +0.000 A 
ATOM     23  C   UNL     1       7.337   5.853  18.655  0.00  0.00    +0.000 A 
ATOM     24  C   UNL     1       6.290   5.207  19.328  0.00  0.00    +0.000 A 
ATOM     25  C   UNL     1       5.257   4.563  18.620  0.00  0.00    +0.000 A 
ATOM     26  C   UNL     1       5.291   4.615  17.220  0.00  0.00    +0.000 A 
BRANCH  21  31
ATOM     27  C   UNL     1       6.157   3.125  11.983  0.00  0.00    +0.000 C 
ATOM     28  C   UNL     1       6.547   3.930  13.156  0.00  0.00    +0.000 A 
ATOM     29  C   UNL     1       7.576   4.881  13.275  0.00  0.00    +0.000 A 
ATOM     30  N   UNL     1       7.577   5.493  14.460  0.00  0.00    +0.000 NA
ATOM     31  N   UNL     1       6.604   4.864  15.171  0.00  0.00    +0.000 N 
ATOM     32  C   UNL     1       5.965   3.916  14.403  0.00  0.00    +0.000 A 
ENDBRANCH  21  31
ENDBRANCH  20  25
BRANCH  20  33
ATOM     33  C   UNL     1       4.905   2.336  19.755  0.00  0.00    +0.000 C 
BRANCH  33  34
ATOM     34  C   UNL     1       4.529   1.830  21.132  0.00  0.00    +0.000 C 
ATOM     35  O   UNL     1       3.487   2.109  21.699  0.00  0.00    +0.000 OA
BRANCH  34  36
ATOM     36  O   UNL     1       5.473   1.040  21.686  0.00  0.00    +0.000 OA
ATOM     37  H   UNL     1       5.418   0.999  22.666  0.00  0.00    +0.000 HD
ENDBRANCH  34  36
ENDBRANCH  33  34
ENDBRANCH  20  33
ENDBRANCH   1  20
TORSDOF 10
ENDMDL
MODEL 2
REMARK VINA RESULT:      -8.0      1.698      2.295
REMARK  Name = 
REMARK  11 active torsions:
REMARK  status: ('A' for Active; 'I' for Inactive)
REMARK    1  A    between atoms: C_1  and  C_2
REMARK    2  A    between atoms: N_5  and  C_6
REMARK    3  A    between atoms: C_10  and  C_11
REMARK    4  A    between atoms: C_11  and  C_12
REMARK    5  A    between atoms: C_11  and  C_16
REMARK    6  A    between atoms: C_12  and  C_13
REMARK    7  A    between atoms: C_13  and  O_15
REMARK    8  A    between atoms: C_16  and  N_17
REMARK    9  A    between atoms: C_20  and  C_21
REMARK   10  A    between atoms: C_21  and  C_22
REMARK   11  A    between atoms: C_22  and  C_23
REMARK                            x       y       z     vdW  Elec       q    Type
REMARK                         _______ _______ _______ _____ _____    ______ ____
ROOT
ATOM      1  C   UNL     1       3.199   5.325  20.230  0.00  0.00    +0.000 C 
ENDROOT
BRANCH   1   2
ATOM      2  N   UNL     1       1.869   5.832  19.795  0.00  0.00    +0.000 NA
ATOM      3  C   UNL     1       1.989   6.444  18.444  0.00  0.00    +0.000 C 
ATOM      4  C   UNL     1       2.607   7.814  18.689  0.00  0.00    +0.000 C 
ATOM      5  C   UNL     1       1.948   8.271  19.995  0.00  0.00    +0.000 C 
ATOM      6  C   UNL     1       1.359   6.974  20.587  0.00  0.00    +0.000 C 
BRANCH   5   7
ATOM      7  C   UNL     1       0.872   9.346  19.734  0.00  0.00    +0.000 C 
BRANCH   7   8
ATOM      8  C   UNL     1       1.089  10.105  18.417  0.00  0.00    +0.000 C 
BRANCH   8   9
ATOM      9  C   UNL     1       1.238  11.592  18.639  0.00  0.00    +0.000 A 
ATOM     10  C   UNL     1       0.267  12.297  19.339  0.00  0.00    +0.000 A 
ATOM     11  C   UNL     1       0.433  13.667  19.504  0.00  0.00    +0.000 A 
ATOM     12  C   UNL     1       1.568  14.290  18.995  0.00  0.00    +0.000 A 
ATOM     13  C   UNL     1       2.511  13.507  18.318  0.00  0.00    +0.000 A 
ATOM     14  N   UNL     1       2.363  12.182  18.139  0.00  0.00    +0.000 NA
ATOM     15  N   UNL     1       3.685  14.063  17.830  0.00  0.00    +0.000 N 
ATOM     16  C   UNL     1       3.643  15.474  17.517  0.00  0.00    +0.000 C 
ATOM     17  C   UNL     1       3.139  16.243  18.737  0.00  0.00    +0.000 C 
ATOM     18  C   UNL     1       1.724  15.783  19.068  0.00  0.00    +0.000 C 
ATOM     19  H   UNL     1       4.134  13.429  17.177  0.00  0.00    +0.000 HD
ENDBRANCH   8   9
ENDBRANCH   7   8
ENDBRANCH   5   7
ENDBRANCH   1   2
BRANCH   1  20
ATOM     20  C   UNL     1       3.951   4.354  19.268  0.00  0.00    +0.000 C 
BRANCH  20  25
ATOM     21  C   UNL     1       6.413   5.268  16.471  0.00  0.00    +0.000 A 
ATOM     22  C   UNL     1       7.525   5.707  17.192  0.00  0.00    +0.000 A 
ATOM     23  C   UNL     1       7.449   5.809  18.577  0.00  0.00    +0.000 A 
ATOM     24  C   UNL     1       6.280   5.414  19.245  0.00  0.00    +0.000 A 
ATOM     25  C   UNL     1       5.141   4.993  18.531  0.00  0.00    +0.000 A 
ATOM     26  C   UNL     1       5.200   5.010  17.132  0.00  0.00    +0.000 A 
BRANCH  21  31
ATOM     27  C   UNL     1       5.914   3.131  11.981  0.00  0.00    +0.000 C 
ATOM     28  C   UNL     1       6.390   3.940  13.119  0.00  0.00    +0.000 A 
ATOM     29  C   UNL     1       7.494   4.809  13.189  0.00  0.00    +0.000 A 
ATOM     30  N   UNL     1       7.566   5.458  14.350  0.00  0.00    +0.000 NA
ATOM     31  N   UNL     1       6.559   4.933  15.099  0.00  0.00    +0.000 N 
ATOM     32  C   UNL     1       5.831   4.016  14.374  0.00  0.00    +0.000 A 
ENDBRANCH  21  31
ENDBRANCH  20  25
BRANCH  20  33
ATOM     33  C   UNL     1       3.001   3.683  18.253  0.00  0.00    +0.000 C 
BRANCH  33  34
ATOM     34  C   UNL     1       2.374   2.392  18.735  0.00  0.00    +0.000 C 
ATOM     35  O   UNL     1       1.998   2.201  19.878  0.00  0.00    +0.000 OA
BRANCH  34  36
ATOM     36  O   UNL     1       2.278   1.452  17.769  0.00  0.00    +0.000 OA
ATOM     37  H   UNL     1       1.649   0.731  17.990  0.00  0.00    +0.000 HD
ENDBRANCH  34  36
ENDBRANCH  33  34
ENDBRANCH  20  33
ENDBRANCH   1  20
TORSDOF 10
ENDMDL
MODEL 3
REMARK VINA RESULT:      -8.0      2.040      3.128
REMARK  Name = 
REMARK  11 active torsions:
REMARK  status: ('A' for Active; 'I' for Inactive)
REMARK    1  A    between atoms: C_1  and  C_2
REMARK    2  A    between atoms: N_5  and  C_6
REMARK    3  A    between atoms: C_10  and  C_11
REMARK    4  A    between atoms: C_11  and  C_12
REMARK    5  A    between atoms: C_11  and  C_16
REMARK    6  A    between atoms: C_12  and  C_13
REMARK    7  A    between atoms: C_13  and  O_15
REMARK    8  A    between atoms: C_16  and  N_17
REMARK    9  A    between atoms: C_20  and  C_21
REMARK   10  A    between atoms: C_21  and  C_22
REMARK   11  A    between atoms: C_22  and  C_23
REMARK                            x       y       z     vdW  Elec       q    Type
REMARK                         _______ _______ _______ _____ _____    ______ ____
ROOT
ATOM      1  C   UNL     1       2.006   6.652  18.257  0.00  0.00    +0.000 C 
ENDROOT
BRANCH   1   2
ATOM      2  N   UNL     1       2.553   7.939  18.770  0.00  0.00    +0.000 NA
ATOM      3  C   UNL     1       1.870   8.296  20.043  0.00  0.00    +0.000 C 
ATOM      4  C   UNL     1       0.519   8.856  19.619  0.00  0.00    +0.000 C 
ATOM      5  C   UNL     1       0.848   9.644  18.346  0.00  0.00    +0.000 C 
ATOM      6  C   UNL     1       2.237   9.117  17.930  0.00  0.00    +0.000 C 
BRANCH   5   7
ATOM      7  C   UNL     1       0.846  11.164  18.611  0.00  0.00    +0.000 C 
BRANCH   7   8
ATOM      8  C   UNL     1      -0.569  11.748  18.746  0.00  0.00    +0.000 C 
BRANCH   8   9
ATOM      9  C   UNL     1      -0.782  12.409  20.088  0.00  0.00    +0.000 A 
ATOM     10  C   UNL     1       0.248  13.121  20.690  0.00  0.00    +0.000 A 
ATOM     11  C   UNL     1       0.017  13.698  21.933  0.00  0.00    +0.000 A 
ATOM     12  C   UNL     1      -1.235  13.575  22.527  0.00  0.00    +0.000 A 
ATOM     13  C   UNL     1      -2.228  12.858  21.847  0.00  0.00    +0.000 A 
ATOM     14  N   UNL     1      -2.020  12.285  20.649  0.00  0.00    +0.000 NA
ATOM     15  N   UNL     1      -3.509  12.743  22.368  0.00  0.00    +0.000 N 
ATOM     16  C   UNL     1      -3.628  12.847  23.805  0.00  0.00    +0.000 C 
ATOM     17  C   UNL     1      -2.964  14.142  24.270  0.00  0.00    +0.000 C 
ATOM     18  C   UNL     1      -1.483  14.099  23.914  0.00  0.00    +0.000 C 
ATOM     19  H   UNL     1      -4.024  12.013  21.884  0.00  0.00    +0.000 HD
ENDBRANCH   8   9
ENDBRANCH   7   8
ENDBRANCH   5   7
ENDBRANCH   1   2
BRANCH   1  20
ATOM     20  C   UNL     1       2.814   5.353  18.561  0.00  0.00    +0.000 C 
BRANCH  20  25
ATOM     21  C   UNL     1       6.050   5.216  16.503  0.00  0.00    +0.000 A 
ATOM     22  C   UNL     1       7.023   5.091  17.497  0.00  0.00    +0.000 A 
ATOM     23  C   UNL     1       6.650   5.154  18.835  0.00  0.00    +0.000 A 
ATOM     24  C   UNL     1       5.296   5.283  19.179  0.00  0.00    +0.000 A 
ATOM     25  C   UNL     1       4.305   5.437  18.191  0.00  0.00    +0.000 A 
ATOM     26  C   UNL     1       4.717   5.488  16.853  0.00  0.00    +0.000 A 
BRANCH  21  31
ATOM     27  C   UNL     1       6.182   3.177  11.943  0.00  0.00    +0.000 C 
ATOM     28  C   UNL     1       6.493   3.963  13.152  0.00  0.00    +0.000 A 
ATOM     29  C   UNL     1       7.572   4.832  13.391  0.00  0.00    +0.000 A 
ATOM     30  N   UNL     1       7.481   5.456  14.565  0.00  0.00    +0.000 NA
ATOM     31  N   UNL     1       6.384   4.912  15.158  0.00  0.00    +0.000 N 
ATOM     32  C   UNL     1       5.768   4.009  14.321  0.00  0.00    +0.000 A 
ENDBRANCH  21  31
ENDBRANCH  20  25
BRANCH  20  33
ATOM     33  C   UNL     1       2.180   4.103  17.914  0.00  0.00    +0.000 C 
BRANCH  33  34
ATOM     34  C   UNL     1       2.514   2.797  18.602  0.00  0.00    +0.000 C 
ATOM     35  O   UNL     1       2.747   2.694  19.794  0.00  0.00    +0.000 OA
BRANCH  34  36
ATOM     36  O   UNL     1       2.543   1.742  17.760  0.00  0.00    +0.000 OA
ATOM     37  H   UNL     1       2.952   0.941  18.155  0.00  0.00    +0.000 HD
ENDBRANCH  34  36
ENDBRANCH  33  34
ENDBRANCH  20  33
ENDBRANCH   1  20
TORSDOF 10
ENDMDL
MODEL 4
REMARK VINA RESULT:      -7.9      3.921      5.727
REMARK  Name = 
REMARK  11 active torsions:
REMARK  status: ('A' for Active; 'I' for Inactive)
REMARK    1  A    between atoms: C_1  and  C_2
REMARK    2  A    between atoms: N_5  and  C_6
REMARK    3  A    between atoms: C_10  and  C_11
REMARK    4  A    between atoms: C_11  and  C_12
REMARK    5  A    between atoms: C_11  and  C_16
REMARK    6  A    between atoms: C_12  and  C_13
REMARK    7  A    between atoms: C_13  and  O_15
REMARK    8  A    between atoms: C_16  and  N_17
REMARK    9  A    between atoms: C_20  and  C_21
REMARK   10  A    between atoms: C_21  and  C_22
REMARK   11  A    between atoms: C_22  and  C_23
REMARK                            x       y       z     vdW  Elec       q    Type
REMARK                         _______ _______ _______ _____ _____    ______ ____
ROOT
ATOM      1  C   UNL     1       1.876   8.563  20.791  0.00  0.00    +0.000 C 
ENDROOT
BRANCH   1   2
ATOM      2  N   UNL     1       0.770   8.335  21.762  0.00  0.00    +0.000 NA
ATOM      3  C   UNL     1      -0.538   8.478  21.067  0.00  0.00    +0.000 C 
ATOM      4  C   UNL     1      -0.750   9.981  20.937  0.00  0.00    +0.000 C 
ATOM      5  C   UNL     1      -0.195  10.531  22.255  0.00  0.00    +0.000 C 
ATOM      6  C   UNL     1       0.655   9.370  22.814  0.00  0.00    +0.000 C 
BRANCH   5   7
ATOM      7  C   UNL     1      -1.331  10.948  23.212  0.00  0.00    +0.000 C 
BRANCH   7   8
ATOM      8  C   UNL     1      -1.731  12.423  23.061  0.00  0.00    +0.000 C 
BRANCH   8   9
ATOM      9  C   UNL     1      -3.231  12.601  23.018  0.00  0.00    +0.000 A 
ATOM     10  C   UNL     1      -3.959  12.709  24.197  0.00  0.00    +0.000 A 
ATOM     11  C   UNL     1      -5.339  12.852  24.113  0.00  0.00    +0.000 A 
ATOM     12  C   UNL     1      -5.950  12.912  22.865  0.00  0.00    +0.000 A 
ATOM     13  C   UNL     1      -5.146  12.816  21.723  0.00  0.00    +0.000 A 
ATOM     14  N   UNL     1      -3.811  12.667  21.784  0.00  0.00    +0.000 NA
ATOM     15  N   UNL     1      -5.694  12.917  20.451  0.00  0.00    +0.000 N 
ATOM     16  C   UNL     1      -7.083  12.539  20.321  0.00  0.00    +0.000 C 
ATOM     17  C   UNL     1      -7.912  13.322  21.338  0.00  0.00    +0.000 C 
ATOM     18  C   UNL     1      -7.448  12.962  22.744  0.00  0.00    +0.000 C 
ATOM     19  H   UNL     1      -5.030  12.597  19.753  0.00  0.00    +0.000 HD
ENDBRANCH   8   9
ENDBRANCH   7   8
ENDBRANCH   5   7
ENDBRANCH   1   2
BRANCH   1  20
ATOM     20  C   UNL     1       1.833   7.768  19.450  0.00  0.00    +0.000 C 
BRANCH  20  25
ATOM     21  C   UNL     1       4.264   4.986  18.414  0.00  0.00    +0.000 A 
ATOM     22  C   UNL     1       3.785   3.894  19.140  0.00  0.00    +0.000 A 
ATOM     23  C   UNL     1       2.743   4.074  20.043  0.00  0.00    +0.000 A 
ATOM     24  C   UNL     1       2.142   5.335  20.177  0.00  0.00    +0.000 A 
ATOM     25  C   UNL     1       2.629   6.452  19.471  0.00  0.00    +0.000 A 
ATOM     26  C   UNL     1       3.753   6.273  18.655  0.00  0.00    +0.000 A 
BRANCH  21  31
ATOM     27  C   UNL     1       6.167   3.786  13.951  0.00  0.00    +0.000 C 
ATOM     28  C   UNL     1       6.011   4.169  15.367  0.00  0.00    +0.000 A 
ATOM     29  C   UNL     1       7.002   4.431  16.329  0.00  0.00    +0.000 A 
ATOM     30  N   UNL     1       6.497   4.852  17.489  0.00  0.00    +0.000 NA
ATOM     31  N   UNL     1       5.150   4.766  17.326  0.00  0.00    +0.000 N 
ATOM     32  C   UNL     1       4.831   4.359  16.050  0.00  0.00    +0.000 A 
ENDBRANCH  21  31
ENDBRANCH  20  25
BRANCH  20  33
ATOM     33  C   UNL     1       2.271   8.629  18.245  0.00  0.00    +0.000 C 
BRANCH  33  34
ATOM     34  C   UNL     1       1.514   9.932  18.092  0.00  0.00    +0.000 C 
ATOM     35  O   UNL     1       1.993  11.030  18.315  0.00  0.00    +0.000 OA
BRANCH  34  36
ATOM     36  O   UNL     1       0.236   9.762  17.690  0.00  0.00    +0.000 OA
ATOM     37  H   UNL     1       0.116   9.870  16.721  0.00  0.00    +0.000 HD
ENDBRANCH  34  36
ENDBRANCH  33  34
ENDBRANCH  20  33
ENDBRANCH   1  20
TORSDOF 10
ENDMDL
MODEL 5
REMARK VINA RESULT:      -7.9      3.037      4.471
REMARK  Name = 
REMARK  11 active torsions:
REMARK  status: ('A' for Active; 'I' for Inactive)
REMARK    1  A    between atoms: C_1  and  C_2
REMARK    2  A    between atoms: N_5  and  C_6
REMARK    3  A    between atoms: C_10  and  C_11
REMARK    4  A    between atoms: C_11  and  C_12
REMARK    5  A    between atoms: C_11  and  C_16
REMARK    6  A    between atoms: C_12  and  C_13
REMARK    7  A    between atoms: C_13  and  O_15
REMARK    8  A    between atoms: C_16  and  N_17
REMARK    9  A    between atoms: C_20  and  C_21
REMARK   10  A    between atoms: C_21  and  C_22
REMARK   11  A    between atoms: C_22  and  C_23
REMARK                            x       y       z     vdW  Elec       q    Type
REMARK                         _______ _______ _______ _____ _____    ______ ____
ROOT
ATOM      1  C   UNL     1       1.143   6.381  20.433  0.00  0.00    +0.000 C 
ENDROOT
BRANCH   1   2
ATOM      2  N   UNL     1       1.836   7.695  20.546  0.00  0.00    +0.000 NA
ATOM      3  C   UNL     1       1.408   8.376  21.798  0.00  0.00    +0.000 C 
ATOM      4  C   UNL     1       0.033   8.951  21.479  0.00  0.00    +0.000 C 
ATOM      5  C   UNL     1       0.172   9.413  20.025  0.00  0.00    +0.000 C 
ATOM      6  C   UNL     1       1.438   8.688  19.523  0.00  0.00    +0.000 C 
BRANCH   5   7
ATOM      7  C   UNL     1       0.294  10.949  19.934  0.00  0.00    +0.000 C 
BRANCH   7   8
ATOM      8  C   UNL     1      -0.168  11.508  18.580  0.00  0.00    +0.000 C 
BRANCH   8   9
ATOM      9  C   UNL     1      -1.659  11.356  18.384  0.00  0.00    +0.000 A 
ATOM     10  C   UNL     1      -2.154  10.491  17.416  0.00  0.00    +0.000 A 
ATOM     11  C   UNL     1      -3.531  10.395  17.256  0.00  0.00    +0.000 A 
ATOM     12  C   UNL     1      -4.373  11.136  18.076  0.00  0.00    +0.000 A 
ATOM     13  C   UNL     1      -3.798  11.971  19.043  0.00  0.00    +0.000 A 
ATOM     14  N   UNL     1      -2.468  12.086  19.206  0.00  0.00    +0.000 NA
ATOM     15  N   UNL     1      -4.588  12.699  19.922  0.00  0.00    +0.000 N 
ATOM     16  C   UNL     1      -5.918  13.030  19.463  0.00  0.00    +0.000 C 
ATOM     17  C   UNL     1      -6.628  11.752  19.019  0.00  0.00    +0.000 C 
ATOM     18  C   UNL     1      -5.861  11.132  17.858  0.00  0.00    +0.000 C 
ATOM     19  H   UNL     1      -4.036  13.414  20.385  0.00  0.00    +0.000 HD
ENDBRANCH   8   9
ENDBRANCH   7   8
ENDBRANCH   5   7
ENDBRANCH   1   2
BRANCH   1  20
ATOM     20  C   UNL     1       2.011   5.093  20.577  0.00  0.00    +0.000 C 
BRANCH  20  25
ATOM     21  C   UNL     1       5.106   5.498  18.345  0.00  0.00    +0.000 A 
ATOM     22  C   UNL     1       4.681   4.915  17.149  0.00  0.00    +0.000 A 
ATOM     23  C   UNL     1       3.437   4.298  17.090  0.00  0.00    +0.000 A 
ATOM     24  C   UNL     1       2.592   4.316  18.209  0.00  0.00    +0.000 A 
ATOM     25  C   UNL     1       3.013   4.877  19.430  0.00  0.00    +0.000 A 
ATOM     26  C   UNL     1       4.316   5.388  19.502  0.00  0.00    +0.000 A 
BRANCH  21  31
ATOM     27  C   UNL     1       8.345   9.193  17.436  0.00  0.00    +0.000 C 
ATOM     28  C   UNL     1       7.723   7.935  17.892  0.00  0.00    +0.000 A 
ATOM     29  C   UNL     1       8.299   6.871  18.607  0.00  0.00    +0.000 A 
ATOM     30  N   UNL     1       7.411   5.934  18.941  0.00  0.00    +0.000 NA
ATOM     31  N   UNL     1       6.255   6.332  18.346  0.00  0.00    +0.000 N 
ATOM     32  C   UNL     1       6.418   7.541  17.708  0.00  0.00    +0.000 A 
ENDBRANCH  21  31
ENDBRANCH  20  25
BRANCH  20  33
ATOM     33  C   UNL     1       1.150   3.826  20.772  0.00  0.00    +0.000 C 
BRANCH  33  34
ATOM     34  C   UNL     1       1.706   2.833  21.771  0.00  0.00    +0.000 C 
ATOM     35  O   UNL     1       2.878   2.504  21.826  0.00  0.00    +0.000 OA
BRANCH  34  36
ATOM     36  O   UNL     1       0.768   2.331  22.602  0.00  0.00    +0.000 OA
ATOM     37  H   UNL     1       0.254   3.024  23.072  0.00  0.00    +0.000 HD
ENDBRANCH  34  36
ENDBRANCH  33  34
ENDBRANCH  20  33
ENDBRANCH   1  20
TORSDOF 10
ENDMDL
MODEL 6
REMARK VINA RESULT:      -7.9      2.591      3.047
REMARK  Name = 
REMARK  11 active torsions:
REMARK  status: ('A' for Active; 'I' for Inactive)
REMARK    1  A    between atoms: C_1  and  C_2
REMARK    2  A    between atoms: N_5  and  C_6
REMARK    3  A    between atoms: C_10  and  C_11
REMARK    4  A    between atoms: C_11  and  C_12
REMARK    5  A    between atoms: C_11  and  C_16
REMARK    6  A    between atoms: C_12  and  C_13
REMARK    7  A    between atoms: C_13  and  O_15
REMARK    8  A    between atoms: C_16  and  N_17
REMARK    9  A    between atoms: C_20  and  C_21
REMARK   10  A    between atoms: C_21  and  C_22
REMARK   11  A    between atoms: C_22  and  C_23
REMARK                            x       y       z     vdW  Elec       q    Type
REMARK                         _______ _______ _______ _____ _____    ______ ____
ROOT
ATOM      1  C   UNL     1       3.332   6.185  19.718  0.00  0.00    +0.000 C 
ENDROOT
BRANCH   1   2
ATOM      2  N   UNL     1       1.863   6.405  19.600  0.00  0.00    +0.000 NA
ATOM      3  C   UNL     1       1.587   7.303  18.446  0.00  0.00    +0.000 C 
ATOM      4  C   UNL     1       1.916   8.702  18.951  0.00  0.00    +0.000 C 
ATOM      5  C   UNL     1       1.428   8.676  20.404  0.00  0.00    +0.000 C 
ATOM      6  C   UNL     1       1.268   7.174  20.716  0.00  0.00    +0.000 C 
BRANCH   5   7
ATOM      7  C   UNL     1       0.108   9.459  20.566  0.00  0.00    +0.000 C 
BRANCH   7   8
ATOM      8  C   UNL     1       0.058  10.734  19.710  0.00  0.00    +0.000 C 
BRANCH   8   9
ATOM      9  C   UNL     1      -1.231  10.839  18.927  0.00  0.00    +0.000 A 
ATOM     10  C   UNL     1      -1.361  10.198  17.702  0.00  0.00    +0.000 A 
ATOM     11  C   UNL     1      -2.557  10.337  17.006  0.00  0.00    +0.000 A 
ATOM     12  C   UNL     1      -3.592  11.082  17.558  0.00  0.00    +0.000 A 
ATOM     13  C   UNL     1      -3.390  11.682  18.807  0.00  0.00    +0.000 A 
ATOM     14  N   UNL     1      -2.238  11.568  19.491  0.00  0.00    +0.000 NA
ATOM     15  N   UNL     1      -4.404  12.398  19.429  0.00  0.00    +0.000 N 
ATOM     16  C   UNL     1      -5.397  12.987  18.561  0.00  0.00    +0.000 C 
ATOM     17  C   UNL     1      -5.973  11.904  17.650  0.00  0.00    +0.000 C 
ATOM     18  C   UNL     1      -4.856  11.335  16.783  0.00  0.00    +0.000 C 
ATOM     19  H   UNL     1      -4.029  12.951  20.193  0.00  0.00    +0.000 HD
ENDBRANCH   8   9
ENDBRANCH   7   8
ENDBRANCH   5   7
ENDBRANCH   1   2
BRANCH   1  20
ATOM     20  C   UNL     1       3.915   4.871  19.112  0.00  0.00    +0.000 C 
BRANCH  20  25
ATOM     21  C   UNL     1       6.567   4.939  16.340  0.00  0.00    +0.000 A 
ATOM     22  C   UNL     1       7.755   4.881  17.071  0.00  0.00    +0.000 A 
ATOM     23  C   UNL     1       7.709   4.925  18.460  0.00  0.00    +0.000 A 
ATOM     24  C   UNL     1       6.472   4.967  19.119  0.00  0.00    +0.000 A 
ATOM     25  C   UNL     1       5.265   5.051  18.398  0.00  0.00    +0.000 A 
ATOM     26  C   UNL     1       5.340   5.123  17.001  0.00  0.00    +0.000 A 
BRANCH  21  31
ATOM     27  C   UNL     1       5.676   2.944  11.845  0.00  0.00    +0.000 C 
ATOM     28  C   UNL     1       6.246   3.722  12.961  0.00  0.00    +0.000 A 
ATOM     29  C   UNL     1       7.343   4.603  12.958  0.00  0.00    +0.000 A 
ATOM     30  N   UNL     1       7.516   5.214  14.130  0.00  0.00    +0.000 NA
ATOM     31  N   UNL     1       6.588   4.651  14.950  0.00  0.00    +0.000 N 
ATOM     32  C   UNL     1       5.806   3.748  14.265  0.00  0.00    +0.000 A 
ENDBRANCH  21  31
ENDBRANCH  20  25
BRANCH  20  33
ATOM     33  C   UNL     1       2.912   4.163  18.175  0.00  0.00    +0.000 C 
BRANCH  33  34
ATOM     34  C   UNL     1       2.423   2.819  18.674  0.00  0.00    +0.000 C 
ATOM     35  O   UNL     1       2.078   2.603  19.823  0.00  0.00    +0.000 OA
BRANCH  34  36
ATOM     36  O   UNL     1       2.415   1.866  17.718  0.00  0.00    +0.000 OA
ATOM     37  H   UNL     1       2.712   2.193  16.841  0.00  0.00    +0.000 HD
ENDBRANCH  34  36
ENDBRANCH  33  34
ENDBRANCH  20  33
ENDBRANCH   1  20
TORSDOF 10
ENDMDL
MODEL 7
REMARK VINA RESULT:      -7.9      2.265      3.146
REMARK  Name = 
REMARK  11 active torsions:
REMARK  status: ('A' for Active; 'I' for Inactive)
REMARK    1  A    between atoms: C_1  and  C_2
REMARK    2  A    between atoms: N_5  and  C_6
REMARK    3  A    between atoms: C_10  and  C_11
REMARK    4  A    between atoms: C_11  and  C_12
REMARK    5  A    between atoms: C_11  and  C_16
REMARK    6  A    between atoms: C_12  and  C_13
REMARK    7  A    between atoms: C_13  and  O_15
REMARK    8  A    between atoms: C_16  and  N_17
REMARK    9  A    between atoms: C_20  and  C_21
REMARK   10  A    between atoms: C_21  and  C_22
REMARK   11  A    between atoms: C_22  and  C_23
REMARK                            x       y       z     vdW  Elec       q    Type
REMARK                         _______ _______ _______ _____ _____    ______ ____
ROOT
ATOM      1  C   UNL     1       1.822   5.997  19.019  0.00  0.00    +0.000 C 
ENDROOT
BRANCH   1   2
ATOM      2  N   UNL     1       2.530   7.286  19.254  0.00  0.00    +0.000 NA
ATOM      3  C   UNL     1       1.883   8.010  20.382  0.00  0.00    +0.000 C 
ATOM      4  C   UNL     1       0.627   8.628  19.781  0.00  0.00    +0.000 C 
ATOM      5  C   UNL     1       1.079   9.054  18.380  0.00  0.00    +0.000 C 
ATOM      6  C   UNL     1       2.390   8.271  18.157  0.00  0.00    +0.000 C 
BRANCH   5   7
ATOM      7  C   UNL     1       1.280  10.582  18.295  0.00  0.00    +0.000 C 
BRANCH   7   8
ATOM      8  C   UNL     1       0.927  11.306  19.603  0.00  0.00    +0.000 C 
BRANCH   8   9
ATOM      9  C   UNL     1       1.537  12.687  19.667  0.00  0.00    +0.000 A 
ATOM     10  C   UNL     1       1.072  13.616  20.589  0.00  0.00    +0.000 A 
ATOM     11  C   UNL     1       1.647  14.882  20.602  0.00  0.00    +0.000 A 
ATOM     12  C   UNL     1       2.681  15.177  19.720  0.00  0.00    +0.000 A 
ATOM     13  C   UNL     1       3.107  14.180  18.833  0.00  0.00    +0.000 A 
ATOM     14  N   UNL     1       2.557  12.953  18.799  0.00  0.00    +0.000 NA
ATOM     15  N   UNL     1       4.166  14.401  17.963  0.00  0.00    +0.000 N 
ATOM     16  C   UNL     1       4.409  15.775  17.587  0.00  0.00    +0.000 C 
ATOM     17  C   UNL     1       4.552  16.623  18.849  0.00  0.00    +0.000 C 
ATOM     18  C   UNL     1       3.251  16.566  19.640  0.00  0.00    +0.000 C 
ATOM     19  H   UNL     1       4.190  13.683  17.246  0.00  0.00    +0.000 HD
ENDBRANCH   8   9
ENDBRANCH   7   8
ENDBRANCH   5   7
ENDBRANCH   1   2
BRANCH   1  20
ATOM     20  C   UNL     1       2.695   4.731  18.759  0.00  0.00    +0.000 C 
BRANCH  20  25
ATOM     21  C   UNL     1       5.898   5.090  16.675  0.00  0.00    +0.000 A 
ATOM     22  C   UNL     1       6.887   5.106  17.661  0.00  0.00    +0.000 A 
ATOM     23  C   UNL     1       6.520   5.107  19.002  0.00  0.00    +0.000 A 
ATOM     24  C   UNL     1       5.165   5.030  19.358  0.00  0.00    +0.000 A 
ATOM     25  C   UNL     1       4.154   5.039  18.378  0.00  0.00    +0.000 A 
ATOM     26  C   UNL     1       4.541   5.157  17.037  0.00  0.00    +0.000 A 
BRANCH  21  31
ATOM     27  C   UNL     1       6.147   3.239  12.040  0.00  0.00    +0.000 C 
ATOM     28  C   UNL     1       6.423   3.980  13.286  0.00  0.00    +0.000 A 
ATOM     29  C   UNL     1       7.483   4.855  13.580  0.00  0.00    +0.000 A 
ATOM     30  N   UNL     1       7.361   5.430  14.777  0.00  0.00    +0.000 NA
ATOM     31  N   UNL     1       6.262   4.846  15.325  0.00  0.00    +0.000 N 
ATOM     32  C   UNL     1       5.675   3.968  14.441  0.00  0.00    +0.000 A 
ENDBRANCH  21  31
ENDBRANCH  20  25
BRANCH  20  33
ATOM     33  C   UNL     1       2.064   3.789  17.711  0.00  0.00    +0.000 C 
BRANCH  33  34
ATOM     34  C   UNL     1       1.511   2.498  18.277  0.00  0.00    +0.000 C 
ATOM     35  O   UNL     1       0.337   2.321  18.551  0.00  0.00    +0.000 OA
BRANCH  34  36
ATOM     36  O   UNL     1       2.454   1.549  18.462  0.00  0.00    +0.000 OA
ATOM     37  H   UNL     1       3.086   1.480  17.713  0.00  0.00    +0.000 HD
ENDBRANCH  34  36
ENDBRANCH  33  34
ENDBRANCH  20  33
ENDBRANCH   1  20
TORSDOF 10
ENDMDL
MODEL 8
REMARK VINA RESULT:      -7.8      2.045      3.076
REMARK  Name = 
REMARK  11 active torsions:
REMARK  status: ('A' for Active; 'I' for Inactive)
REMARK    1  A    between atoms: C_1  and  C_2
REMARK    2  A    between atoms: N_5  and  C_6
REMARK    3  A    between atoms: C_10  and  C_11
REMARK    4  A    between atoms: C_11  and  C_12
REMARK    5  A    between atoms: C_11  and  C_16
REMARK    6  A    between atoms: C_12  and  C_13
REMARK    7  A    between atoms: C_13  and  O_15
REMARK    8  A    between atoms: C_16  and  N_17
REMARK    9  A    between atoms: C_20  and  C_21
REMARK   10  A    between atoms: C_21  and  C_22
REMARK   11  A    between atoms: C_22  and  C_23
REMARK                            x       y       z     vdW  Elec       q    Type
REMARK                         _______ _______ _______ _____ _____    ______ ____
ROOT
ATOM      1  C   UNL     1       1.656   6.423  18.779  0.00  0.00    +0.000 C 
ENDROOT
BRANCH   1   2
ATOM      2  N   UNL     1       2.388   7.682  19.091  0.00  0.00    +0.000 NA
ATOM      3  C   UNL     1       1.941   8.202  20.411  0.00  0.00    +0.000 C 
ATOM      4  C   UNL     1       0.597   8.866  20.135  0.00  0.00    +0.000 C 
ATOM      5  C   UNL     1       0.801   9.517  18.763  0.00  0.00    +0.000 C 
ATOM      6  C   UNL     1       2.058   8.819  18.202  0.00  0.00    +0.000 C 
BRANCH   5   7
ATOM      7  C   UNL     1       0.976  11.045  18.887  0.00  0.00    +0.000 C 
BRANCH   7   8
ATOM      8  C   UNL     1       1.082  11.520  20.344  0.00  0.00    +0.000 C 
BRANCH   8   9
ATOM      9  C   UNL     1      -0.182  12.205  20.809  0.00  0.00    +0.000 A 
ATOM     10  C   UNL     1      -1.315  12.207  20.005  0.00  0.00    +0.000 A 
ATOM     11  C   UNL     1      -2.451  12.865  20.462  0.00  0.00    +0.000 A 
ATOM     12  C   UNL     1      -2.437  13.476  21.710  0.00  0.00    +0.000 A 
ATOM     13  C   UNL     1      -1.262  13.414  22.471  0.00  0.00    +0.000 A 
ATOM     14  N   UNL     1      -0.150  12.791  22.042  0.00  0.00    +0.000 NA
ATOM     15  N   UNL     1      -1.204  13.964  23.744  0.00  0.00    +0.000 N 
ATOM     16  C   UNL     1      -2.113  15.055  24.012  0.00  0.00    +0.000 C 
ATOM     17  C   UNL     1      -3.536  14.616  23.670  0.00  0.00    +0.000 C 
ATOM     18  C   UNL     1      -3.613  14.283  22.186  0.00  0.00    +0.000 C 
ATOM     19  H   UNL     1      -0.240  14.041  24.052  0.00  0.00    +0.000 HD
ENDBRANCH   8   9
ENDBRANCH   7   8
ENDBRANCH   5   7
ENDBRANCH   1   2
BRANCH   1  20
ATOM     20  C   UNL     1       2.483   5.102  18.728  0.00  0.00    +0.000 C 
BRANCH  20  25
ATOM     21  C   UNL     1       5.762   5.209  16.738  0.00  0.00    +0.000 A 
ATOM     22  C   UNL     1       6.721   5.167  17.752  0.00  0.00    +0.000 A 
ATOM     23  C   UNL     1       6.316   5.209  19.081  0.00  0.00    +0.000 A 
ATOM     24  C   UNL     1       4.950   5.233  19.397  0.00  0.00    +0.000 A 
ATOM     25  C   UNL     1       3.970   5.301  18.387  0.00  0.00    +0.000 A 
ATOM     26  C   UNL     1       4.404   5.376  17.058  0.00  0.00    +0.000 A 
BRANCH  21  31
ATOM     27  C   UNL     1       6.052   3.250  12.149  0.00  0.00    +0.000 C 
ATOM     28  C   UNL     1       6.324   4.009  13.385  0.00  0.00    +0.000 A 
ATOM     29  C   UNL     1       7.406   4.856  13.684  0.00  0.00    +0.000 A 
ATOM     30  N   UNL     1       7.276   5.460  14.865  0.00  0.00    +0.000 NA
ATOM     31  N   UNL     1       6.147   4.924  15.401  0.00  0.00    +0.000 N 
ATOM     32  C   UNL     1       5.552   4.046  14.523  0.00  0.00    +0.000 A 
ENDBRANCH  21  31
ENDBRANCH  20  25
BRANCH  20  33
ATOM     33  C   UNL     1       1.860   4.057  17.777  0.00  0.00    +0.000 C 
BRANCH  33  34
ATOM     34  C   UNL     1       1.478   2.750  18.440  0.00  0.00    +0.000 C 
ATOM     35  O   UNL     1       0.348   2.292  18.443  0.00  0.00    +0.000 OA
BRANCH  34  36
ATOM     36  O   UNL     1       2.517   2.134  19.044  0.00  0.00    +0.000 OA
ATOM     37  H   UNL     1       2.774   1.292  18.610  0.00  0.00    +0.000 HD
ENDBRANCH  34  36
ENDBRANCH  33  34
ENDBRANCH  20  33
ENDBRANCH   1  20
TORSDOF 10
ENDMDL
MODEL 9
REMARK VINA RESULT:      -7.7      1.632      2.076
REMARK  Name = 
REMARK  11 active torsions:
REMARK  status: ('A' for Active; 'I' for Inactive)
REMARK    1  A    between atoms: C_1  and  C_2
REMARK    2  A    between atoms: N_5  and  C_6
REMARK    3  A    between atoms: C_10  and  C_11
REMARK    4  A    between atoms: C_11  and  C_12
REMARK    5  A    between atoms: C_11  and  C_16
REMARK    6  A    between atoms: C_12  and  C_13
REMARK    7  A    between atoms: C_13  and  O_15
REMARK    8  A    between atoms: C_16  and  N_17
REMARK    9  A    between atoms: C_20  and  C_21
REMARK   10  A    between atoms: C_21  and  C_22
REMARK   11  A    between atoms: C_22  and  C_23
REMARK                            x       y       z     vdW  Elec       q    Type
REMARK                         _______ _______ _______ _____ _____    ______ ____
ROOT
ATOM      1  C   UNL     1       3.523   5.669  19.464  0.00  0.00    +0.000 C 
ENDROOT
BRANCH   1   2
ATOM      2  N   UNL     1       2.051   5.889  19.405  0.00  0.00    +0.000 NA
ATOM      3  C   UNL     1       1.763   7.105  18.596  0.00  0.00    +0.000 C 
ATOM      4  C   UNL     1       2.060   8.274  19.528  0.00  0.00    +0.000 C 
ATOM      5  C   UNL     1       1.563   7.775  20.889  0.00  0.00    +0.000 C 
ATOM      6  C   UNL     1       1.432   6.249  20.701  0.00  0.00    +0.000 C 
BRANCH   5   7
ATOM      7  C   UNL     1       0.227   8.441  21.277  0.00  0.00    +0.000 C 
BRANCH   7   8
ATOM      8  C   UNL     1       0.405   9.633  22.229  0.00  0.00    +0.000 C 
BRANCH   8   9
ATOM      9  C   UNL     1       0.197  10.954  21.526  0.00  0.00    +0.000 A 
ATOM     10  C   UNL     1      -1.073  11.510  21.441  0.00  0.00    +0.000 A 
ATOM     11  C   UNL     1      -1.223  12.718  20.769  0.00  0.00    +0.000 A 
ATOM     12  C   UNL     1      -0.109  13.349  20.228  0.00  0.00    +0.000 A 
ATOM     13  C   UNL     1       1.142  12.734  20.373  0.00  0.00    +0.000 A 
ATOM     14  N   UNL     1       1.306  11.561  21.011  0.00  0.00    +0.000 NA
ATOM     15  N   UNL     1       2.296  13.339  19.896  0.00  0.00    +0.000 N 
ATOM     16  C   UNL     1       2.129  14.255  18.791  0.00  0.00    +0.000 C 
ATOM     17  C   UNL     1       1.076  15.299  19.160  0.00  0.00    +0.000 C 
ATOM     18  C   UNL     1      -0.255  14.600  19.408  0.00  0.00    +0.000 C 
ATOM     19  H   UNL     1       3.061  12.672  19.870  0.00  0.00    +0.000 HD
ENDBRANCH   8   9
ENDBRANCH   7   8
ENDBRANCH   5   7
ENDBRANCH   1   2
BRANCH   1  20
ATOM     20  C   UNL     1       4.088   4.389  18.775  0.00  0.00    +0.000 C 
BRANCH  20  25
ATOM     21  C   UNL     1       6.247   4.587  15.609  0.00  0.00    +0.000 A 
ATOM     22  C   UNL     1       7.538   4.630  16.138  0.00  0.00    +0.000 A 
ATOM     23  C   UNL     1       7.714   4.700  17.516  0.00  0.00    +0.000 A 
ATOM     24  C   UNL     1       6.599   4.668  18.366  0.00  0.00    +0.000 A 
ATOM     25  C   UNL     1       5.289   4.650  17.849  0.00  0.00    +0.000 A 
ATOM     26  C   UNL     1       5.133   4.698  16.458  0.00  0.00    +0.000 A 
BRANCH  21  31
ATOM     27  C   UNL     1       4.336   3.027  11.263  0.00  0.00    +0.000 C 
ATOM     28  C   UNL     1       5.247   3.517  12.314  0.00  0.00    +0.000 A 
ATOM     29  C   UNL     1       6.614   3.835  12.225  0.00  0.00    +0.000 A 
ATOM     30  N   UNL     1       7.098   4.350  13.355  0.00  0.00    +0.000 NA
ATOM     31  N   UNL     1       6.066   4.273  14.236  0.00  0.00    +0.000 N 
ATOM     32  C   UNL     1       4.934   3.775  13.629  0.00  0.00    +0.000 A 
ENDBRANCH  21  31
ENDBRANCH  20  25
BRANCH  20  33
ATOM     33  C   UNL     1       2.998   3.602  18.016  0.00  0.00    +0.000 C 
BRANCH  33  34
ATOM     34  C   UNL     1       2.846   2.159  18.448  0.00  0.00    +0.000 C 
ATOM     35  O   UNL     1       1.928   1.746  19.135  0.00  0.00    +0.000 OA
BRANCH  34  36
ATOM     36  O   UNL     1       3.842   1.361  18.005  0.00  0.00    +0.000 OA
ATOM     37  H   UNL     1       3.541   0.454  17.779  0.00  0.00    +0.000 HD
ENDBRANCH  34  36
ENDBRANCH  33  34
ENDBRANCH  20  33
ENDBRANCH   1  20
TORSDOF 10
ENDMDL
