MODEL 1
REMARK VINA RESULT:      -8.3      0.000      0.000
REMARK  Name = 
REMARK  6 active torsions:
REMARK  status: ('A' for Active; 'I' for Inactive)
REMARK    1  A    between atoms: C_1  and  O_2
REMARK    2  A    between atoms: O_2  and  C_3
REMARK    3  A    between atoms: C_5  and  N_6
REMARK    4  A    between atoms: N_6  and  S_7
REMARK    5  A    between atoms: S_7  and  C_10
REMARK    6  A    between atoms: C_14  and  N_15
REMARK                            x       y       z     vdW  Elec       q    Type
REMARK                         _______ _______ _______ _____ _____    ______ ____
ROOT
ATOM      1  N   UNL     1       4.404   4.926  16.410  0.00  0.00    +0.000 N 
ATOM      2  H   UNL     1       4.196   3.967  16.127  0.00  0.00    +0.000 HD
ENDROOT
BRANCH   1   5
ATOM      3  C   UNL     1       2.620   7.144  18.786  0.00  0.00    +0.000 A 
ATOM      4  C   UNL     1       3.328   6.688  17.679  0.00  0.00    +0.000 A 
ATOM      5  C   UNL     1       3.714   5.346  17.600  0.00  0.00    +0.000 A 
ATOM      6  C   UNL     1       3.449   4.437  18.636  0.00  0.00    +0.000 A 
ATOM      7  N   UNL     1       3.844   3.144  18.537  0.00  0.00    +0.000 NA
ATOM      8  C   UNL     1       3.598   2.320  19.582  0.00  0.00    +0.000 A 
ATOM      9  C   UNL     1       2.953   2.713  20.738  0.00  0.00    +0.000 A 
ATOM     10  C   UNL     1       2.526   4.032  20.831  0.00  0.00    +0.000 A 
ATOM     11  C   UNL     1       2.769   4.919  19.773  0.00  0.00    +0.000 A 
ATOM     12  C   UNL     1       2.351   6.261  19.832  0.00  0.00    +0.000 A 
BRANCH   3  14
ATOM     13  C   UNL     1       1.572   9.039  17.812  0.00  0.00    +0.000 C 
ATOM     14  O   UNL     1       2.134   8.410  18.959  0.00  0.00    +0.000 OA
ENDBRANCH   3  14
ENDBRANCH   1   5
BRANCH   1  15
ATOM     15  S   UNL     1       6.058   5.250  16.282  0.00  0.00    +0.000 S 
ATOM     16  O   UNL     1       6.201   6.684  16.425  0.00  0.00    +0.000 OA
ATOM     17  O   UNL     1       6.789   4.341  17.139  0.00  0.00    +0.000 OA
BRANCH  15  18
ATOM     18  C   UNL     1       6.481   4.856  14.597  0.00  0.00    +0.000 A 
ATOM     19  C   UNL     1       7.614   5.439  14.012  0.00  0.00    +0.000 A 
ATOM     20  C   UNL     1       7.949   5.136  12.690  0.00  0.00    +0.000 A 
ATOM     21  C   UNL     1       7.163   4.248  11.956  0.00  0.00    +0.000 A 
ATOM     22  C   UNL     1       6.047   3.646  12.558  0.00  0.00    +0.000 A 
ATOM     23  C   UNL     1       5.709   3.928  13.888  0.00  0.00    +0.000 A 
BRANCH  22  24
ATOM     24  N   UNL     1       5.212   2.726  11.777  0.00  0.00    +0.000 N 
ATOM     25  O   UNL     1       5.701   1.632  11.461  0.00  0.00    +0.000 OA
ATOM     26  O   UNL     1       4.072   3.100  11.469  0.00  0.00    +0.000 OA
ENDBRANCH  22  24
ENDBRANCH  15  18
ENDBRANCH   1  15
TORSDOF 5
ENDMDL
MODEL 2
REMARK VINA RESULT:      -8.2      1.329      3.076
REMARK  Name = 
REMARK  6 active torsions:
REMARK  status: ('A' for Active; 'I' for Inactive)
REMARK    1  A    between atoms: C_1  and  O_2
REMARK    2  A    between atoms: O_2  and  C_3
REMARK    3  A    between atoms: C_5  and  N_6
REMARK    4  A    between atoms: N_6  and  S_7
REMARK    5  A    between atoms: S_7  and  C_10
REMARK    6  A    between atoms: C_14  and  N_15
REMARK                            x       y       z     vdW  Elec       q    Type
REMARK                         _______ _______ _______ _____ _____    ______ ____
ROOT
ATOM      1  N   UNL     1       4.458   4.886  16.389  0.00  0.00    +0.000 N 
ATOM      2  H   UNL     1       4.206   4.054  15.855  0.00  0.00    +0.000 HD
ENDROOT
BRANCH   1   5
ATOM      3  C   UNL     1       3.370   3.785  19.758  0.00  0.00    +0.000 A 
ATOM      4  C   UNL     1       3.895   3.780  18.471  0.00  0.00    +0.000 A 
ATOM      5  C   UNL     1       3.859   4.944  17.696  0.00  0.00    +0.000 A 
ATOM      6  C   UNL     1       3.260   6.125  18.161  0.00  0.00    +0.000 A 
ATOM      7  N   UNL     1       3.230   7.235  17.383  0.00  0.00    +0.000 NA
ATOM      8  C   UNL     1       2.605   8.335  17.866  0.00  0.00    +0.000 A 
ATOM      9  C   UNL     1       2.010   8.400  19.110  0.00  0.00    +0.000 A 
ATOM     10  C   UNL     1       2.062   7.269  19.918  0.00  0.00    +0.000 A 
ATOM     11  C   UNL     1       2.693   6.108  19.451  0.00  0.00    +0.000 A 
ATOM     12  C   UNL     1       2.763   4.946  20.240  0.00  0.00    +0.000 A 
BRANCH   3  14
ATOM     13  C   UNL     1       2.354   2.699  21.609  0.00  0.00    +0.000 C 
ATOM     14  O   UNL     1       3.395   2.739  20.637  0.00  0.00    +0.000 OA
ENDBRANCH   3  14
ENDBRANCH   1   5
BRANCH   1  15
ATOM     15  S   UNL     1       6.107   5.225  16.243  0.00  0.00    +0.000 S 
ATOM     16  O   UNL     1       6.240   6.659  16.388  0.00  0.00    +0.000 OA
ATOM     17  O   UNL     1       6.855   4.320  17.090  0.00  0.00    +0.000 OA
BRANCH  15  18
ATOM     18  C   UNL     1       6.515   4.837  14.553  0.00  0.00    +0.000 A 
ATOM     19  C   UNL     1       7.640   5.426  13.959  0.00  0.00    +0.000 A 
ATOM     20  C   UNL     1       7.963   5.127  12.633  0.00  0.00    +0.000 A 
ATOM     21  C   UNL     1       7.173   4.240  11.903  0.00  0.00    +0.000 A 
ATOM     22  C   UNL     1       6.064   3.632  12.515  0.00  0.00    +0.000 A 
ATOM     23  C   UNL     1       5.739   3.909  13.849  0.00  0.00    +0.000 A 
BRANCH  22  24
ATOM     24  N   UNL     1       5.225   2.712  11.739  0.00  0.00    +0.000 N 
ATOM     25  O   UNL     1       4.084   3.088  11.436  0.00  0.00    +0.000 OA
ATOM     26  O   UNL     1       5.702   1.607  11.441  0.00  0.00    +0.000 OA
ENDBRANCH  22  24
ENDBRANCH  15  18
ENDBRANCH   1  15
TORSDOF 5
ENDMDL
MODEL 3
REMARK VINA RESULT:      -7.9      0.788      1.011
REMARK  Name = 
REMARK  6 active torsions:
REMARK  status: ('A' for Active; 'I' for Inactive)
REMARK    1  A    between atoms: C_1  and  O_2
REMARK    2  A    between atoms: O_2  and  C_3
REMARK    3  A    between atoms: C_5  and  N_6
REMARK    4  A    between atoms: N_6  and  S_7
REMARK    5  A    between atoms: S_7  and  C_10
REMARK    6  A    between atoms: C_14  and  N_15
REMARK                            x       y       z     vdW  Elec       q    Type
REMARK                         _______ _______ _______ _____ _____    ______ ____
ROOT
ATOM      1  N   UNL     1       5.112   4.195  16.549  0.00  0.00    +0.000 N 
ATOM      2  H   UNL     1       5.356   3.245  16.830  0.00  0.00    +0.000 HD
ENDROOT
BRANCH   1   5
ATOM      3  C   UNL     1       3.148   6.880  18.188  0.00  0.00    +0.000 A 
ATOM      4  C   UNL     1       4.099   6.218  17.420  0.00  0.00    +0.000 A 
ATOM      5  C   UNL     1       4.132   4.820  17.399  0.00  0.00    +0.000 A 
ATOM      6  C   UNL     1       3.255   4.046  18.174  0.00  0.00    +0.000 A 
ATOM      7  N   UNL     1       3.317   2.692  18.142  0.00  0.00    +0.000 NA
ATOM      8  C   UNL     1       2.474   1.996  18.939  0.00  0.00    +0.000 A 
ATOM      9  C   UNL     1       1.542   2.582  19.773  0.00  0.00    +0.000 A 
ATOM     10  C   UNL     1       1.461   3.969  19.789  0.00  0.00    +0.000 A 
ATOM     11  C   UNL     1       2.323   4.727  18.983  0.00  0.00    +0.000 A 
ATOM     12  C   UNL     1       2.270   6.132  18.974  0.00  0.00    +0.000 A 
BRANCH   3  14
ATOM     13  C   UNL     1       1.751   8.740  17.717  0.00  0.00    +0.000 C 
ATOM     14  O   UNL     1       2.970   8.233  18.252  0.00  0.00    +0.000 OA
ENDBRANCH   3  14
ENDBRANCH   1   5
BRANCH   1  15
ATOM     15  S   UNL     1       6.490   5.076  16.126  0.00  0.00    +0.000 S 
ATOM     16  O   UNL     1       6.129   6.474  16.245  0.00  0.00    +0.000 OA
ATOM     17  O   UNL     1       7.633   4.541  16.835  0.00  0.00    +0.000 OA
BRANCH  15  18
ATOM     18  C   UNL     1       6.736   4.753  14.392  0.00  0.00    +0.000 A 
ATOM     19  C   UNL     1       7.759   5.418  13.701  0.00  0.00    +0.000 A 
ATOM     20  C   UNL     1       7.955   5.170  12.340  0.00  0.00    +0.000 A 
ATOM     21  C   UNL     1       7.139   4.257  11.671  0.00  0.00    +0.000 A 
ATOM     22  C   UNL     1       6.135   3.575  12.377  0.00  0.00    +0.000 A 
ATOM     23  C   UNL     1       5.940   3.800  13.745  0.00  0.00    +0.000 A 
BRANCH  22  24
ATOM     24  N   UNL     1       5.268   2.628  11.666  0.00  0.00    +0.000 N 
ATOM     25  O   UNL     1       4.127   3.007  11.363  0.00  0.00    +0.000 OA
ATOM     26  O   UNL     1       5.722   1.502  11.421  0.00  0.00    +0.000 OA
ENDBRANCH  22  24
ENDBRANCH  15  18
ENDBRANCH   1  15
TORSDOF 5
ENDMDL
MODEL 4
REMARK VINA RESULT:      -7.8      2.739      6.680
REMARK  Name = 
REMARK  6 active torsions:
REMARK  status: ('A' for Active; 'I' for Inactive)
REMARK    1  A    between atoms: C_1  and  O_2
REMARK    2  A    between atoms: O_2  and  C_3
REMARK    3  A    between atoms: C_5  and  N_6
REMARK    4  A    between atoms: N_6  and  S_7
REMARK    5  A    between atoms: S_7  and  C_10
REMARK    6  A    between atoms: C_14  and  N_15
REMARK                            x       y       z     vdW  Elec       q    Type
REMARK                         _______ _______ _______ _____ _____    ______ ____
ROOT
ATOM      1  N   UNL     1       4.363   2.768  17.923  0.00  0.00    +0.000 N 
ATOM      2  H   UNL     1       4.611   1.788  17.777  0.00  0.00    +0.000 HD
ENDROOT
BRANCH   1   5
ATOM      3  C   UNL     1       5.677   4.512  14.927  0.00  0.00    +0.000 A 
ATOM      4  C   UNL     1       4.990   3.620  15.743  0.00  0.00    +0.000 A 
ATOM      5  C   UNL     1       5.135   3.689  17.132  0.00  0.00    +0.000 A 
ATOM      6  C   UNL     1       6.000   4.611  17.742  0.00  0.00    +0.000 A 
ATOM      7  N   UNL     1       6.129   4.647  19.091  0.00  0.00    +0.000 NA
ATOM      8  C   UNL     1       7.007   5.529  19.624  0.00  0.00    +0.000 A 
ATOM      9  C   UNL     1       7.768   6.406  18.877  0.00  0.00    +0.000 A 
ATOM     10  C   UNL     1       7.618   6.386  17.495  0.00  0.00    +0.000 A 
ATOM     11  C   UNL     1       6.725   5.482  16.904  0.00  0.00    +0.000 A 
ATOM     12  C   UNL     1       6.549   5.433  15.510  0.00  0.00    +0.000 A 
BRANCH   3  14
ATOM     13  C   UNL     1       6.173   3.531  12.822  0.00  0.00    +0.000 C 
ATOM     14  O   UNL     1       5.579   4.591  13.566  0.00  0.00    +0.000 OA
ENDBRANCH   3  14
ENDBRANCH   1   5
BRANCH   1  15
ATOM     15  S   UNL     1       2.686   2.967  17.984  0.00  0.00    +0.000 S 
ATOM     16  O   UNL     1       2.255   3.179  16.618  0.00  0.00    +0.000 OA
ATOM     17  O   UNL     1       2.110   1.912  18.790  0.00  0.00    +0.000 OA
BRANCH  15  18
ATOM     18  C   UNL     1       2.430   4.503  18.849  0.00  0.00    +0.000 A 
ATOM     19  C   UNL     1       2.184   4.489  20.229  0.00  0.00    +0.000 A 
ATOM     20  C   UNL     1       1.980   5.690  20.912  0.00  0.00    +0.000 A 
ATOM     21  C   UNL     1       2.028   6.903  20.224  0.00  0.00    +0.000 A 
ATOM     22  C   UNL     1       2.303   6.910  18.848  0.00  0.00    +0.000 A 
ATOM     23  C   UNL     1       2.527   5.714  18.154  0.00  0.00    +0.000 A 
BRANCH  22  24
ATOM     24  N   UNL     1       2.335   8.186  18.124  0.00  0.00    +0.000 N 
ATOM     25  O   UNL     1       1.661   9.123  18.576  0.00  0.00    +0.000 OA
ATOM     26  O   UNL     1       3.026   8.250  17.097  0.00  0.00    +0.000 OA
ENDBRANCH  22  24
ENDBRANCH  15  18
ENDBRANCH   1  15
TORSDOF 5
ENDMDL
MODEL 5
REMARK VINA RESULT:      -7.7      1.932      2.477
REMARK  Name = 
REMARK  6 active torsions:
REMARK  status: ('A' for Active; 'I' for Inactive)
REMARK    1  A    between atoms: C_1  and  O_2
REMARK    2  A    between atoms: O_2  and  C_3
REMARK    3  A    between atoms: C_5  and  N_6
REMARK    4  A    between atoms: N_6  and  S_7
REMARK    5  A    between atoms: S_7  and  C_10
REMARK    6  A    between atoms: C_14  and  N_15
REMARK                            x       y       z     vdW  Elec       q    Type
REMARK                         _______ _______ _______ _____ _____    ______ ____
ROOT
ATOM      1  N   UNL     1       5.877   4.416  19.076  0.00  0.00    +0.000 N 
ATOM      2  H   UNL     1       6.221   4.225  20.018  0.00  0.00    +0.000 HD
ENDROOT
BRANCH   1   5
ATOM      3  C   UNL     1       3.201   6.852  18.269  0.00  0.00    +0.000 A 
ATOM      4  C   UNL     1       4.445   6.240  18.371  0.00  0.00    +0.000 A 
ATOM      5  C   UNL     1       4.572   5.020  19.043  0.00  0.00    +0.000 A 
ATOM      6  C   UNL     1       3.478   4.402  19.669  0.00  0.00    +0.000 A 
ATOM      7  N   UNL     1       3.632   3.225  20.322  0.00  0.00    +0.000 NA
ATOM      8  C   UNL     1       2.553   2.693  20.942  0.00  0.00    +0.000 A 
ATOM      9  C   UNL     1       1.298   3.270  20.935  0.00  0.00    +0.000 A 
ATOM     10  C   UNL     1       1.133   4.465  20.244  0.00  0.00    +0.000 A 
ATOM     11  C   UNL     1       2.229   5.052  19.597  0.00  0.00    +0.000 A 
ATOM     12  C   UNL     1       2.100   6.260  18.889  0.00  0.00    +0.000 A 
BRANCH   3  14
ATOM     13  C   UNL     1       1.950   8.868  18.168  0.00  0.00    +0.000 C 
ATOM     14  O   UNL     1       2.930   8.009  17.593  0.00  0.00    +0.000 OA
ENDBRANCH   3  14
ENDBRANCH   1   5
BRANCH   1  15
ATOM     15  S   UNL     1       7.095   5.078  18.109  0.00  0.00    +0.000 S 
ATOM     16  O   UNL     1       6.958   6.516  18.214  0.00  0.00    +0.000 OA
ATOM     17  O   UNL     1       8.351   4.427  18.414  0.00  0.00    +0.000 OA
BRANCH  15  18
ATOM     18  C   UNL     1       6.655   4.639  16.439  0.00  0.00    +0.000 A 
ATOM     19  C   UNL     1       5.533   3.831  16.208  0.00  0.00    +0.000 A 
ATOM     20  C   UNL     1       5.185   3.481  14.901  0.00  0.00    +0.000 A 
ATOM     21  C   UNL     1       5.948   3.941  13.827  0.00  0.00    +0.000 A 
ATOM     22  C   UNL     1       7.053   4.773  14.066  0.00  0.00    +0.000 A 
ATOM     23  C   UNL     1       7.403   5.146  15.370  0.00  0.00    +0.000 A 
BRANCH  22  24
ATOM     24  N   UNL     1       7.863   5.241  12.935  0.00  0.00    +0.000 N 
ATOM     25  O   UNL     1       7.584   4.809  11.808  0.00  0.00    +0.000 OA
ATOM     26  O   UNL     1       8.787   6.031  13.175  0.00  0.00    +0.000 OA
ENDBRANCH  22  24
ENDBRANCH  15  18
ENDBRANCH   1  15
TORSDOF 5
ENDMDL
MODEL 6
REMARK VINA RESULT:      -7.6      2.812      4.733
REMARK  Name = 
REMARK  6 active torsions:
REMARK  status: ('A' for Active; 'I' for Inactive)
REMARK    1  A    between atoms: C_1  and  O_2
REMARK    2  A    between atoms: O_2  and  C_3
REMARK    3  A    between atoms: C_5  and  N_6
REMARK    4  A    between atoms: N_6  and  S_7
REMARK    5  A    between atoms: S_7  and  C_10
REMARK    6  A    between atoms: C_14  and  N_15
REMARK                            x       y       z     vdW  Elec       q    Type
REMARK                         _______ _______ _______ _____ _____    ______ ____
ROOT
ATOM      1  N   UNL     1       4.433   4.643  16.614  0.00  0.00    +0.000 N 
ATOM      2  H   UNL     1       4.803   3.700  16.742  0.00  0.00    +0.000 HD
ENDROOT
BRANCH   1   5
ATOM      3  C   UNL     1       2.606   7.032  18.782  0.00  0.00    +0.000 A 
ATOM      4  C   UNL     1       3.334   6.495  17.726  0.00  0.00    +0.000 A 
ATOM      5  C   UNL     1       3.721   5.151  17.756  0.00  0.00    +0.000 A 
ATOM      6  C   UNL     1       3.437   4.322  18.853  0.00  0.00    +0.000 A 
ATOM      7  N   UNL     1       3.834   3.026  18.858  0.00  0.00    +0.000 NA
ATOM      8  C   UNL     1       3.568   2.283  19.958  0.00  0.00    +0.000 A 
ATOM      9  C   UNL     1       2.902   2.761  21.069  0.00  0.00    +0.000 A 
ATOM     10  C   UNL     1       2.473   4.083  21.054  0.00  0.00    +0.000 A 
ATOM     11  C   UNL     1       2.736   4.888  19.937  0.00  0.00    +0.000 A 
ATOM     12  C   UNL     1       2.318   6.230  19.887  0.00  0.00    +0.000 A 
BRANCH   3  14
ATOM     13  C   UNL     1       2.158   9.070  17.649  0.00  0.00    +0.000 C 
ATOM     14  O   UNL     1       2.118   8.307  18.851  0.00  0.00    +0.000 OA
ENDBRANCH   3  14
ENDBRANCH   1   5
BRANCH   1  15
ATOM     15  S   UNL     1       5.570   5.644  15.864  0.00  0.00    +0.000 S 
ATOM     16  O   UNL     1       6.326   4.795  14.966  0.00  0.00    +0.000 OA
ATOM     17  O   UNL     1       4.908   6.836  15.378  0.00  0.00    +0.000 OA
BRANCH  15  18
ATOM     18  C   UNL     1       6.683   6.140  17.163  0.00  0.00    +0.000 A 
ATOM     19  C   UNL     1       7.131   5.192  18.093  0.00  0.00    +0.000 A 
ATOM     20  C   UNL     1       8.002   5.576  19.115  0.00  0.00    +0.000 A 
ATOM     21  C   UNL     1       8.432   6.900  19.207  0.00  0.00    +0.000 A 
ATOM     22  C   UNL     1       8.001   7.838  18.255  0.00  0.00    +0.000 A 
ATOM     23  C   UNL     1       7.142   7.462  17.215  0.00  0.00    +0.000 A 
BRANCH  22  24
ATOM     24  N   UNL     1       8.441   9.233  18.365  0.00  0.00    +0.000 N 
ATOM     25  O   UNL     1       9.241   9.516  19.269  0.00  0.00    +0.000 OA
ATOM     26  O   UNL     1       7.979  10.050  17.555  0.00  0.00    +0.000 OA
ENDBRANCH  22  24
ENDBRANCH  15  18
ENDBRANCH   1  15
TORSDOF 5
ENDMDL
MODEL 7
REMARK VINA RESULT:      -7.3      2.032      2.586
REMARK  Name = 
REMARK  6 active torsions:
REMARK  status: ('A' for Active; 'I' for Inactive)
REMARK    1  A    between atoms: C_1  and  O_2
REMARK    2  A    between atoms: O_2  and  C_3
REMARK    3  A    between atoms: C_5  and  N_6
REMARK    4  A    between atoms: N_6  and  S_7
REMARK    5  A    between atoms: S_7  and  C_10
REMARK    6  A    between atoms: C_14  and  N_15
REMARK                            x       y       z     vdW  Elec       q    Type
REMARK                         _______ _______ _______ _____ _____    ______ ____
ROOT
ATOM      1  N   UNL     1       6.005   4.964  19.292  0.00  0.00    +0.000 N 
ATOM      2  H   UNL     1       6.187   5.291  20.241  0.00  0.00    +0.000 HD
ENDROOT
BRANCH   1   5
ATOM      3  C   UNL     1       3.126   6.855  17.919  0.00  0.00    +0.000 A 
ATOM      4  C   UNL     1       4.386   6.541  18.418  0.00  0.00    +0.000 A 
ATOM      5  C   UNL     1       4.670   5.234  18.827  0.00  0.00    +0.000 A 
ATOM      6  C   UNL     1       3.700   4.220  18.797  0.00  0.00    +0.000 A 
ATOM      7  N   UNL     1       4.002   2.965  19.211  0.00  0.00    +0.000 NA
ATOM      8  C   UNL     1       3.018   2.036  19.197  0.00  0.00    +0.000 A 
ATOM      9  C   UNL     1       1.728   2.285  18.772  0.00  0.00    +0.000 A 
ATOM     10  C   UNL     1       1.424   3.566  18.325  0.00  0.00    +0.000 A 
ATOM     11  C   UNL     1       2.414   4.558  18.331  0.00  0.00    +0.000 A 
ATOM     12  C   UNL     1       2.143   5.865  17.886  0.00  0.00    +0.000 A 
BRANCH   3  14
ATOM     13  C   UNL     1       2.203   8.994  18.377  0.00  0.00    +0.000 C 
ATOM     14  O   UNL     1       2.737   8.071  17.433  0.00  0.00    +0.000 OA
ENDBRANCH   3  14
ENDBRANCH   1   5
BRANCH   1  15
ATOM     15  S   UNL     1       7.302   5.320  18.268  0.00  0.00    +0.000 S 
ATOM     16  O   UNL     1       7.373   6.765  18.194  0.00  0.00    +0.000 OA
ATOM     17  O   UNL     1       8.453   4.539  18.668  0.00  0.00    +0.000 OA
BRANCH  15  18
ATOM     18  C   UNL     1       6.797   4.746  16.659  0.00  0.00    +0.000 A 
ATOM     19  C   UNL     1       5.708   3.870  16.545  0.00  0.00    +0.000 A 
ATOM     20  C   UNL     1       5.309   3.415  15.287  0.00  0.00    +0.000 A 
ATOM     21  C   UNL     1       5.989   3.836  14.143  0.00  0.00    +0.000 A 
ATOM     22  C   UNL     1       7.060   4.735  14.263  0.00  0.00    +0.000 A 
ATOM     23  C   UNL     1       7.459   5.214  15.518  0.00  0.00    +0.000 A 
BRANCH  22  24
ATOM     24  N   UNL     1       7.783   5.163  13.060  0.00  0.00    +0.000 N 
ATOM     25  O   UNL     1       8.685   6.002  13.197  0.00  0.00    +0.000 OA
ATOM     26  O   UNL     1       7.442   4.669  11.976  0.00  0.00    +0.000 OA
ENDBRANCH  22  24
ENDBRANCH  15  18
ENDBRANCH   1  15
TORSDOF 5
ENDMDL
MODEL 8
REMARK VINA RESULT:      -7.2      4.281      8.589
REMARK  Name = 
REMARK  6 active torsions:
REMARK  status: ('A' for Active; 'I' for Inactive)
REMARK    1  A    between atoms: C_1  and  O_2
REMARK    2  A    between atoms: O_2  and  C_3
REMARK    3  A    between atoms: C_5  and  N_6
REMARK    4  A    between atoms: N_6  and  S_7
REMARK    5  A    between atoms: S_7  and  C_10
REMARK    6  A    between atoms: C_14  and  N_15
REMARK                            x       y       z     vdW  Elec       q    Type
REMARK                         _______ _______ _______ _____ _____    ______ ____
ROOT
ATOM      1  N   UNL     1       2.595   8.092  19.249  0.00  0.00    +0.000 N 
ATOM      2  H   UNL     1       2.497   8.428  20.208  0.00  0.00    +0.000 HD
ENDROOT
BRANCH   1   5
ATOM      3  C   UNL     1       1.715   4.554  19.925  0.00  0.00    +0.000 A 
ATOM      4  C   UNL     1       1.788   5.940  20.017  0.00  0.00    +0.000 A 
ATOM      5  C   UNL     1       2.596   6.658  19.130  0.00  0.00    +0.000 A 
ATOM      6  C   UNL     1       3.386   6.018  18.162  0.00  0.00    +0.000 A 
ATOM      7  N   UNL     1       4.168   6.740  17.322  0.00  0.00    +0.000 NA
ATOM      8  C   UNL     1       4.938   6.069  16.434  0.00  0.00    +0.000 A 
ATOM      9  C   UNL     1       4.964   4.693  16.321  0.00  0.00    +0.000 A 
ATOM     10  C   UNL     1       4.145   3.953  17.165  0.00  0.00    +0.000 A 
ATOM     11  C   UNL     1       3.338   4.610  18.104  0.00  0.00    +0.000 A 
ATOM     12  C   UNL     1       2.497   3.895  18.975  0.00  0.00    +0.000 A 
BRANCH   3  14
ATOM     13  C   UNL     1       1.593   2.804  21.524  0.00  0.00    +0.000 C 
ATOM     14  O   UNL     1       0.924   3.742  20.686  0.00  0.00    +0.000 OA
ENDBRANCH   3  14
ENDBRANCH   1   5
BRANCH   1  15
ATOM     15  S   UNL     1       1.627   8.987  18.191  0.00  0.00    +0.000 S 
ATOM     16  O   UNL     1       2.517   9.895  17.499  0.00  0.00    +0.000 OA
ATOM     17  O   UNL     1       0.766   8.085  17.456  0.00  0.00    +0.000 OA
BRANCH  15  18
ATOM     18  C   UNL     1       0.588   9.984  19.240  0.00  0.00    +0.000 A 
ATOM     19  C   UNL     1      -0.177  11.015  18.679  0.00  0.00    +0.000 A 
ATOM     20  C   UNL     1      -0.992  11.801  19.497  0.00  0.00    +0.000 A 
ATOM     21  C   UNL     1      -1.050  11.556  20.869  0.00  0.00    +0.000 A 
ATOM     22  C   UNL     1      -0.303  10.503  21.419  0.00  0.00    +0.000 A 
ATOM     23  C   UNL     1       0.504   9.695  20.608  0.00  0.00    +0.000 A 
BRANCH  22  24
ATOM     24  N   UNL     1      -0.353  10.258  22.865  0.00  0.00    +0.000 N 
ATOM     25  O   UNL     1       0.667   9.814  23.411  0.00  0.00    +0.000 OA
ATOM     26  O   UNL     1      -1.417  10.498  23.454  0.00  0.00    +0.000 OA
ENDBRANCH  22  24
ENDBRANCH  15  18
ENDBRANCH   1  15
TORSDOF 5
ENDMDL
MODEL 9
REMARK VINA RESULT:      -7.1      1.995      2.411
REMARK  Name = 
REMARK  6 active torsions:
REMARK  status: ('A' for Active; 'I' for Inactive)
REMARK    1  A    between atoms: C_1  and  O_2
REMARK    2  A    between atoms: O_2  and  C_3
REMARK    3  A    between atoms: C_5  and  N_6
REMARK    4  A    between atoms: N_6  and  S_7
REMARK    5  A    between atoms: S_7  and  C_10
REMARK    6  A    between atoms: C_14  and  N_15
REMARK                            x       y       z     vdW  Elec       q    Type
REMARK                         _______ _______ _______ _____ _____    ______ ____
ROOT
ATOM      1  N   UNL     1       3.819   5.162  17.151  0.00  0.00    +0.000 N 
ATOM      2  H   UNL     1       3.520   4.278  16.738  0.00  0.00    +0.000 HD
ENDROOT
BRANCH   1   5
ATOM      3  C   UNL     1       2.104   7.195  19.735  0.00  0.00    +0.000 A 
ATOM      4  C   UNL     1       2.792   6.825  18.584  0.00  0.00    +0.000 A 
ATOM      5  C   UNL     1       3.147   5.488  18.381  0.00  0.00    +0.000 A 
ATOM      6  C   UNL     1       2.871   4.495  19.334  0.00  0.00    +0.000 A 
ATOM      7  N   UNL     1       3.237   3.208  19.114  0.00  0.00    +0.000 NA
ATOM      8  C   UNL     1       2.981   2.299  20.084  0.00  0.00    +0.000 A 
ATOM      9  C   UNL     1       2.354   2.599  21.277  0.00  0.00    +0.000 A 
ATOM     10  C   UNL     1       1.957   3.914  21.492  0.00  0.00    +0.000 A 
ATOM     11  C   UNL     1       2.211   4.887  20.516  0.00  0.00    +0.000 A 
ATOM     12  C   UNL     1       1.825   6.227  20.700  0.00  0.00    +0.000 A 
BRANCH   3  14
ATOM     13  C   UNL     1       0.918   8.595  21.241  0.00  0.00    +0.000 C 
ATOM     14  O   UNL     1       1.648   8.450  20.027  0.00  0.00    +0.000 OA
ENDBRANCH   3  14
ENDBRANCH   1   5
BRANCH   1  15
ATOM     15  S   UNL     1       5.500   5.326  17.083  0.00  0.00    +0.000 S 
ATOM     16  O   UNL     1       5.773   6.743  17.208  0.00  0.00    +0.000 OA
ATOM     17  O   UNL     1       6.108   4.369  17.983  0.00  0.00    +0.000 OA
BRANCH  15  18
ATOM     18  C   UNL     1       5.947   4.860  15.423  0.00  0.00    +0.000 A 
ATOM     19  C   UNL     1       5.285   3.793  14.800  0.00  0.00    +0.000 A 
ATOM     20  C   UNL     1       5.633   3.421  13.499  0.00  0.00    +0.000 A 
ATOM     21  C   UNL     1       6.633   4.115  12.818  0.00  0.00    +0.000 A 
ATOM     22  C   UNL     1       7.272   5.201  13.438  0.00  0.00    +0.000 A 
ATOM     23  C   UNL     1       6.920   5.595  14.735  0.00  0.00    +0.000 A 
BRANCH  22  24
ATOM     24  N   UNL     1       8.335   5.918  12.725  0.00  0.00    +0.000 N 
ATOM     25  O   UNL     1       8.068   6.380  11.606  0.00  0.00    +0.000 OA
ATOM     26  O   UNL     1       9.441   6.009  13.276  0.00  0.00    +0.000 OA
ENDBRANCH  22  24
ENDBRANCH  15  18
ENDBRANCH   1  15
TORSDOF 5
ENDMDL
