MODEL 1
REMARK VINA RESULT:     -10.0      0.000      0.000
REMARK  Name = 
REMARK  5 active torsions:
REMARK  status: ('A' for Active; 'I' for Inactive)
REMARK    1  A    between atoms: N_12  and  C_13
REMARK    2  A    between atoms: C_13  and  C_14
REMARK    3  A    between atoms: C_14  and  C_15
REMARK    4  A    between atoms: C_15  and  C_16
REMARK    5  A    between atoms: C_16  and  N_17
REMARK                            x       y       z     vdW  Elec       q    Type
REMARK                         _______ _______ _______ _____ _____    ______ ____
ROOT
ATOM      1  C   UNL     1       8.530   8.567  18.415  0.00  0.00    +0.000 C 
ENDROOT
BRANCH   1   2
ATOM      2  C   UNL     1       7.364   8.010  17.564  0.00  0.00    +0.000 C 
BRANCH   2   3
ATOM      3  C   UNL     1       7.519   6.493  17.437  0.00  0.00    +0.000 C 
BRANCH   3  15
ATOM      4  O   UNL     1       5.696   5.982  15.456  0.00  0.00    +0.000 OA
ATOM      5  C   UNL     1       5.530   5.393  16.522  0.00  0.00    +0.000 C 
ATOM      6  C   UNL     1       4.605   4.216  16.526  0.00  0.00    +0.000 C 
ATOM      7  C   UNL     1       3.893   4.025  17.869  0.00  0.00    +0.000 C 
ATOM      8  C   UNL     1       3.156   2.654  17.850  0.00  0.00    +0.000 C 
ATOM      9  C   UNL     1       1.732   2.950  18.266  0.00  0.00    +0.000 C 
ATOM     10  C   UNL     1       1.503   4.304  17.605  0.00  0.00    +0.000 C 
ATOM     11  C   UNL     1       2.751   5.062  18.057  0.00  0.00    +0.000 C 
ATOM     12  C   UNL     1       4.942   4.071  19.012  0.00  0.00    +0.000 C 
ATOM     13  C   UNL     1       6.056   5.074  18.826  0.00  0.00    +0.000 C 
ATOM     14  O   UNL     1       6.806   5.260  19.774  0.00  0.00    +0.000 OA
ATOM     15  N   UNL     1       6.308   5.679  17.614  0.00  0.00    +0.000 N 
ENDBRANCH   3  15
ENDBRANCH   2   3
ENDBRANCH   1   2
BRANCH   1  16
ATOM     16  C   UNL     1       8.757  10.089  18.217  0.00  0.00    +0.000 C 
BRANCH  16  17
ATOM     17  N   UNL     1       9.715  10.674  19.201  0.00  0.00    +0.000 NA
ATOM     18  C   UNL     1      10.787  11.373  18.469  0.00  0.00    +0.000 C 
ATOM     19  C   UNL     1      11.914  11.845  19.359  0.00  0.00    +0.000 C 
ATOM     20  C   UNL     1      11.582  13.186  19.925  0.00  0.00    +0.000 A 
ATOM     21  C   UNL     1      12.333  14.272  19.453  0.00  0.00    +0.000 A 
ATOM     22  C   UNL     1      12.067  15.557  19.897  0.00  0.00    +0.000 A 
ATOM     23  C   UNL     1      11.068  15.770  20.832  0.00  0.00    +0.000 A 
ATOM     24  C   UNL     1      10.305  14.699  21.339  0.00  0.00    +0.000 A 
ATOM     25  C   UNL     1      10.537  13.381  20.865  0.00  0.00    +0.000 A 
ATOM     26  C   UNL     1       9.707  12.182  21.350  0.00  0.00    +0.000 C 
ATOM     27  C   UNL     1       8.606  12.565  22.399  0.00  0.00    +0.000 C 
ATOM     28  C   UNL     1       8.877  13.816  23.223  0.00  0.00    +0.000 C 
ATOM     29  C   UNL     1       9.242  15.018  22.352  0.00  0.00    +0.000 C 
ATOM     30  C   UNL     1       8.941  11.480  20.179  0.00  0.00    +0.000 C 
ENDBRANCH  16  17
ENDBRANCH   1  16
TORSDOF 5
ENDMDL
MODEL 2
REMARK VINA RESULT:      -9.5      0.509      1.710
REMARK  Name = 
REMARK  5 active torsions:
REMARK  status: ('A' for Active; 'I' for Inactive)
REMARK    1  A    between atoms: N_12  and  C_13
REMARK    2  A    between atoms: C_13  and  C_14
REMARK    3  A    between atoms: C_14  and  C_15
REMARK    4  A    between atoms: C_15  and  C_16
REMARK    5  A    between atoms: C_16  and  N_17
REMARK                            x       y       z     vdW  Elec       q    Type
REMARK                         _______ _______ _______ _____ _____    ______ ____
ROOT
ATOM      1  C   UNL     1       8.597   8.679  18.460  0.00  0.00    +0.000 C 
ENDROOT
BRANCH   1   2
ATOM      2  C   UNL     1       7.472   8.121  17.557  0.00  0.00    +0.000 C 
BRANCH   2   3
ATOM      3  C   UNL     1       7.529   6.591  17.575  0.00  0.00    +0.000 C 
BRANCH   3  15
ATOM      4  O   UNL     1       6.736   5.357  19.890  0.00  0.00    +0.000 OA
ATOM      5  C   UNL     1       5.912   5.399  18.978  0.00  0.00    +0.000 C 
ATOM      6  C   UNL     1       4.483   5.118  19.323  0.00  0.00    +0.000 C 
ATOM      7  C   UNL     1       3.709   4.474  18.167  0.00  0.00    +0.000 C 
ATOM      8  C   UNL     1       2.197   4.449  18.534  0.00  0.00    +0.000 C 
ATOM      9  C   UNL     1       1.747   3.021  18.319  0.00  0.00    +0.000 C 
ATOM     10  C   UNL     1       2.978   2.249  18.777  0.00  0.00    +0.000 C 
ATOM     11  C   UNL     1       4.081   2.974  18.004  0.00  0.00    +0.000 C 
ATOM     12  C   UNL     1       3.949   5.297  16.873  0.00  0.00    +0.000 C 
ATOM     13  C   UNL     1       5.349   5.840  16.703  0.00  0.00    +0.000 C 
ATOM     14  O   UNL     1       5.625   6.349  15.625  0.00  0.00    +0.000 OA
ATOM     15  N   UNL     1       6.256   5.876  17.740  0.00  0.00    +0.000 N 
ENDBRANCH   3  15
ENDBRANCH   2   3
ENDBRANCH   1   2
BRANCH   1  16
ATOM     16  C   UNL     1       8.934  10.164  18.168  0.00  0.00    +0.000 C 
BRANCH  16  17
ATOM     17  N   UNL     1       9.865  10.765  19.168  0.00  0.00    +0.000 NA
ATOM     18  C   UNL     1      10.909  11.525  18.456  0.00  0.00    +0.000 C 
ATOM     19  C   UNL     1      12.014  12.021  19.361  0.00  0.00    +0.000 C 
ATOM     20  C   UNL     1      11.625  13.333  19.957  0.00  0.00    +0.000 A 
ATOM     21  C   UNL     1      12.332  14.460  19.514  0.00  0.00    +0.000 A 
ATOM     22  C   UNL     1      12.013  15.722  19.987  0.00  0.00    +0.000 A 
ATOM     23  C   UNL     1      11.003  15.872  20.923  0.00  0.00    +0.000 A 
ATOM     24  C   UNL     1      10.284  14.759  21.403  0.00  0.00    +0.000 A 
ATOM     25  C   UNL     1      10.572  13.463  20.898  0.00  0.00    +0.000 A 
ATOM     26  C   UNL     1       9.790  12.219  21.352  0.00  0.00    +0.000 C 
ATOM     27  C   UNL     1       8.671  12.533  22.406  0.00  0.00    +0.000 C 
ATOM     28  C   UNL     1       8.889  13.774  23.260  0.00  0.00    +0.000 C 
ATOM     29  C   UNL     1       9.206  15.010  22.419  0.00  0.00    +0.000 C 
ATOM     30  C   UNL     1       9.057  11.515  20.162  0.00  0.00    +0.000 C 
ENDBRANCH  16  17
ENDBRANCH   1  16
TORSDOF 5
ENDMDL
MODEL 3
REMARK VINA RESULT:      -9.3      1.270      1.574
REMARK  Name = 
REMARK  5 active torsions:
REMARK  status: ('A' for Active; 'I' for Inactive)
REMARK    1  A    between atoms: N_12  and  C_13
REMARK    2  A    between atoms: C_13  and  C_14
REMARK    3  A    between atoms: C_14  and  C_15
REMARK    4  A    between atoms: C_15  and  C_16
REMARK    5  A    between atoms: C_16  and  N_17
REMARK                            x       y       z     vdW  Elec       q    Type
REMARK                         _______ _______ _______ _____ _____    ______ ____
ROOT
ATOM      1  C   UNL     1       8.835   9.247  18.017  0.00  0.00    +0.000 C 
ENDROOT
BRANCH   1   2
ATOM      2  C   UNL     1       7.481   8.538  17.774  0.00  0.00    +0.000 C 
BRANCH   2   3
ATOM      3  C   UNL     1       7.695   7.023  17.823  0.00  0.00    +0.000 C 
BRANCH   3  15
ATOM      4  O   UNL     1       5.824   6.841  15.830  0.00  0.00    +0.000 OA
ATOM      5  C   UNL     1       5.688   6.077  16.783  0.00  0.00    +0.000 C 
ATOM      6  C   UNL     1       4.770   4.908  16.609  0.00  0.00    +0.000 C 
ATOM      7  C   UNL     1       4.094   4.484  17.917  0.00  0.00    +0.000 C 
ATOM      8  C   UNL     1       3.363   3.130  17.683  0.00  0.00    +0.000 C 
ATOM      9  C   UNL     1       1.949   3.337  18.178  0.00  0.00    +0.000 C 
ATOM     10  C   UNL     1       1.697   4.781  17.764  0.00  0.00    +0.000 C 
ATOM     11  C   UNL     1       2.952   5.463  18.308  0.00  0.00    +0.000 C 
ATOM     12  C   UNL     1       5.172   4.344  19.025  0.00  0.00    +0.000 C 
ATOM     13  C   UNL     1       6.276   5.375  18.985  0.00  0.00    +0.000 C 
ATOM     14  O   UNL     1       7.050   5.404  19.933  0.00  0.00    +0.000 OA
ATOM     15  N   UNL     1       6.493   6.180  17.888  0.00  0.00    +0.000 N 
ENDBRANCH   3  15
ENDBRANCH   2   3
ENDBRANCH   1   2
BRANCH   1  16
ATOM     16  C   UNL     1       8.850  10.109  19.305  0.00  0.00    +0.000 C 
BRANCH  16  17
ATOM     17  N   UNL     1       9.969  11.097  19.341  0.00  0.00    +0.000 NA
ATOM     18  C   UNL     1      10.377  11.410  17.959  0.00  0.00    +0.000 C 
ATOM     19  C   UNL     1      11.627  12.256  17.878  0.00  0.00    +0.000 C 
ATOM     20  C   UNL     1      11.263  13.701  17.977  0.00  0.00    +0.000 A 
ATOM     21  C   UNL     1      11.418  14.470  16.815  0.00  0.00    +0.000 A 
ATOM     22  C   UNL     1      11.070  15.811  16.807  0.00  0.00    +0.000 A 
ATOM     23  C   UNL     1      10.587  16.404  17.961  0.00  0.00    +0.000 A 
ATOM     24  C   UNL     1      10.435  15.665  19.151  0.00  0.00    +0.000 A 
ATOM     25  C   UNL     1      10.749  14.280  19.166  0.00  0.00    +0.000 A 
ATOM     26  C   UNL     1      10.561  13.414  20.422  0.00  0.00    +0.000 C 
ATOM     27  C   UNL     1      10.000  14.210  21.652  0.00  0.00    +0.000 C 
ATOM     28  C   UNL     1      10.292  15.703  21.670  0.00  0.00    +0.000 C 
ATOM     29  C   UNL     1       9.906  16.387  20.358  0.00  0.00    +0.000 C 
ATOM     30  C   UNL     1       9.550  12.242  20.187  0.00  0.00    +0.000 C 
ENDBRANCH  16  17
ENDBRANCH   1  16
TORSDOF 5
ENDMDL
MODEL 4
REMARK VINA RESULT:      -9.2      1.003      2.105
REMARK  Name = 
REMARK  5 active torsions:
REMARK  status: ('A' for Active; 'I' for Inactive)
REMARK    1  A    between atoms: N_12  and  C_13
REMARK    2  A    between atoms: C_13  and  C_14
REMARK    3  A    between atoms: C_14  and  C_15
REMARK    4  A    between atoms: C_15  and  C_16
REMARK    5  A    between atoms: C_16  and  N_17
REMARK                            x       y       z     vdW  Elec       q    Type
REMARK                         _______ _______ _______ _____ _____    ______ ____
ROOT
ATOM      1  C   UNL     1       8.706   8.786  18.491  0.00  0.00    +0.000 C 
ENDROOT
BRANCH   1   2
ATOM      2  C   UNL     1       7.641   8.191  17.540  0.00  0.00    +0.000 C 
BRANCH   2   3
ATOM      3  C   UNL     1       7.665   6.664  17.656  0.00  0.00    +0.000 C 
BRANCH   3  15
ATOM      4  O   UNL     1       6.847   5.365  19.926  0.00  0.00    +0.000 OA
ATOM      5  C   UNL     1       6.020   5.470  19.023  0.00  0.00    +0.000 C 
ATOM      6  C   UNL     1       4.585   5.220  19.367  0.00  0.00    +0.000 C 
ATOM      7  C   UNL     1       3.783   4.648  18.193  0.00  0.00    +0.000 C 
ATOM      8  C   UNL     1       2.273   4.656  18.570  0.00  0.00    +0.000 C 
ATOM      9  C   UNL     1       1.777   3.253  18.302  0.00  0.00    +0.000 C 
ATOM     10  C   UNL     1       2.985   2.424  18.720  0.00  0.00    +0.000 C 
ATOM     11  C   UNL     1       4.105   3.144  17.968  0.00  0.00    +0.000 C 
ATOM     12  C   UNL     1       4.041   5.514  16.931  0.00  0.00    +0.000 C 
ATOM     13  C   UNL     1       5.456   6.018  16.772  0.00  0.00    +0.000 C 
ATOM     14  O   UNL     1       5.741   6.560  15.712  0.00  0.00    +0.000 OA
ATOM     15  N   UNL     1       6.371   5.984  17.802  0.00  0.00    +0.000 N 
ENDBRANCH   3  15
ENDBRANCH   2   3
ENDBRANCH   1   2
BRANCH   1  16
ATOM     16  C   UNL     1       8.475  10.288  18.800  0.00  0.00    +0.000 C 
BRANCH  16  17
ATOM     17  N   UNL     1       9.728  11.012  19.173  0.00  0.00    +0.000 NA
ATOM     18  C   UNL     1      10.485  11.322  17.947  0.00  0.00    +0.000 C 
ATOM     19  C   UNL     1      11.861  11.888  18.218  0.00  0.00    +0.000 C 
ATOM     20  C   UNL     1      11.769  13.367  18.399  0.00  0.00    +0.000 A 
ATOM     21  C   UNL     1      12.324  14.162  17.386  0.00  0.00    +0.000 A 
ATOM     22  C   UNL     1      12.252  15.543  17.456  0.00  0.00    +0.000 A 
ATOM     23  C   UNL     1      11.647  16.147  18.545  0.00  0.00    +0.000 A 
ATOM     24  C   UNL     1      11.094  15.380  19.590  0.00  0.00    +0.000 A 
ATOM     25  C   UNL     1      11.124  13.962  19.515  0.00  0.00    +0.000 A 
ATOM     26  C   UNL     1      10.498  13.074  20.602  0.00  0.00    +0.000 C 
ATOM     27  C   UNL     1       9.841  13.886  21.772  0.00  0.00    +0.000 C 
ATOM     28  C   UNL     1      10.404  15.280  22.015  0.00  0.00    +0.000 C 
ATOM     29  C   UNL     1      10.459  16.115  20.736  0.00  0.00    +0.000 C 
ATOM     30  C   UNL     1       9.359  12.161  20.037  0.00  0.00    +0.000 C 
ENDBRANCH  16  17
ENDBRANCH   1  16
TORSDOF 5
ENDMDL
MODEL 5
REMARK VINA RESULT:      -8.9      1.609      1.951
REMARK  Name = 
REMARK  5 active torsions:
REMARK  status: ('A' for Active; 'I' for Inactive)
REMARK    1  A    between atoms: N_12  and  C_13
REMARK    2  A    between atoms: C_13  and  C_14
REMARK    3  A    between atoms: C_14  and  C_15
REMARK    4  A    between atoms: C_15  and  C_16
REMARK    5  A    between atoms: C_16  and  N_17
REMARK                            x       y       z     vdW  Elec       q    Type
REMARK                         _______ _______ _______ _____ _____    ______ ____
ROOT
ATOM      1  C   UNL     1       8.516   8.599  18.228  0.00  0.00    +0.000 C 
ENDROOT
BRANCH   1   2
ATOM      2  C   UNL     1       7.281   8.012  17.503  0.00  0.00    +0.000 C 
BRANCH   2   3
ATOM      3  C   UNL     1       7.473   6.503  17.334  0.00  0.00    +0.000 C 
BRANCH   3  15
ATOM      4  O   UNL     1       5.691   5.866  15.351  0.00  0.00    +0.000 OA
ATOM      5  C   UNL     1       5.533   5.306  16.434  0.00  0.00    +0.000 C 
ATOM      6  C   UNL     1       4.650   4.098  16.466  0.00  0.00    +0.000 C 
ATOM      7  C   UNL     1       3.930   3.924  17.808  0.00  0.00    +0.000 C 
ATOM      8  C   UNL     1       3.241   2.528  17.825  0.00  0.00    +0.000 C 
ATOM      9  C   UNL     1       1.804   2.787  18.217  0.00  0.00    +0.000 C 
ATOM     10  C   UNL     1       1.535   4.110  17.511  0.00  0.00    +0.000 C 
ATOM     11  C   UNL     1       2.751   4.926  17.951  0.00  0.00    +0.000 C 
ATOM     12  C   UNL     1       4.964   4.043  18.959  0.00  0.00    +0.000 C 
ATOM     13  C   UNL     1       6.045   5.078  18.752  0.00  0.00    +0.000 C 
ATOM     14  O   UNL     1       6.777   5.320  19.702  0.00  0.00    +0.000 OA
ATOM     15  N   UNL     1       6.289   5.654  17.524  0.00  0.00    +0.000 N 
ENDBRANCH   3  15
ENDBRANCH   2   3
ENDBRANCH   1   2
BRANCH   1  16
ATOM     16  C   UNL     1       9.022   9.922  17.597  0.00  0.00    +0.000 C 
BRANCH  16  17
ATOM     17  N   UNL     1       9.151  11.035  18.586  0.00  0.00    +0.000 NA
ATOM     18  C   UNL     1      10.573  11.201  18.938  0.00  0.00    +0.000 C 
ATOM     19  C   UNL     1      10.801  12.174  20.072  0.00  0.00    +0.000 C 
ATOM     20  C   UNL     1      10.889  13.564  19.532  0.00  0.00    +0.000 A 
ATOM     21  C   UNL     1      12.149  14.178  19.579  0.00  0.00    +0.000 A 
ATOM     22  C   UNL     1      12.330  15.452  19.067  0.00  0.00    +0.000 A 
ATOM     23  C   UNL     1      11.254  16.136  18.525  0.00  0.00    +0.000 A 
ATOM     24  C   UNL     1       9.971  15.555  18.477  0.00  0.00    +0.000 A 
ATOM     25  C   UNL     1       9.777  14.234  18.961  0.00  0.00    +0.000 A 
ATOM     26  C   UNL     1       8.410  13.533  18.894  0.00  0.00    +0.000 C 
ATOM     27  C   UNL     1       7.285  14.416  18.251  0.00  0.00    +0.000 C 
ATOM     28  C   UNL     1       7.478  15.923  18.355  0.00  0.00    +0.000 C 
ATOM     29  C   UNL     1       8.859  16.366  17.875  0.00  0.00    +0.000 C 
ATOM     30  C   UNL     1       8.457  12.226  18.035  0.00  0.00    +0.000 C 
ENDBRANCH  16  17
ENDBRANCH   1  16
TORSDOF 5
ENDMDL
MODEL 6
REMARK VINA RESULT:      -8.5      7.408     11.457
REMARK  Name = 
REMARK  5 active torsions:
REMARK  status: ('A' for Active; 'I' for Inactive)
REMARK    1  A    between atoms: N_12  and  C_13
REMARK    2  A    between atoms: C_13  and  C_14
REMARK    3  A    between atoms: C_14  and  C_15
REMARK    4  A    between atoms: C_15  and  C_16
REMARK    5  A    between atoms: C_16  and  N_17
REMARK                            x       y       z     vdW  Elec       q    Type
REMARK                         _______ _______ _______ _____ _____    ______ ____
ROOT
ATOM      1  C   UNL     1       0.440   9.294  17.911  0.00  0.00    +0.000 C 
ENDROOT
BRANCH   1   2
ATOM      2  C   UNL     1      -0.450  10.454  18.417  0.00  0.00    +0.000 C 
BRANCH   2   3
ATOM      3  C   UNL     1       0.278  11.185  19.548  0.00  0.00    +0.000 C 
BRANCH   3  15
ATOM      4  O   UNL     1      -1.349  13.388  19.429  0.00  0.00    +0.000 OA
ATOM      5  C   UNL     1      -1.408  12.714  20.456  0.00  0.00    +0.000 C 
ATOM      6  C   UNL     1      -2.581  12.931  21.359  0.00  0.00    +0.000 C 
ATOM      7  C   UNL     1      -2.250  12.680  22.834  0.00  0.00    +0.000 C 
ATOM      8  C   UNL     1      -3.576  12.690  23.650  0.00  0.00    +0.000 C 
ATOM      9  C   UNL     1      -3.346  13.657  24.791  0.00  0.00    +0.000 C 
ATOM     10  C   UNL     1      -2.492  14.721  24.113  0.00  0.00    +0.000 C 
ATOM     11  C   UNL     1      -1.430  13.854  23.437  0.00  0.00    +0.000 C 
ATOM     12  C   UNL     1      -1.530  11.311  22.968  0.00  0.00    +0.000 C 
ATOM     13  C   UNL     1      -0.563  10.979  21.856  0.00  0.00    +0.000 C 
ATOM     14  O   UNL     1       0.146   9.993  22.007  0.00  0.00    +0.000 OA
ATOM     15  N   UNL     1      -0.542  11.672  20.666  0.00  0.00    +0.000 N 
ENDBRANCH   3  15
ENDBRANCH   2   3
ENDBRANCH   1   2
BRANCH   1  16
ATOM     16  C   UNL     1       1.934   9.460  18.294  0.00  0.00    +0.000 C 
BRANCH  16  17
ATOM     17  N   UNL     1       2.519   8.240  18.925  0.00  0.00    +0.000 NA
ATOM     18  C   UNL     1       1.535   7.665  19.860  0.00  0.00    +0.000 C 
ATOM     19  C   UNL     1       2.090   6.533  20.695  0.00  0.00    +0.000 C 
ATOM     20  C   UNL     1       1.963   5.247  19.948  0.00  0.00    +0.000 A 
ATOM     21  C   UNL     1       1.030   4.323  20.439  0.00  0.00    +0.000 A 
ATOM     22  C   UNL     1       0.821   3.119  19.787  0.00  0.00    +0.000 A 
ATOM     23  C   UNL     1       1.555   2.814  18.653  0.00  0.00    +0.000 A 
ATOM     24  C   UNL     1       2.513   3.712  18.141  0.00  0.00    +0.000 A 
ATOM     25  C   UNL     1       2.711   4.968  18.775  0.00  0.00    +0.000 A 
ATOM     26  C   UNL     1       3.709   6.005  18.236  0.00  0.00    +0.000 C 
ATOM     27  C   UNL     1       4.465   5.534  16.944  0.00  0.00    +0.000 C 
ATOM     28  C   UNL     1       4.603   4.029  16.764  0.00  0.00    +0.000 C 
ATOM     29  C   UNL     1       3.267   3.301  16.908  0.00  0.00    +0.000 C 
ATOM     30  C   UNL     1       3.011   7.350  17.844  0.00  0.00    +0.000 C 
ENDBRANCH  16  17
ENDBRANCH   1  16
TORSDOF 5
ENDMDL
MODEL 7
REMARK VINA RESULT:      -8.4      1.269      1.321
REMARK  Name = 
REMARK  5 active torsions:
REMARK  status: ('A' for Active; 'I' for Inactive)
REMARK    1  A    between atoms: N_12  and  C_13
REMARK    2  A    between atoms: C_13  and  C_14
REMARK    3  A    between atoms: C_14  and  C_15
REMARK    4  A    between atoms: C_15  and  C_16
REMARK    5  A    between atoms: C_16  and  N_17
REMARK                            x       y       z     vdW  Elec       q    Type
REMARK                         _______ _______ _______ _____ _____    ______ ____
ROOT
ATOM      1  C   UNL     1       7.852   9.421  18.078  0.00  0.00    +0.000 C 
ENDROOT
BRANCH   1   2
ATOM      2  C   UNL     1       7.547   8.221  17.150  0.00  0.00    +0.000 C 
BRANCH   2   3
ATOM      3  C   UNL     1       7.663   6.925  17.957  0.00  0.00    +0.000 C 
BRANCH   3  15
ATOM      4  O   UNL     1       5.901   6.633  15.879  0.00  0.00    +0.000 OA
ATOM      5  C   UNL     1       5.739   5.891  16.845  0.00  0.00    +0.000 C 
ATOM      6  C   UNL     1       4.865   4.691  16.658  0.00  0.00    +0.000 C 
ATOM      7  C   UNL     1       4.137   4.280  17.943  0.00  0.00    +0.000 C 
ATOM      8  C   UNL     1       3.459   2.899  17.710  0.00  0.00    +0.000 C 
ATOM      9  C   UNL     1       2.016   3.075  18.129  0.00  0.00    +0.000 C 
ATOM     10  C   UNL     1       1.743   4.500  17.663  0.00  0.00    +0.000 C 
ATOM     11  C   UNL     1       2.949   5.235  18.249  0.00  0.00    +0.000 C 
ATOM     12  C   UNL     1       5.162   4.203  19.106  0.00  0.00    +0.000 C 
ATOM     13  C   UNL     1       6.236   5.265  19.092  0.00  0.00    +0.000 C 
ATOM     14  O   UNL     1       6.960   5.342  20.076  0.00  0.00    +0.000 OA
ATOM     15  N   UNL     1       6.484   6.048  17.986  0.00  0.00    +0.000 N 
ENDBRANCH   3  15
ENDBRANCH   2   3
ENDBRANCH   1   2
BRANCH   1  16
ATOM     16  C   UNL     1       9.119   9.214  18.947  0.00  0.00    +0.000 C 
BRANCH  16  17
ATOM     17  N   UNL     1       9.841  10.486  19.250  0.00  0.00    +0.000 NA
ATOM     18  C   UNL     1       9.926  11.293  18.019  0.00  0.00    +0.000 C 
ATOM     19  C   UNL     1      10.801  12.518  18.163  0.00  0.00    +0.000 C 
ATOM     20  C   UNL     1       9.995  13.648  18.714  0.00  0.00    +0.000 A 
ATOM     21  C   UNL     1       9.724  14.711  17.840  0.00  0.00    +0.000 A 
ATOM     22  C   UNL     1       8.954  15.784  18.256  0.00  0.00    +0.000 A 
ATOM     23  C   UNL     1       8.466  15.821  19.552  0.00  0.00    +0.000 A 
ATOM     24  C   UNL     1       8.733  14.778  20.461  0.00  0.00    +0.000 A 
ATOM     25  C   UNL     1       9.488  13.651  20.039  0.00  0.00    +0.000 A 
ATOM     26  C   UNL     1       9.774  12.464  20.972  0.00  0.00    +0.000 C 
ATOM     27  C   UNL     1       9.156  12.632  22.405  0.00  0.00    +0.000 C 
ATOM     28  C   UNL     1       8.936  14.064  22.873  0.00  0.00    +0.000 C 
ATOM     29  C   UNL     1       8.168  14.898  21.848  0.00  0.00    +0.000 C 
ATOM     30  C   UNL     1       9.187  11.122  20.420  0.00  0.00    +0.000 C 
ENDBRANCH  16  17
ENDBRANCH   1  16
TORSDOF 5
ENDMDL
MODEL 8
REMARK VINA RESULT:      -8.4      1.891      2.338
REMARK  Name = 
REMARK  5 active torsions:
REMARK  status: ('A' for Active; 'I' for Inactive)
REMARK    1  A    between atoms: N_12  and  C_13
REMARK    2  A    between atoms: C_13  and  C_14
REMARK    3  A    between atoms: C_14  and  C_15
REMARK    4  A    between atoms: C_15  and  C_16
REMARK    5  A    between atoms: C_16  and  N_17
REMARK                            x       y       z     vdW  Elec       q    Type
REMARK                         _______ _______ _______ _____ _____    ______ ____
ROOT
ATOM      1  C   UNL     1       8.345   9.040  18.175  0.00  0.00    +0.000 C 
ENDROOT
BRANCH   1   2
ATOM      2  C   UNL     1       8.082   7.549  18.497  0.00  0.00    +0.000 C 
BRANCH   2   3
ATOM      3  C   UNL     1       7.519   6.861  17.250  0.00  0.00    +0.000 C 
BRANCH   3  15
ATOM      4  O   UNL     1       5.435   6.696  15.479  0.00  0.00    +0.000 OA
ATOM      5  C   UNL     1       5.415   5.913  16.426  0.00  0.00    +0.000 C 
ATOM      6  C   UNL     1       4.493   4.738  16.335  0.00  0.00    +0.000 C 
ATOM      7  C   UNL     1       3.974   4.282  17.703  0.00  0.00    +0.000 C 
ATOM      8  C   UNL     1       3.233   2.925  17.526  0.00  0.00    +0.000 C 
ATOM      9  C   UNL     1       1.883   3.107  18.183  0.00  0.00    +0.000 C 
ATOM     10  C   UNL     1       1.573   4.556  17.829  0.00  0.00    +0.000 C 
ATOM     11  C   UNL     1       2.876   5.242  18.239  0.00  0.00    +0.000 C 
ATOM     12  C   UNL     1       5.173   4.134  18.678  0.00  0.00    +0.000 C 
ATOM     13  C   UNL     1       6.256   5.177  18.533  0.00  0.00    +0.000 C 
ATOM     14  O   UNL     1       7.132   5.196  19.387  0.00  0.00    +0.000 OA
ATOM     15  N   UNL     1       6.340   6.005  17.435  0.00  0.00    +0.000 N 
ENDBRANCH   3  15
ENDBRANCH   2   3
ENDBRANCH   1   2
BRANCH   1  16
ATOM     16  C   UNL     1       9.307   9.720  19.184  0.00  0.00    +0.000 C 
BRANCH  16  17
ATOM     17  N   UNL     1       9.476  11.184  18.940  0.00  0.00    +0.000 NA
ATOM     18  C   UNL     1       8.558  11.600  17.865  0.00  0.00    +0.000 C 
ATOM     19  C   UNL     1       8.777  13.024  17.405  0.00  0.00    +0.000 C 
ATOM     20  C   UNL     1       8.000  13.958  18.274  0.00  0.00    +0.000 A 
ATOM     21  C   UNL     1       6.899  14.596  17.686  0.00  0.00    +0.000 A 
ATOM     22  C   UNL     1       6.101  15.451  18.430  0.00  0.00    +0.000 A 
ATOM     23  C   UNL     1       6.406  15.696  19.758  0.00  0.00    +0.000 A 
ATOM     24  C   UNL     1       7.515  15.084  20.377  0.00  0.00    +0.000 A 
ATOM     25  C   UNL     1       8.319  14.174  19.640  0.00  0.00    +0.000 A 
ATOM     26  C   UNL     1       9.514  13.444  20.274  0.00  0.00    +0.000 C 
ATOM     27  C   UNL     1       9.739  13.806  21.784  0.00  0.00    +0.000 C 
ATOM     28  C   UNL     1       9.230  15.171  22.225  0.00  0.00    +0.000 C 
ATOM     29  C   UNL     1       7.774  15.406  21.821  0.00  0.00    +0.000 C 
ATOM     30  C   UNL     1       9.342  11.888  20.240  0.00  0.00    +0.000 C 
ENDBRANCH  16  17
ENDBRANCH   1  16
TORSDOF 5
ENDMDL
MODEL 9
REMARK VINA RESULT:      -8.4      2.015      2.730
REMARK  Name = 
REMARK  5 active torsions:
REMARK  status: ('A' for Active; 'I' for Inactive)
REMARK    1  A    between atoms: N_12  and  C_13
REMARK    2  A    between atoms: C_13  and  C_14
REMARK    3  A    between atoms: C_14  and  C_15
REMARK    4  A    between atoms: C_15  and  C_16
REMARK    5  A    between atoms: C_16  and  N_17
REMARK                            x       y       z     vdW  Elec       q    Type
REMARK                         _______ _______ _______ _____ _____    ______ ____
ROOT
ATOM      1  C   UNL     1       8.223   8.899  17.973  0.00  0.00    +0.000 C 
ENDROOT
BRANCH   1   2
ATOM      2  C   UNL     1       7.895   7.414  18.260  0.00  0.00    +0.000 C 
BRANCH   2   3
ATOM      3  C   UNL     1       6.944   6.896  17.178  0.00  0.00    +0.000 C 
BRANCH   3  15
ATOM      4  O   UNL     1       7.320   4.326  18.052  0.00  0.00    +0.000 OA
ATOM      5  C   UNL     1       6.180   4.776  18.142  0.00  0.00    +0.000 C 
ATOM      6  C   UNL     1       5.215   4.049  19.025  0.00  0.00    +0.000 C 
ATOM      7  C   UNL     1       3.765   4.166  18.545  0.00  0.00    +0.000 C 
ATOM      8  C   UNL     1       2.828   3.594  19.648  0.00  0.00    +0.000 C 
ATOM      9  C   UNL     1       1.934   2.595  18.949  0.00  0.00    +0.000 C 
ATOM     10  C   UNL     1       2.899   1.989  17.937  0.00  0.00    +0.000 C 
ATOM     11  C   UNL     1       3.501   3.250  17.317  0.00  0.00    +0.000 C 
ATOM     12  C   UNL     1       3.440   5.658  18.264  0.00  0.00    +0.000 C 
ATOM     13  C   UNL     1       4.563   6.457  17.643  0.00  0.00    +0.000 C 
ATOM     14  O   UNL     1       4.297   7.586  17.254  0.00  0.00    +0.000 OA
ATOM     15  N   UNL     1       5.862   6.000  17.612  0.00  0.00    +0.000 N 
ENDBRANCH   3  15
ENDBRANCH   2   3
ENDBRANCH   1   2
BRANCH   1  16
ATOM     16  C   UNL     1       9.119   9.546  19.061  0.00  0.00    +0.000 C 
BRANCH  16  17
ATOM     17  N   UNL     1       9.360  11.002  18.836  0.00  0.00    +0.000 NA
ATOM     18  C   UNL     1       8.429  11.488  17.802  0.00  0.00    +0.000 C 
ATOM     19  C   UNL     1       8.710  12.906  17.358  0.00  0.00    +0.000 C 
ATOM     20  C   UNL     1       8.018  13.865  18.271  0.00  0.00    +0.000 A 
ATOM     21  C   UNL     1       6.934  14.574  17.734  0.00  0.00    +0.000 A 
ATOM     22  C   UNL     1       6.212  15.457  18.520  0.00  0.00    +0.000 A 
ATOM     23  C   UNL     1       6.577  15.660  19.840  0.00  0.00    +0.000 A 
ATOM     24  C   UNL     1       7.671  14.977  20.408  0.00  0.00    +0.000 A 
ATOM     25  C   UNL     1       8.397  14.038  19.627  0.00  0.00    +0.000 A 
ATOM     26  C   UNL     1       9.571  13.232  20.204  0.00  0.00    +0.000 C 
ATOM     27  C   UNL     1       9.870  13.553  21.711  0.00  0.00    +0.000 C 
ATOM     28  C   UNL     1       9.453  14.935  22.193  0.00  0.00    +0.000 C 
ATOM     29  C   UNL     1       8.000  15.258  21.846  0.00  0.00    +0.000 C 
ATOM     30  C   UNL     1       9.312  11.689  20.151  0.00  0.00    +0.000 C 
ENDBRANCH  16  17
ENDBRANCH   1  16
TORSDOF 5
ENDMDL
