MODEL 1
REMARK VINA RESULT:      -8.8      0.000      0.000
REMARK  Name = 
REMARK  5 active torsions:
REMARK  status: ('A' for Active; 'I' for Inactive)
REMARK    1  A    between atoms: C_6  and  C_7
REMARK    2  A    between atoms: C_7  and  O_8
REMARK    3  A    between atoms: O_8  and  C_9
REMARK    4  A    between atoms: N_15  and  C_16
REMARK    5  A    between atoms: C_16  and  C_17
REMARK                            x       y       z     vdW  Elec       q    Type
REMARK                         _______ _______ _______ _____ _____    ______ ____
ROOT
ATOM      1  C   UNL     1       1.829   5.102  20.392  0.00  0.00    +0.000 A 
ATOM      2  C   UNL     1       1.460   3.921  21.041  0.00  0.00    +0.000 A 
ATOM      3  C   UNL     1       1.856   2.675  20.539  0.00  0.00    +0.000 A 
ATOM      4  C   UNL     1       2.616   2.628  19.362  0.00  0.00    +0.000 A 
ATOM      5  N   UNL     1       3.124   1.542  18.698  0.00  0.00    +0.000 NA
ATOM      6  C   UNL     1       3.754   2.038  17.659  0.00  0.00    +0.000 A 
ATOM      7  N   UNL     1       3.661   3.403  17.610  0.00  0.00    +0.000 N 
ATOM      8  C   UNL     1       2.949   3.815  18.713  0.00  0.00    +0.000 A 
ATOM      9  C   UNL     1       2.567   5.069  19.202  0.00  0.00    +0.000 A 
ENDROOT
BRANCH   1  10
ATOM     10  O   UNL     1       1.498   6.359  20.824  0.00  0.00    +0.000 OA
BRANCH  10  11
ATOM     11  C   UNL     1       2.059   7.436  20.067  0.00  0.00    +0.000 C 
BRANCH  11  17
ATOM     12  C   UNL     1      -1.737  12.192  22.169  0.00  0.00    +0.000 A 
ATOM     13  C   UNL     1      -1.501  11.257  23.170  0.00  0.00    +0.000 A 
ATOM     14  C   UNL     1      -0.702  10.141  22.908  0.00  0.00    +0.000 A 
ATOM     15  C   UNL     1      -0.129   9.934  21.659  0.00  0.00    +0.000 A 
ATOM     16  N   UNL     1       0.630   8.845  21.461  0.00  0.00    +0.000 NA
ATOM     17  C   UNL     1       1.198   8.658  20.238  0.00  0.00    +0.000 A 
ATOM     18  C   UNL     1       1.006   9.544  19.183  0.00  0.00    +0.000 A 
ATOM     19  C   UNL     1       0.214  10.666  19.394  0.00  0.00    +0.000 A 
ATOM     20  C   UNL     1      -0.370  10.881  20.649  0.00  0.00    +0.000 A 
ATOM     21  C   UNL     1      -1.174  12.007  20.908  0.00  0.00    +0.000 A 
ENDBRANCH  11  17
ENDBRANCH  10  11
ENDBRANCH   1  10
BRANCH   7  22
ATOM     22  C   UNL     1       4.246   4.251  16.582  0.00  0.00    +0.000 C 
BRANCH  22  23
ATOM     23  C   UNL     1       5.360   5.090  17.151  0.00  0.00    +0.000 A 
ATOM     24  C   UNL     1       5.411   6.469  16.920  0.00  0.00    +0.000 A 
ATOM     25  C   UNL     1       6.551   7.163  17.294  0.00  0.00    +0.000 A 
ATOM     26  N   UNL     1       7.587   6.605  17.953  0.00  0.00    +0.000 NA
ATOM     27  C   UNL     1       7.490   5.289  18.231  0.00  0.00    +0.000 A 
ATOM     28  C   UNL     1       6.421   4.496  17.842  0.00  0.00    +0.000 A 
ENDBRANCH  22  23
ENDBRANCH   7  22
TORSDOF 5
ENDMDL
MODEL 2
REMARK VINA RESULT:      -8.7      0.939      1.260
REMARK  Name = 
REMARK  5 active torsions:
REMARK  status: ('A' for Active; 'I' for Inactive)
REMARK    1  A    between atoms: C_6  and  C_7
REMARK    2  A    between atoms: C_7  and  O_8
REMARK    3  A    between atoms: O_8  and  C_9
REMARK    4  A    between atoms: N_15  and  C_16
REMARK    5  A    between atoms: C_16  and  C_17
REMARK                            x       y       z     vdW  Elec       q    Type
REMARK                         _______ _______ _______ _____ _____    ______ ____
ROOT
ATOM      1  C   UNL     1       1.994   5.171  20.630  0.00  0.00    +0.000 A 
ATOM      2  C   UNL     1       1.890   4.072  21.487  0.00  0.00    +0.000 A 
ATOM      3  C   UNL     1       2.265   2.793  21.059  0.00  0.00    +0.000 A 
ATOM      4  C   UNL     1       2.731   2.626  19.747  0.00  0.00    +0.000 A 
ATOM      5  N   UNL     1       3.164   1.489  19.116  0.00  0.00    +0.000 NA
ATOM      6  C   UNL     1       3.489   1.870  17.903  0.00  0.00    +0.000 A 
ATOM      7  N   UNL     1       3.270   3.209  17.714  0.00  0.00    +0.000 N 
ATOM      8  C   UNL     1       2.801   3.728  18.898  0.00  0.00    +0.000 A 
ATOM      9  C   UNL     1       2.434   5.015  19.310  0.00  0.00    +0.000 A 
ENDROOT
BRANCH   1  10
ATOM     10  O   UNL     1       1.664   6.455  20.974  0.00  0.00    +0.000 OA
BRANCH  10  11
ATOM     11  C   UNL     1       2.073   7.463  20.046  0.00  0.00    +0.000 C 
BRANCH  11  17
ATOM     12  C   UNL     1      -1.729  12.187  22.210  0.00  0.00    +0.000 A 
ATOM     13  C   UNL     1      -1.498  11.236  23.196  0.00  0.00    +0.000 A 
ATOM     14  C   UNL     1      -0.698  10.124  22.920  0.00  0.00    +0.000 A 
ATOM     15  C   UNL     1      -0.120   9.936  21.669  0.00  0.00    +0.000 A 
ATOM     16  N   UNL     1       0.640   8.850  21.456  0.00  0.00    +0.000 NA
ATOM     17  C   UNL     1       1.212   8.683  20.233  0.00  0.00    +0.000 A 
ATOM     18  C   UNL     1       1.025   9.586  19.192  0.00  0.00    +0.000 A 
ATOM     19  C   UNL     1       0.233  10.705  19.418  0.00  0.00    +0.000 A 
ATOM     20  C   UNL     1      -0.357  10.900  20.674  0.00  0.00    +0.000 A 
ATOM     21  C   UNL     1      -1.161  12.022  20.948  0.00  0.00    +0.000 A 
ENDBRANCH  11  17
ENDBRANCH  10  11
ENDBRANCH   1  10
BRANCH   7  22
ATOM     22  C   UNL     1       3.523   3.937  16.480  0.00  0.00    +0.000 C 
BRANCH  22  23
ATOM     23  C   UNL     1       5.002   4.137  16.273  0.00  0.00    +0.000 A 
ATOM     24  C   UNL     1       5.854   4.371  17.357  0.00  0.00    +0.000 A 
ATOM     25  C   UNL     1       7.165   4.743  17.103  0.00  0.00    +0.000 A 
ATOM     26  N   UNL     1       7.701   4.809  15.867  0.00  0.00    +0.000 NA
ATOM     27  C   UNL     1       6.883   4.511  14.836  0.00  0.00    +0.000 A 
ATOM     28  C   UNL     1       5.542   4.192  14.983  0.00  0.00    +0.000 A 
ENDBRANCH  22  23
ENDBRANCH   7  22
TORSDOF 5
ENDMDL
MODEL 3
REMARK VINA RESULT:      -8.5      1.221      1.396
REMARK  Name = 
REMARK  5 active torsions:
REMARK  status: ('A' for Active; 'I' for Inactive)
REMARK    1  A    between atoms: C_6  and  C_7
REMARK    2  A    between atoms: C_7  and  O_8
REMARK    3  A    between atoms: O_8  and  C_9
REMARK    4  A    between atoms: N_15  and  C_16
REMARK    5  A    between atoms: C_16  and  C_17
REMARK                            x       y       z     vdW  Elec       q    Type
REMARK                         _______ _______ _______ _____ _____    ______ ____
ROOT
ATOM      1  C   UNL     1       1.597   5.449  20.568  0.00  0.00    +0.000 A 
ATOM      2  C   UNL     1       0.864   4.261  20.518  0.00  0.00    +0.000 A 
ATOM      3  C   UNL     1       1.457   3.073  20.073  0.00  0.00    +0.000 A 
ATOM      4  C   UNL     1       2.797   3.097  19.661  0.00  0.00    +0.000 A 
ATOM      5  N   UNL     1       3.585   2.071  19.207  0.00  0.00    +0.000 NA
ATOM      6  C   UNL     1       4.751   2.618  18.955  0.00  0.00    +0.000 A 
ATOM      7  N   UNL     1       4.748   3.964  19.211  0.00  0.00    +0.000 N 
ATOM      8  C   UNL     1       3.503   4.297  19.691  0.00  0.00    +0.000 A 
ATOM      9  C   UNL     1       2.929   5.493  20.136  0.00  0.00    +0.000 A 
ENDROOT
BRANCH   1  10
ATOM     10  O   UNL     1       1.099   6.649  21.004  0.00  0.00    +0.000 OA
BRANCH  10  11
ATOM     11  C   UNL     1       1.832   7.805  20.590  0.00  0.00    +0.000 C 
BRANCH  11  17
ATOM     12  C   UNL     1      -2.187  12.619  22.048  0.00  0.00    +0.000 A 
ATOM     13  C   UNL     1      -1.913  11.837  23.164  0.00  0.00    +0.000 A 
ATOM     14  C   UNL     1      -1.062  10.735  23.052  0.00  0.00    +0.000 A 
ATOM     15  C   UNL     1      -0.475  10.389  21.840  0.00  0.00    +0.000 A 
ATOM     16  N   UNL     1       0.335   9.320  21.787  0.00  0.00    +0.000 NA
ATOM     17  C   UNL     1       0.915   8.998  20.599  0.00  0.00    +0.000 A 
ATOM     18  C   UNL     1       0.687   9.726  19.436  0.00  0.00    +0.000 A 
ATOM     19  C   UNL     1      -0.156  10.828  19.497  0.00  0.00    +0.000 A 
ATOM     20  C   UNL     1      -0.755  11.181  20.713  0.00  0.00    +0.000 A 
ATOM     21  C   UNL     1      -1.610  12.294  20.822  0.00  0.00    +0.000 A 
ENDBRANCH  11  17
ENDBRANCH  10  11
ENDBRANCH   1  10
BRANCH   7  22
ATOM     22  C   UNL     1       5.883   4.858  19.029  0.00  0.00    +0.000 C 
BRANCH  22  23
ATOM     23  C   UNL     1       6.080   5.179  17.571  0.00  0.00    +0.000 A 
ATOM     24  C   UNL     1       5.203   6.038  16.899  0.00  0.00    +0.000 A 
ATOM     25  C   UNL     1       5.307   6.149  15.522  0.00  0.00    +0.000 A 
ATOM     26  N   UNL     1       6.265   5.543  14.790  0.00  0.00    +0.000 NA
ATOM     27  C   UNL     1       7.145   4.775  15.463  0.00  0.00    +0.000 A 
ATOM     28  C   UNL     1       7.086   4.550  16.830  0.00  0.00    +0.000 A 
ENDBRANCH  22  23
ENDBRANCH   7  22
TORSDOF 5
ENDMDL
MODEL 4
REMARK VINA RESULT:      -8.4      1.964      2.677
REMARK  Name = 
REMARK  5 active torsions:
REMARK  status: ('A' for Active; 'I' for Inactive)
REMARK    1  A    between atoms: C_6  and  C_7
REMARK    2  A    between atoms: C_7  and  O_8
REMARK    3  A    between atoms: O_8  and  C_9
REMARK    4  A    between atoms: N_15  and  C_16
REMARK    5  A    between atoms: C_16  and  C_17
REMARK                            x       y       z     vdW  Elec       q    Type
REMARK                         _______ _______ _______ _____ _____    ______ ____
ROOT
ATOM      1  C   UNL     1       2.189   6.671  19.776  0.00  0.00    +0.000 A 
ATOM      2  C   UNL     1       1.462   5.726  20.504  0.00  0.00    +0.000 A 
ATOM      3  C   UNL     1       1.685   4.355  20.321  0.00  0.00    +0.000 A 
ATOM      4  C   UNL     1       2.640   3.944  19.380  0.00  0.00    +0.000 A 
ATOM      5  N   UNL     1       3.037   2.676  19.042  0.00  0.00    +0.000 NA
ATOM      6  C   UNL     1       3.951   2.837  18.114  0.00  0.00    +0.000 A 
ATOM      7  N   UNL     1       4.153   4.160  17.823  0.00  0.00    +0.000 N 
ATOM      8  C   UNL     1       3.334   4.900  18.643  0.00  0.00    +0.000 A 
ATOM      9  C   UNL     1       3.128   6.274  18.816  0.00  0.00    +0.000 A 
ENDROOT
BRANCH   1  10
ATOM     10  O   UNL     1       2.044   8.027  19.906  0.00  0.00    +0.000 OA
BRANCH  10  11
ATOM     11  C   UNL     1       1.896   8.749  18.680  0.00  0.00    +0.000 C 
BRANCH  11  17
ATOM     12  C   UNL     1      -3.817  11.521  17.621  0.00  0.00    +0.000 A 
ATOM     13  C   UNL     1      -3.452  10.701  16.560  0.00  0.00    +0.000 A 
ATOM     14  C   UNL     1      -2.236  10.012  16.597  0.00  0.00    +0.000 A 
ATOM     15  C   UNL     1      -1.369  10.126  17.677  0.00  0.00    +0.000 A 
ATOM     16  N   UNL     1      -0.214   9.442  17.662  0.00  0.00    +0.000 NA
ATOM     17  C   UNL     1       0.623   9.549  18.730  0.00  0.00    +0.000 A 
ATOM     18  C   UNL     1       0.333  10.353  19.827  0.00  0.00    +0.000 A 
ATOM     19  C   UNL     1      -0.863  11.061  19.833  0.00  0.00    +0.000 A 
ATOM     20  C   UNL     1      -1.741  10.956  18.748  0.00  0.00    +0.000 A 
ATOM     21  C   UNL     1      -2.965  11.651  18.716  0.00  0.00    +0.000 A 
ENDBRANCH  11  17
ENDBRANCH  10  11
ENDBRANCH   1  10
BRANCH   7  22
ATOM     22  C   UNL     1       5.095   4.671  16.838  0.00  0.00    +0.000 C 
BRANCH  22  23
ATOM     23  C   UNL     1       6.108   5.577  17.487  0.00  0.00    +0.000 A 
ATOM     24  C   UNL     1       6.299   6.885  17.029  0.00  0.00    +0.000 A 
ATOM     25  C   UNL     1       7.371   7.612  17.523  0.00  0.00    +0.000 A 
ATOM     26  N   UNL     1       8.197   7.166  18.492  0.00  0.00    +0.000 NA
ATOM     27  C   UNL     1       7.955   5.929  18.972  0.00  0.00    +0.000 A 
ATOM     28  C   UNL     1       6.949   5.101  18.498  0.00  0.00    +0.000 A 
ENDBRANCH  22  23
ENDBRANCH   7  22
TORSDOF 5
ENDMDL
MODEL 5
REMARK VINA RESULT:      -8.4      0.824      1.292
REMARK  Name = 
REMARK  5 active torsions:
REMARK  status: ('A' for Active; 'I' for Inactive)
REMARK    1  A    between atoms: C_6  and  C_7
REMARK    2  A    between atoms: C_7  and  O_8
REMARK    3  A    between atoms: O_8  and  C_9
REMARK    4  A    between atoms: N_15  and  C_16
REMARK    5  A    between atoms: C_16  and  C_17
REMARK                            x       y       z     vdW  Elec       q    Type
REMARK                         _______ _______ _______ _____ _____    ______ ____
ROOT
ATOM      1  C   UNL     1       2.215   6.157  19.842  0.00  0.00    +0.000 A 
ATOM      2  C   UNL     1       1.617   5.173  20.634  0.00  0.00    +0.000 A 
ATOM      3  C   UNL     1       1.845   3.815  20.381  0.00  0.00    +0.000 A 
ATOM      4  C   UNL     1       2.671   3.454  19.306  0.00  0.00    +0.000 A 
ATOM      5  N   UNL     1       3.047   2.208  18.880  0.00  0.00    +0.000 NA
ATOM      6  C   UNL     1       3.820   2.418  17.840  0.00  0.00    +0.000 A 
ATOM      7  N   UNL     1       3.950   3.753  17.564  0.00  0.00    +0.000 N 
ATOM      8  C   UNL     1       3.234   4.449  18.510  0.00  0.00    +0.000 A 
ATOM      9  C   UNL     1       3.021   5.811  18.751  0.00  0.00    +0.000 A 
ENDROOT
BRANCH   1  10
ATOM     10  O   UNL     1       2.057   7.504  20.031  0.00  0.00    +0.000 OA
BRANCH  10  11
ATOM     11  C   UNL     1       1.440   7.884  21.265  0.00  0.00    +0.000 C 
BRANCH  11  17
ATOM     12  C   UNL     1      -2.354  13.064  21.729  0.00  0.00    +0.000 A 
ATOM     13  C   UNL     1      -2.157  12.472  22.971  0.00  0.00    +0.000 A 
ATOM     14  C   UNL     1      -1.364  11.327  23.080  0.00  0.00    +0.000 A 
ATOM     15  C   UNL     1      -0.760  10.752  21.968  0.00  0.00    +0.000 A 
ATOM     16  N   UNL     1      -0.009   9.651  22.128  0.00  0.00    +0.000 NA
ATOM     17  C   UNL     1       0.590   9.104  21.036  0.00  0.00    +0.000 A 
ATOM     18  C   UNL     1       0.438   9.633  19.759  0.00  0.00    +0.000 A 
ATOM     19  C   UNL     1      -0.346  10.769  19.599  0.00  0.00    +0.000 A 
ATOM     20  C   UNL     1      -0.962  11.353  20.714  0.00  0.00    +0.000 A 
ATOM     21  C   UNL     1      -1.758  12.508  20.599  0.00  0.00    +0.000 A 
ENDBRANCH  11  17
ENDBRANCH  10  11
ENDBRANCH   1  10
BRANCH   7  22
ATOM     22  C   UNL     1       4.734   4.315  16.474  0.00  0.00    +0.000 C 
BRANCH  22  23
ATOM     23  C   UNL     1       5.872   5.145  17.009  0.00  0.00    +0.000 A 
ATOM     24  C   UNL     1       6.834   4.585  17.856  0.00  0.00    +0.000 A 
ATOM     25  C   UNL     1       7.743   5.427  18.477  0.00  0.00    +0.000 A 
ATOM     26  N   UNL     1       7.816   6.754  18.246  0.00  0.00    +0.000 NA
ATOM     27  C   UNL     1       6.926   7.266  17.372  0.00  0.00    +0.000 A 
ATOM     28  C   UNL     1       5.938   6.518  16.750  0.00  0.00    +0.000 A 
ENDBRANCH  22  23
ENDBRANCH   7  22
TORSDOF 5
ENDMDL
MODEL 6
REMARK VINA RESULT:      -8.4      0.726      1.572
REMARK  Name = 
REMARK  5 active torsions:
REMARK  status: ('A' for Active; 'I' for Inactive)
REMARK    1  A    between atoms: C_6  and  C_7
REMARK    2  A    between atoms: C_7  and  O_8
REMARK    3  A    between atoms: O_8  and  C_9
REMARK    4  A    between atoms: N_15  and  C_16
REMARK    5  A    between atoms: C_16  and  C_17
REMARK                            x       y       z     vdW  Elec       q    Type
REMARK                         _______ _______ _______ _____ _____    ______ ____
ROOT
ATOM      1  C   UNL     1       1.775   5.032  20.453  0.00  0.00    +0.000 A 
ATOM      2  C   UNL     1       1.462   3.825  21.084  0.00  0.00    +0.000 A 
ATOM      3  C   UNL     1       1.913   2.606  20.561  0.00  0.00    +0.000 A 
ATOM      4  C   UNL     1       2.671   2.613  19.382  0.00  0.00    +0.000 A 
ATOM      5  N   UNL     1       3.227   1.563  18.700  0.00  0.00    +0.000 NA
ATOM      6  C   UNL     1       3.831   2.103  17.667  0.00  0.00    +0.000 A 
ATOM      7  N   UNL     1       3.676   3.463  17.641  0.00  0.00    +0.000 N 
ATOM      8  C   UNL     1       2.949   3.824  18.751  0.00  0.00    +0.000 A 
ATOM      9  C   UNL     1       2.510   5.052  19.261  0.00  0.00    +0.000 A 
ENDROOT
BRANCH   1  10
ATOM     10  O   UNL     1       1.387   6.265  20.905  0.00  0.00    +0.000 OA
BRANCH  10  11
ATOM     11  C   UNL     1       1.999   7.380  20.249  0.00  0.00    +0.000 C 
BRANCH  11  17
ATOM     12  C   UNL     1      -1.378  12.860  20.109  0.00  0.00    +0.000 A 
ATOM     13  C   UNL     1      -0.988  12.477  18.831  0.00  0.00    +0.000 A 
ATOM     14  C   UNL     1      -0.237  11.312  18.651  0.00  0.00    +0.000 A 
ATOM     15  C   UNL     1       0.138  10.514  19.726  0.00  0.00    +0.000 A 
ATOM     16  N   UNL     1       0.859   9.405  19.497  0.00  0.00    +0.000 NA
ATOM     17  C   UNL     1       1.209   8.624  20.554  0.00  0.00    +0.000 A 
ATOM     18  C   UNL     1       0.863   8.941  21.863  0.00  0.00    +0.000 A 
ATOM     19  C   UNL     1       0.121  10.093  22.093  0.00  0.00    +0.000 A 
ATOM     20  C   UNL     1      -0.258  10.905  21.016  0.00  0.00    +0.000 A 
ATOM     21  C   UNL     1      -1.015  12.076  21.203  0.00  0.00    +0.000 A 
ENDBRANCH  11  17
ENDBRANCH  10  11
ENDBRANCH   1  10
BRANCH   7  22
ATOM     22  C   UNL     1       4.219   4.353  16.625  0.00  0.00    +0.000 C 
BRANCH  22  23
ATOM     23  C   UNL     1       5.359   5.165  17.182  0.00  0.00    +0.000 A 
ATOM     24  C   UNL     1       5.405   6.553  17.008  0.00  0.00    +0.000 A 
ATOM     25  C   UNL     1       6.562   7.229  17.362  0.00  0.00    +0.000 A 
ATOM     26  N   UNL     1       7.625   6.641  17.950  0.00  0.00    +0.000 NA
ATOM     27  C   UNL     1       7.535   5.314  18.174  0.00  0.00    +0.000 A 
ATOM     28  C   UNL     1       6.448   4.540  17.798  0.00  0.00    +0.000 A 
ENDBRANCH  22  23
ENDBRANCH   7  22
TORSDOF 5
ENDMDL
MODEL 7
REMARK VINA RESULT:      -8.3      1.073      1.939
REMARK  Name = 
REMARK  5 active torsions:
REMARK  status: ('A' for Active; 'I' for Inactive)
REMARK    1  A    between atoms: C_6  and  C_7
REMARK    2  A    between atoms: C_7  and  O_8
REMARK    3  A    between atoms: O_8  and  C_9
REMARK    4  A    between atoms: N_15  and  C_16
REMARK    5  A    between atoms: C_16  and  C_17
REMARK                            x       y       z     vdW  Elec       q    Type
REMARK                         _______ _______ _______ _____ _____    ______ ____
ROOT
ATOM      1  C   UNL     1       1.678   5.668  20.352  0.00  0.00    +0.000 A 
ATOM      2  C   UNL     1       1.221   4.363  20.552  0.00  0.00    +0.000 A 
ATOM      3  C   UNL     1       1.677   3.314  19.743  0.00  0.00    +0.000 A 
ATOM      4  C   UNL     1       2.587   3.596  18.715  0.00  0.00    +0.000 A 
ATOM      5  N   UNL     1       3.177   2.744  17.818  0.00  0.00    +0.000 NA
ATOM      6  C   UNL     1       3.942   3.505  17.072  0.00  0.00    +0.000 A 
ATOM      7  N   UNL     1       3.861   4.822  17.437  0.00  0.00    +0.000 N 
ATOM      8  C   UNL     1       3.009   4.908  18.513  0.00  0.00    +0.000 A 
ATOM      9  C   UNL     1       2.568   5.969  19.314  0.00  0.00    +0.000 A 
ENDROOT
BRANCH   1  10
ATOM     10  O   UNL     1       1.296   6.746  21.106  0.00  0.00    +0.000 OA
BRANCH  10  11
ATOM     11  C   UNL     1       1.561   8.026  20.525  0.00  0.00    +0.000 C 
BRANCH  11  17
ATOM     12  C   UNL     1      -2.348  12.916  22.026  0.00  0.00    +0.000 A 
ATOM     13  C   UNL     1      -2.090  12.880  20.661  0.00  0.00    +0.000 A 
ATOM     14  C   UNL     1      -1.253  11.892  20.135  0.00  0.00    +0.000 A 
ATOM     15  C   UNL     1      -0.663  10.931  20.948  0.00  0.00    +0.000 A 
ATOM     16  N   UNL     1       0.132  10.004  20.392  0.00  0.00    +0.000 NA
ATOM     17  C   UNL     1       0.695   9.059  21.194  0.00  0.00    +0.000 A 
ATOM     18  C   UNL     1       0.490   9.030  22.569  0.00  0.00    +0.000 A 
ATOM     19  C   UNL     1      -0.330   9.997  23.139  0.00  0.00    +0.000 A 
ATOM     20  C   UNL     1      -0.927  10.971  22.328  0.00  0.00    +0.000 A 
ATOM     21  C   UNL     1      -1.769  11.964  22.862  0.00  0.00    +0.000 A 
ENDBRANCH  11  17
ENDBRANCH  10  11
ENDBRANCH   1  10
BRANCH   7  22
ATOM     22  C   UNL     1       4.582   5.917  16.804  0.00  0.00    +0.000 C 
BRANCH  22  23
ATOM     23  C   UNL     1       5.907   6.147  17.483  0.00  0.00    +0.000 A 
ATOM     24  C   UNL     1       6.344   5.304  18.510  0.00  0.00    +0.000 A 
ATOM     25  C   UNL     1       7.469   5.667  19.234  0.00  0.00    +0.000 A 
ATOM     26  N   UNL     1       8.227   6.747  18.952  0.00  0.00    +0.000 NA
ATOM     27  C   UNL     1       7.830   7.510  17.913  0.00  0.00    +0.000 A 
ATOM     28  C   UNL     1       6.685   7.266  17.170  0.00  0.00    +0.000 A 
ENDBRANCH  22  23
ENDBRANCH   7  22
TORSDOF 5
ENDMDL
MODEL 8
REMARK VINA RESULT:      -8.3      1.311      1.950
REMARK  Name = 
REMARK  5 active torsions:
REMARK  status: ('A' for Active; 'I' for Inactive)
REMARK    1  A    between atoms: C_6  and  C_7
REMARK    2  A    between atoms: C_7  and  O_8
REMARK    3  A    between atoms: O_8  and  C_9
REMARK    4  A    between atoms: N_15  and  C_16
REMARK    5  A    between atoms: C_16  and  C_17
REMARK                            x       y       z     vdW  Elec       q    Type
REMARK                         _______ _______ _______ _____ _____    ______ ____
ROOT
ATOM      1  C   UNL     1       1.811   5.452  20.559  0.00  0.00    +0.000 A 
ATOM      2  C   UNL     1       0.742   4.559  20.454  0.00  0.00    +0.000 A 
ATOM      3  C   UNL     1       0.900   3.326  19.809  0.00  0.00    +0.000 A 
ATOM      4  C   UNL     1       2.147   3.006  19.252  0.00  0.00    +0.000 A 
ATOM      5  N   UNL     1       2.540   1.869  18.596  0.00  0.00    +0.000 NA
ATOM      6  C   UNL     1       3.797   2.072  18.278  0.00  0.00    +0.000 A 
ATOM      7  N   UNL     1       4.233   3.304  18.688  0.00  0.00    +0.000 N 
ATOM      8  C   UNL     1       3.193   3.922  19.342  0.00  0.00    +0.000 A 
ATOM      9  C   UNL     1       3.055   5.157  19.986  0.00  0.00    +0.000 A 
ENDROOT
BRANCH   1  10
ATOM     10  O   UNL     1       1.746   6.668  21.186  0.00  0.00    +0.000 OA
BRANCH  10  11
ATOM     11  C   UNL     1       1.599   7.798  20.320  0.00  0.00    +0.000 C 
BRANCH  11  17
ATOM     12  C   UNL     1      -2.215  12.719  21.957  0.00  0.00    +0.000 A 
ATOM     13  C   UNL     1      -2.072  12.631  20.577  0.00  0.00    +0.000 A 
ATOM     14  C   UNL     1      -1.274  11.628  20.021  0.00  0.00    +0.000 A 
ATOM     15  C   UNL     1      -0.608  10.703  20.818  0.00  0.00    +0.000 A 
ATOM     16  N   UNL     1       0.146   9.759  20.232  0.00  0.00    +0.000 NA
ATOM     17  C   UNL     1       0.783   8.850  21.020  0.00  0.00    +0.000 A 
ATOM     18  C   UNL     1       0.694   8.874  22.407  0.00  0.00    +0.000 A 
ATOM     19  C   UNL     1      -0.084   9.857  23.006  0.00  0.00    +0.000 A 
ATOM     20  C   UNL     1      -0.755  10.795  22.212  0.00  0.00    +0.000 A 
ATOM     21  C   UNL     1      -1.559  11.803  22.777  0.00  0.00    +0.000 A 
ENDBRANCH  11  17
ENDBRANCH  10  11
ENDBRANCH   1  10
BRANCH   7  22
ATOM     22  C   UNL     1       5.574   3.832  18.484  0.00  0.00    +0.000 C 
BRANCH  22  23
ATOM     23  C   UNL     1       5.631   4.676  17.237  0.00  0.00    +0.000 A 
ATOM     24  C   UNL     1       5.289   6.032  17.270  0.00  0.00    +0.000 A 
ATOM     25  C   UNL     1       5.167   6.716  16.071  0.00  0.00    +0.000 A 
ATOM     26  N   UNL     1       5.444   6.175  14.867  0.00  0.00    +0.000 NA
ATOM     27  C   UNL     1       5.841   4.886  14.859  0.00  0.00    +0.000 A 
ATOM     28  C   UNL     1       5.932   4.100  15.998  0.00  0.00    +0.000 A 
ENDBRANCH  22  23
ENDBRANCH   7  22
TORSDOF 5
ENDMDL
MODEL 9
REMARK VINA RESULT:      -8.3      2.240      4.410
REMARK  Name = 
REMARK  5 active torsions:
REMARK  status: ('A' for Active; 'I' for Inactive)
REMARK    1  A    between atoms: C_6  and  C_7
REMARK    2  A    between atoms: C_7  and  O_8
REMARK    3  A    between atoms: O_8  and  C_9
REMARK    4  A    between atoms: N_15  and  C_16
REMARK    5  A    between atoms: C_16  and  C_17
REMARK                            x       y       z     vdW  Elec       q    Type
REMARK                         _______ _______ _______ _____ _____    ______ ____
ROOT
ATOM      1  C   UNL     1       2.831   7.308  18.026  0.00  0.00    +0.000 A 
ATOM      2  C   UNL     1       4.064   7.717  17.511  0.00  0.00    +0.000 A 
ATOM      3  C   UNL     1       4.949   6.788  16.950  0.00  0.00    +0.000 A 
ATOM      4  C   UNL     1       4.587   5.433  16.928  0.00  0.00    +0.000 A 
ATOM      5  N   UNL     1       5.271   4.358  16.425  0.00  0.00    +0.000 NA
ATOM      6  C   UNL     1       4.501   3.321  16.655  0.00  0.00    +0.000 A 
ATOM      7  N   UNL     1       3.348   3.676  17.303  0.00  0.00    +0.000 N 
ATOM      8  C   UNL     1       3.366   5.041  17.473  0.00  0.00    +0.000 A 
ATOM      9  C   UNL     1       2.467   5.956  18.033  0.00  0.00    +0.000 A 
ENDROOT
BRANCH   1  10
ATOM     10  O   UNL     1       1.903   8.152  18.576  0.00  0.00    +0.000 OA
BRANCH  10  11
ATOM     11  C   UNL     1       1.937   9.499  18.095  0.00  0.00    +0.000 C 
BRANCH  11  17
ATOM     12  C   UNL     1      -4.169  11.515  18.413  0.00  0.00    +0.000 A 
ATOM     13  C   UNL     1      -3.998  10.588  17.391  0.00  0.00    +0.000 A 
ATOM     14  C   UNL     1      -2.737  10.034  17.156  0.00  0.00    +0.000 A 
ATOM     15  C   UNL     1      -1.632  10.389  17.922  0.00  0.00    +0.000 A 
ATOM     16  N   UNL     1      -0.443   9.827  17.653  0.00  0.00    +0.000 NA
ATOM     17  C   UNL     1       0.629  10.170  18.417  0.00  0.00    +0.000 A 
ATOM     18  C   UNL     1       0.541  11.093  19.454  0.00  0.00    +0.000 A 
ATOM     19  C   UNL     1      -0.691  11.674  19.723  0.00  0.00    +0.000 A 
ATOM     20  C   UNL     1      -1.809  11.326  18.954  0.00  0.00    +0.000 A 
ATOM     21  C   UNL     1      -3.077  11.886  19.196  0.00  0.00    +0.000 A 
ENDBRANCH  11  17
ENDBRANCH  10  11
ENDBRANCH   1  10
BRANCH   7  22
ATOM     22  C   UNL     1       2.291   2.760  17.705  0.00  0.00    +0.000 C 
BRANCH  22  23
ATOM     23  C   UNL     1       2.225   2.646  19.206  0.00  0.00    +0.000 A 
ATOM     24  C   UNL     1       1.032   2.893  19.893  0.00  0.00    +0.000 A 
ATOM     25  C   UNL     1       1.066   2.969  21.276  0.00  0.00    +0.000 A 
ATOM     26  N   UNL     1       2.170   2.731  22.014  0.00  0.00    +0.000 NA
ATOM     27  C   UNL     1       3.296   2.425  21.338  0.00  0.00    +0.000 A 
ATOM     28  C   UNL     1       3.378   2.387  19.954  0.00  0.00    +0.000 A 
ENDBRANCH  22  23
ENDBRANCH   7  22
TORSDOF 5
ENDMDL
