MODEL 1
REMARK VINA RESULT:      -9.1      0.000      0.000
REMARK  Name = 
REMARK  6 active torsions:
REMARK  status: ('A' for Active; 'I' for Inactive)
REMARK    1  A    between atoms: C_2  and  C_15
REMARK    2  A    between atoms: N_3  and  C_4
REMARK    3  A    between atoms: C_4  and  C_5
REMARK    4  A    between atoms: C_4  and  C_12
REMARK    5  A    between atoms: C_21  and  C_22
REMARK    6  A    between atoms: C_25  and  N_26
REMARK                            x       y       z     vdW  Elec       q    Type
REMARK                         _______ _______ _______ _____ _____    ______ ____
ROOT
ATOM      1  C   UNL     1      -0.332  12.142  21.177  0.00  0.00    +0.000 A 
ATOM      2  C   UNL     1      -0.477  13.137  20.201  0.00  0.00    +0.000 A 
ATOM      3  C   UNL     1       0.176  13.060  18.971  0.00  0.00    +0.000 A 
ATOM      4  C   UNL     1       0.954  11.925  18.744  0.00  0.00    +0.000 A 
ATOM      5  N   UNL     1       1.634  11.520  17.631  0.00  0.00    +0.000 N 
ATOM      6  N   UNL     1       2.188  10.308  17.735  0.00  0.00    +0.000 NA
ATOM      7  C   UNL     1       1.828   9.884  18.958  0.00  0.00    +0.000 A 
ATOM      8  C   UNL     1       1.113  10.902  19.673  0.00  0.00    +0.000 A 
ATOM      9  C   UNL     1       0.479  11.020  20.936  0.00  0.00    +0.000 A 
ATOM     10  H   UNL     1       1.700  11.998  16.740  0.00  0.00    +0.000 HD
ENDROOT
BRANCH   7  11
ATOM     11  C   UNL     1       2.006   8.485  19.326  0.00  0.00    +0.000 A 
ATOM     12  C   UNL     1       1.550   7.970  20.531  0.00  0.00    +0.000 A 
ATOM     13  C   UNL     1       1.580   6.587  20.749  0.00  0.00    +0.000 A 
ATOM     14  C   UNL     1       2.061   5.673  19.791  0.00  0.00    +0.000 A 
ATOM     15  C   UNL     1       2.582   6.227  18.620  0.00  0.00    +0.000 A 
ATOM     16  C   UNL     1       2.557   7.605  18.388  0.00  0.00    +0.000 A 
BRANCH  14  17
ATOM     17  N   UNL     1       2.018   4.326  19.988  0.00  0.00    +0.000 N 
ATOM     18  C   UNL     1       3.172   3.450  20.191  0.00  0.00    +0.000 C 
ATOM     19  C   UNL     1       2.759   2.807  21.520  0.00  0.00    +0.000 C 
ATOM     20  C   UNL     1       1.245   2.603  21.401  0.00  0.00    +0.000 C 
ATOM     21  C   UNL     1       0.849   3.435  20.159  0.00  0.00    +0.000 C 
ATOM     22  C   UNL     1       0.806   2.475  18.942  0.00  0.00    +0.000 C 
ATOM     23  O   UNL     1       2.018   1.686  18.851  0.00  0.00    +0.000 OA
ATOM     24  C   UNL     1       3.190   2.519  18.951  0.00  0.00    +0.000 C 
ENDBRANCH  14  17
ENDBRANCH   7  11
BRANCH   1  26
ATOM     25  O   UNL     1      -1.027  11.482  23.303  0.00  0.00    +0.000 OA
ATOM     26  C   UNL     1      -1.202  12.260  22.378  0.00  0.00    +0.000 C 
ATOM     27  N   UNL     1      -2.176  13.234  22.386  0.00  0.00    +0.000 N 
ATOM     28  H   UNL     1      -2.318  13.850  21.598  0.00  0.00    +0.000 HD
BRANCH  27  29
ATOM     29  C   UNL     1      -2.962  13.451  23.587  0.00  0.00    +0.000 C 
BRANCH  29  30
ATOM     30  C   UNL     1      -4.435  13.212  23.344  0.00  0.00    +0.000 A 
ATOM     31  C   UNL     1      -5.002  13.621  22.122  0.00  0.00    +0.000 A 
ATOM     32  C   UNL     1      -6.365  13.457  21.866  0.00  0.00    +0.000 A 
ATOM     33  C   UNL     1      -7.187  12.875  22.826  0.00  0.00    +0.000 A 
ATOM     34  C   UNL     1      -6.643  12.460  24.043  0.00  0.00    +0.000 A 
ATOM     35  C   UNL     1      -5.282  12.635  24.295  0.00  0.00    +0.000 A 
ATOM     36  F   UNL     1      -4.800  12.260  25.488  0.00  0.00    +0.000 F 
ENDBRANCH  29  30
BRANCH  29  37
ATOM     37  C   UNL     1      -2.658  14.825  24.139  0.00  0.00    +0.000 C 
ATOM     38  C   UNL     1      -3.668  15.638  24.913  0.00  0.00    +0.000 C 
ATOM     39  C   UNL     1      -2.530  14.982  25.638  0.00  0.00    +0.000 C 
ENDBRANCH  29  37
ENDBRANCH  27  29
ENDBRANCH   1  26
TORSDOF 6
ENDMDL
MODEL 2
REMARK VINA RESULT:      -8.7      5.192     10.528
REMARK  Name = 
REMARK  6 active torsions:
REMARK  status: ('A' for Active; 'I' for Inactive)
REMARK    1  A    between atoms: C_2  and  C_15
REMARK    2  A    between atoms: N_3  and  C_4
REMARK    3  A    between atoms: C_4  and  C_5
REMARK    4  A    between atoms: C_4  and  C_12
REMARK    5  A    between atoms: C_21  and  C_22
REMARK    6  A    between atoms: C_25  and  N_26
REMARK                            x       y       z     vdW  Elec       q    Type
REMARK                         _______ _______ _______ _____ _____    ______ ____
ROOT
ATOM      1  C   UNL     1       1.144   9.635  18.250  0.00  0.00    +0.000 A 
ATOM      2  C   UNL     1      -0.218   9.619  17.918  0.00  0.00    +0.000 A 
ATOM      3  C   UNL     1      -1.033  10.734  18.108  0.00  0.00    +0.000 A 
ATOM      4  C   UNL     1      -0.421  11.880  18.613  0.00  0.00    +0.000 A 
ATOM      5  N   UNL     1      -0.919  13.135  18.825  0.00  0.00    +0.000 N 
ATOM      6  N   UNL     1      -0.007  14.028  19.222  0.00  0.00    +0.000 NA
ATOM      7  C   UNL     1       1.146  13.339  19.238  0.00  0.00    +0.000 A 
ATOM      8  C   UNL     1       0.929  11.952  18.940  0.00  0.00    +0.000 A 
ATOM      9  C   UNL     1       1.733  10.795  18.783  0.00  0.00    +0.000 A 
ATOM     10  H   UNL     1      -1.861  13.463  18.652  0.00  0.00    +0.000 HD
ENDROOT
BRANCH   7  11
ATOM     11  C   UNL     1       2.416  14.046  19.347  0.00  0.00    +0.000 A 
ATOM     12  C   UNL     1       2.999  14.340  20.572  0.00  0.00    +0.000 A 
ATOM     13  C   UNL     1       4.302  14.850  20.613  0.00  0.00    +0.000 A 
ATOM     14  C   UNL     1       5.068  15.088  19.453  0.00  0.00    +0.000 A 
ATOM     15  C   UNL     1       4.427  14.852  18.236  0.00  0.00    +0.000 A 
ATOM     16  C   UNL     1       3.127  14.341  18.179  0.00  0.00    +0.000 A 
BRANCH  14  17
ATOM     17  N   UNL     1       6.359  15.516  19.512  0.00  0.00    +0.000 N 
ATOM     18  C   UNL     1       6.969  16.525  18.646  0.00  0.00    +0.000 C 
ATOM     19  C   UNL     1       7.489  17.487  19.720  0.00  0.00    +0.000 C 
ATOM     20  C   UNL     1       7.985  16.578  20.850  0.00  0.00    +0.000 C 
ATOM     21  C   UNL     1       7.419  15.184  20.489  0.00  0.00    +0.000 C 
ATOM     22  C   UNL     1       8.528  14.406  19.736  0.00  0.00    +0.000 C 
ATOM     23  O   UNL     1       9.084  15.195  18.655  0.00  0.00    +0.000 OA
ATOM     24  C   UNL     1       8.042  15.756  17.832  0.00  0.00    +0.000 C 
ENDBRANCH  14  17
ENDBRANCH   7  11
BRANCH   1  26
ATOM     25  O   UNL     1       2.685   8.533  16.890  0.00  0.00    +0.000 OA
ATOM     26  C   UNL     1       1.938   8.442  17.853  0.00  0.00    +0.000 C 
ATOM     27  N   UNL     1       1.787   7.284  18.583  0.00  0.00    +0.000 N 
ATOM     28  H   UNL     1       1.144   7.226  19.360  0.00  0.00    +0.000 HD
BRANCH  27  29
ATOM     29  C   UNL     1       2.633   6.140  18.295  0.00  0.00    +0.000 C 
BRANCH  29  30
ATOM     30  C   UNL     1       2.052   4.859  18.849  0.00  0.00    +0.000 A 
ATOM     31  C   UNL     1       1.646   4.819  20.197  0.00  0.00    +0.000 A 
ATOM     32  C   UNL     1       1.140   3.648  20.765  0.00  0.00    +0.000 A 
ATOM     33  C   UNL     1       1.024   2.495  19.994  0.00  0.00    +0.000 A 
ATOM     34  C   UNL     1       1.418   2.516  18.655  0.00  0.00    +0.000 A 
ATOM     35  C   UNL     1       1.931   3.686  18.096  0.00  0.00    +0.000 A 
ATOM     36  F   UNL     1       2.335   3.661  16.819  0.00  0.00    +0.000 F 
ENDBRANCH  29  30
BRANCH  29  37
ATOM     37  C   UNL     1       4.036   6.425  18.780  0.00  0.00    +0.000 C 
ATOM     38  C   UNL     1       5.046   5.335  19.050  0.00  0.00    +0.000 C 
ATOM     39  C   UNL     1       5.185   6.189  17.825  0.00  0.00    +0.000 C 
ENDBRANCH  29  37
ENDBRANCH  27  29
ENDBRANCH   1  26
TORSDOF 6
ENDMDL
MODEL 3
REMARK VINA RESULT:      -8.7      5.192      7.982
REMARK  Name = 
REMARK  6 active torsions:
REMARK  status: ('A' for Active; 'I' for Inactive)
REMARK    1  A    between atoms: C_2  and  C_15
REMARK    2  A    between atoms: N_3  and  C_4
REMARK    3  A    between atoms: C_4  and  C_5
REMARK    4  A    between atoms: C_4  and  C_12
REMARK    5  A    between atoms: C_21  and  C_22
REMARK    6  A    between atoms: C_25  and  N_26
REMARK                            x       y       z     vdW  Elec       q    Type
REMARK                         _______ _______ _______ _____ _____    ______ ____
ROOT
ATOM      1  C   UNL     1       2.644  14.142  18.667  0.00  0.00    +0.000 A 
ATOM      2  C   UNL     1       1.587  14.936  19.133  0.00  0.00    +0.000 A 
ATOM      3  C   UNL     1       0.338  14.393  19.433  0.00  0.00    +0.000 A 
ATOM      4  C   UNL     1       0.200  13.014  19.279  0.00  0.00    +0.000 A 
ATOM      5  N   UNL     1      -0.850  12.188  19.567  0.00  0.00    +0.000 N 
ATOM      6  N   UNL     1      -0.590  10.888  19.392  0.00  0.00    +0.000 NA
ATOM      7  C   UNL     1       0.697  10.857  19.004  0.00  0.00    +0.000 A 
ATOM      8  C   UNL     1       1.223  12.182  18.837  0.00  0.00    +0.000 A 
ATOM      9  C   UNL     1       2.472  12.758  18.493  0.00  0.00    +0.000 A 
ATOM     10  H   UNL     1      -1.750  12.444  19.953  0.00  0.00    +0.000 HD
ENDROOT
BRANCH   7  11
ATOM     11  C   UNL     1       1.424   9.594  18.992  0.00  0.00    +0.000 A 
ATOM     12  C   UNL     1       1.405   8.716  20.067  0.00  0.00    +0.000 A 
ATOM     13  C   UNL     1       1.964   7.440  19.928  0.00  0.00    +0.000 A 
ATOM     14  C   UNL     1       2.558   6.992  18.732  0.00  0.00    +0.000 A 
ATOM     15  C   UNL     1       2.628   7.923  17.694  0.00  0.00    +0.000 A 
ATOM     16  C   UNL     1       2.073   9.200  17.818  0.00  0.00    +0.000 A 
BRANCH  14  17
ATOM     17  N   UNL     1       3.033   5.723  18.588  0.00  0.00    +0.000 N 
ATOM     18  C   UNL     1       2.305   4.494  18.904  0.00  0.00    +0.000 C 
ATOM     19  C   UNL     1       2.421   3.786  17.549  0.00  0.00    +0.000 C 
ATOM     20  C   UNL     1       3.833   4.120  17.054  0.00  0.00    +0.000 C 
ATOM     21  C   UNL     1       4.304   5.253  17.996  0.00  0.00    +0.000 C 
ATOM     22  C   UNL     1       5.142   4.607  19.129  0.00  0.00    +0.000 C 
ATOM     23  O   UNL     1       4.439   3.493  19.733  0.00  0.00    +0.000 OA
ATOM     24  C   UNL     1       3.089   3.859  20.083  0.00  0.00    +0.000 C 
ENDBRANCH  14  17
ENDBRANCH   7  11
BRANCH   1  26
ATOM     25  O   UNL     1       4.290  15.256  17.447  0.00  0.00    +0.000 OA
ATOM     26  C   UNL     1       3.967  14.808  18.537  0.00  0.00    +0.000 C 
ATOM     27  N   UNL     1       4.774  14.880  19.651  0.00  0.00    +0.000 N 
ATOM     28  H   UNL     1       4.495  14.480  20.536  0.00  0.00    +0.000 HD
BRANCH  27  29
ATOM     29  C   UNL     1       6.018  15.626  19.587  0.00  0.00    +0.000 C 
BRANCH  29  30
ATOM     30  C   UNL     1       7.220  14.709  19.546  0.00  0.00    +0.000 A 
ATOM     31  C   UNL     1       7.809  14.298  20.758  0.00  0.00    +0.000 A 
ATOM     32  C   UNL     1       8.942  13.483  20.771  0.00  0.00    +0.000 A 
ATOM     33  C   UNL     1       9.507  13.059  19.572  0.00  0.00    +0.000 A 
ATOM     34  C   UNL     1       8.937  13.454  18.361  0.00  0.00    +0.000 A 
ATOM     35  C   UNL     1       7.809  14.274  18.355  0.00  0.00    +0.000 A 
ATOM     36  F   UNL     1       7.309  14.665  17.175  0.00  0.00    +0.000 F 
ENDBRANCH  29  30
BRANCH  29  37
ATOM     37  C   UNL     1       6.059  16.622  20.723  0.00  0.00    +0.000 C 
ATOM     38  C   UNL     1       6.999  17.804  20.741  0.00  0.00    +0.000 C 
ATOM     39  C   UNL     1       5.539  18.020  20.468  0.00  0.00    +0.000 C 
ENDBRANCH  29  37
ENDBRANCH  27  29
ENDBRANCH   1  26
TORSDOF 6
ENDMDL
MODEL 4
REMARK VINA RESULT:      -8.7      4.487      6.790
REMARK  Name = 
REMARK  6 active torsions:
REMARK  status: ('A' for Active; 'I' for Inactive)
REMARK    1  A    between atoms: C_2  and  C_15
REMARK    2  A    between atoms: N_3  and  C_4
REMARK    3  A    between atoms: C_4  and  C_5
REMARK    4  A    between atoms: C_4  and  C_12
REMARK    5  A    between atoms: C_21  and  C_22
REMARK    6  A    between atoms: C_25  and  N_26
REMARK                            x       y       z     vdW  Elec       q    Type
REMARK                         _______ _______ _______ _____ _____    ______ ____
ROOT
ATOM      1  C   UNL     1       0.847  12.487  19.727  0.00  0.00    +0.000 A 
ATOM      2  C   UNL     1       0.234  12.745  20.961  0.00  0.00    +0.000 A 
ATOM      3  C   UNL     1      -0.162  11.714  21.814  0.00  0.00    +0.000 A 
ATOM      4  C   UNL     1       0.113  10.413  21.395  0.00  0.00    +0.000 A 
ATOM      5  N   UNL     1      -0.068   9.217  22.030  0.00  0.00    +0.000 N 
ATOM      6  N   UNL     1       0.418   8.163  21.366  0.00  0.00    +0.000 NA
ATOM      7  C   UNL     1       0.971   8.693  20.262  0.00  0.00    +0.000 A 
ATOM      8  C   UNL     1       0.736  10.107  20.189  0.00  0.00    +0.000 A 
ATOM      9  C   UNL     1       1.090  11.165  19.315  0.00  0.00    +0.000 A 
ATOM     10  H   UNL     1      -0.455   9.060  22.952  0.00  0.00    +0.000 HD
ENDROOT
BRANCH   7  11
ATOM     11  C   UNL     1       1.852   7.885  19.429  0.00  0.00    +0.000 A 
ATOM     12  C   UNL     1       2.304   8.317  18.190  0.00  0.00    +0.000 A 
ATOM     13  C   UNL     1       3.293   7.586  17.520  0.00  0.00    +0.000 A 
ATOM     14  C   UNL     1       3.863   6.410  18.048  0.00  0.00    +0.000 A 
ATOM     15  C   UNL     1       3.334   5.961  19.259  0.00  0.00    +0.000 A 
ATOM     16  C   UNL     1       2.348   6.682  19.939  0.00  0.00    +0.000 A 
BRANCH  14  17
ATOM     17  N   UNL     1       4.874   5.749  17.419  0.00  0.00    +0.000 N 
ATOM     18  C   UNL     1       5.308   4.379  17.696  0.00  0.00    +0.000 C 
ATOM     19  C   UNL     1       5.181   3.793  16.285  0.00  0.00    +0.000 C 
ATOM     20  C   UNL     1       5.649   4.916  15.353  0.00  0.00    +0.000 C 
ATOM     21  C   UNL     1       5.698   6.166  16.263  0.00  0.00    +0.000 C 
ATOM     22  C   UNL     1       7.157   6.331  16.758  0.00  0.00    +0.000 C 
ATOM     23  O   UNL     1       7.670   5.092  17.308  0.00  0.00    +0.000 OA
ATOM     24  C   UNL     1       6.747   4.522  18.256  0.00  0.00    +0.000 C 
ENDBRANCH  14  17
ENDBRANCH   7  11
BRANCH   1  26
ATOM     25  O   UNL     1       1.911  13.484  17.907  0.00  0.00    +0.000 OA
ATOM     26  C   UNL     1       1.366  13.667  18.985  0.00  0.00    +0.000 C 
ATOM     27  N   UNL     1       1.219  14.913  19.554  0.00  0.00    +0.000 N 
ATOM     28  H   UNL     1       0.787  15.036  20.459  0.00  0.00    +0.000 HD
BRANCH  27  29
ATOM     29  C   UNL     1       1.608  16.093  18.804  0.00  0.00    +0.000 C 
BRANCH  29  30
ATOM     30  C   UNL     1       2.986  16.576  19.193  0.00  0.00    +0.000 A 
ATOM     31  C   UNL     1       3.145  17.302  20.389  0.00  0.00    +0.000 A 
ATOM     32  C   UNL     1       4.391  17.802  20.772  0.00  0.00    +0.000 A 
ATOM     33  C   UNL     1       5.505  17.581  19.968  0.00  0.00    +0.000 A 
ATOM     34  C   UNL     1       5.369  16.861  18.781  0.00  0.00    +0.000 A 
ATOM     35  C   UNL     1       4.120  16.371  18.400  0.00  0.00    +0.000 A 
ATOM     36  F   UNL     1       4.017  15.717  17.235  0.00  0.00    +0.000 F 
ENDBRANCH  29  30
BRANCH  29  37
ATOM     37  C   UNL     1       0.536  17.149  18.949  0.00  0.00    +0.000 C 
ATOM     38  C   UNL     1       0.511  18.410  18.116  0.00  0.00    +0.000 C 
ATOM     39  C   UNL     1      -0.468  17.309  17.828  0.00  0.00    +0.000 C 
ENDBRANCH  29  37
ENDBRANCH  27  29
ENDBRANCH   1  26
TORSDOF 6
ENDMDL
MODEL 5
REMARK VINA RESULT:      -8.7      6.041      9.050
REMARK  Name = 
REMARK  6 active torsions:
REMARK  status: ('A' for Active; 'I' for Inactive)
REMARK    1  A    between atoms: C_2  and  C_15
REMARK    2  A    between atoms: N_3  and  C_4
REMARK    3  A    between atoms: C_4  and  C_5
REMARK    4  A    between atoms: C_4  and  C_12
REMARK    5  A    between atoms: C_21  and  C_22
REMARK    6  A    between atoms: C_25  and  N_26
REMARK                            x       y       z     vdW  Elec       q    Type
REMARK                         _______ _______ _______ _____ _____    ______ ____
ROOT
ATOM      1  C   UNL     1       1.541  14.038  20.427  0.00  0.00    +0.000 A 
ATOM      2  C   UNL     1       0.652  15.107  20.248  0.00  0.00    +0.000 A 
ATOM      3  C   UNL     1       1.103  16.418  20.093  0.00  0.00    +0.000 A 
ATOM      4  C   UNL     1       2.484  16.610  20.091  0.00  0.00    +0.000 A 
ATOM      5  N   UNL     1       3.225  17.738  19.877  0.00  0.00    +0.000 N 
ATOM      6  N   UNL     1       4.545  17.530  19.838  0.00  0.00    +0.000 NA
ATOM      7  C   UNL     1       4.675  16.202  19.999  0.00  0.00    +0.000 A 
ATOM      8  C   UNL     1       3.405  15.580  20.245  0.00  0.00    +0.000 A 
ATOM      9  C   UNL     1       2.928  14.260  20.447  0.00  0.00    +0.000 A 
ATOM     10  H   UNL     1       2.885  18.672  19.683  0.00  0.00    +0.000 HD
ENDROOT
BRANCH   7  11
ATOM     11  C   UNL     1       5.954  15.558  19.728  0.00  0.00    +0.000 A 
ATOM     12  C   UNL     1       6.853  15.239  20.737  0.00  0.00    +0.000 A 
ATOM     13  C   UNL     1       7.975  14.456  20.442  0.00  0.00    +0.000 A 
ATOM     14  C   UNL     1       8.246  13.966  19.149  0.00  0.00    +0.000 A 
ATOM     15  C   UNL     1       7.365  14.365  18.143  0.00  0.00    +0.000 A 
ATOM     16  C   UNL     1       6.240  15.146  18.423  0.00  0.00    +0.000 A 
BRANCH  14  17
ATOM     17  N   UNL     1       9.302  13.145  18.891  0.00  0.00    +0.000 N 
ATOM     18  C   UNL     1      10.170  12.522  19.891  0.00  0.00    +0.000 C 
ATOM     19  C   UNL     1      10.013  11.056  19.471  0.00  0.00    +0.000 C 
ATOM     20  C   UNL     1       9.968  11.092  17.939  0.00  0.00    +0.000 C 
ATOM     21  C   UNL     1       9.773  12.590  17.603  0.00  0.00    +0.000 C 
ATOM     22  C   UNL     1      11.170  13.193  17.311  0.00  0.00    +0.000 C 
ATOM     23  O   UNL     1      12.114  12.869  18.361  0.00  0.00    +0.000 OA
ATOM     24  C   UNL     1      11.565  13.160  19.662  0.00  0.00    +0.000 C 
ENDBRANCH  14  17
ENDBRANCH   7  11
BRANCH   1  26
ATOM     25  O   UNL     1       0.857  12.071  21.477  0.00  0.00    +0.000 OA
ATOM     26  C   UNL     1       0.947  12.674  20.419  0.00  0.00    +0.000 C 
ATOM     27  N   UNL     1       0.536  12.148  19.214  0.00  0.00    +0.000 N 
ATOM     28  H   UNL     1       0.644  12.656  18.348  0.00  0.00    +0.000 HD
BRANCH  27  29
ATOM     29  C   UNL     1      -0.153  10.870  19.188  0.00  0.00    +0.000 C 
BRANCH  29  30
ATOM     30  C   UNL     1       0.815   9.713  19.095  0.00  0.00    +0.000 A 
ATOM     31  C   UNL     1       1.478   9.472  17.876  0.00  0.00    +0.000 A 
ATOM     32  C   UNL     1       2.352   8.393  17.728  0.00  0.00    +0.000 A 
ATOM     33  C   UNL     1       2.583   7.535  18.800  0.00  0.00    +0.000 A 
ATOM     34  C   UNL     1       1.938   7.759  20.016  0.00  0.00    +0.000 A 
ATOM     35  C   UNL     1       1.060   8.834  20.155  0.00  0.00    +0.000 A 
ATOM     36  F   UNL     1       0.428   8.997  21.325  0.00  0.00    +0.000 F 
ENDBRANCH  29  30
BRANCH  29  37
ATOM     37  C   UNL     1      -1.184  10.884  18.083  0.00  0.00    +0.000 C 
ATOM     38  C   UNL     1      -2.277   9.847  17.970  0.00  0.00    +0.000 C 
ATOM     39  C   UNL     1      -2.613  11.232  18.442  0.00  0.00    +0.000 C 
ENDBRANCH  29  37
ENDBRANCH  27  29
ENDBRANCH   1  26
TORSDOF 6
ENDMDL
MODEL 6
REMARK VINA RESULT:      -8.7      0.613      1.225
REMARK  Name = 
REMARK  6 active torsions:
REMARK  status: ('A' for Active; 'I' for Inactive)
REMARK    1  A    between atoms: C_2  and  C_15
REMARK    2  A    between atoms: N_3  and  C_4
REMARK    3  A    between atoms: C_4  and  C_5
REMARK    4  A    between atoms: C_4  and  C_12
REMARK    5  A    between atoms: C_21  and  C_22
REMARK    6  A    between atoms: C_25  and  N_26
REMARK                            x       y       z     vdW  Elec       q    Type
REMARK                         _______ _______ _______ _____ _____    ______ ____
ROOT
ATOM      1  C   UNL     1      -0.234  12.294  21.110  0.00  0.00    +0.000 A 
ATOM      2  C   UNL     1      -0.364  13.310  20.154  0.00  0.00    +0.000 A 
ATOM      3  C   UNL     1       0.306  13.258  18.932  0.00  0.00    +0.000 A 
ATOM      4  C   UNL     1       1.086  12.127  18.692  0.00  0.00    +0.000 A 
ATOM      5  N   UNL     1       1.782  11.746  17.580  0.00  0.00    +0.000 N 
ATOM      6  N   UNL     1       2.335  10.532  17.666  0.00  0.00    +0.000 NA
ATOM      7  C   UNL     1       1.957  10.082  18.875  0.00  0.00    +0.000 A 
ATOM      8  C   UNL     1       1.232  11.085  19.602  0.00  0.00    +0.000 A 
ATOM      9  C   UNL     1       0.580  11.177  20.857  0.00  0.00    +0.000 A 
ATOM     10  H   UNL     1       1.861  12.242  16.701  0.00  0.00    +0.000 HD
ENDROOT
BRANCH   7  11
ATOM     11  C   UNL     1       2.129   8.675  19.215  0.00  0.00    +0.000 A 
ATOM     12  C   UNL     1       1.643   8.132  20.397  0.00  0.00    +0.000 A 
ATOM     13  C   UNL     1       1.671   6.745  20.584  0.00  0.00    +0.000 A 
ATOM     14  C   UNL     1       2.179   5.854  19.618  0.00  0.00    +0.000 A 
ATOM     15  C   UNL     1       2.727   6.435  18.474  0.00  0.00    +0.000 A 
ATOM     16  C   UNL     1       2.705   7.818  18.273  0.00  0.00    +0.000 A 
BRANCH  14  17
ATOM     17  N   UNL     1       2.134   4.502  19.783  0.00  0.00    +0.000 N 
ATOM     18  C   UNL     1       1.163   3.769  20.597  0.00  0.00    +0.000 C 
ATOM     19  C   UNL     1       0.627   2.808  19.529  0.00  0.00    +0.000 C 
ATOM     20  C   UNL     1       1.854   2.430  18.693  0.00  0.00    +0.000 C 
ATOM     21  C   UNL     1       2.936   3.445  19.130  0.00  0.00    +0.000 C 
ATOM     22  C   UNL     1       3.803   2.768  20.223  0.00  0.00    +0.000 C 
ATOM     23  O   UNL     1       2.979   2.189  21.265  0.00  0.00    +0.000 OA
ATOM     24  C   UNL     1       1.999   3.134  21.738  0.00  0.00    +0.000 C 
ENDBRANCH  14  17
ENDBRANCH   7  11
BRANCH   1  26
ATOM     25  O   UNL     1      -1.109  11.472  23.109  0.00  0.00    +0.000 OA
ATOM     26  C   UNL     1      -1.122  12.387  22.301  0.00  0.00    +0.000 C 
ATOM     27  N   UNL     1      -1.926  13.497  22.430  0.00  0.00    +0.000 N 
ATOM     28  H   UNL     1      -1.937  14.230  21.735  0.00  0.00    +0.000 HD
BRANCH  27  29
ATOM     29  C   UNL     1      -2.715  13.673  23.637  0.00  0.00    +0.000 C 
BRANCH  29  30
ATOM     30  C   UNL     1      -4.176  13.364  23.402  0.00  0.00    +0.000 A 
ATOM     31  C   UNL     1      -4.773  13.762  22.189  0.00  0.00    +0.000 A 
ATOM     32  C   UNL     1      -6.128  13.534  21.941  0.00  0.00    +0.000 A 
ATOM     33  C   UNL     1      -6.912  12.899  22.899  0.00  0.00    +0.000 A 
ATOM     34  C   UNL     1      -6.339  12.496  24.106  0.00  0.00    +0.000 A 
ATOM     35  C   UNL     1      -4.986  12.734  24.351  0.00  0.00    +0.000 A 
ATOM     36  F   UNL     1      -4.477  12.368  25.535  0.00  0.00    +0.000 F 
ENDBRANCH  29  30
BRANCH  29  37
ATOM     37  C   UNL     1      -2.473  15.059  24.190  0.00  0.00    +0.000 C 
ATOM     38  C   UNL     1      -3.466  15.769  25.080  0.00  0.00    +0.000 C 
ATOM     39  C   UNL     1      -2.210  15.200  25.674  0.00  0.00    +0.000 C 
ENDBRANCH  29  37
ENDBRANCH  27  29
ENDBRANCH   1  26
TORSDOF 6
ENDMDL
MODEL 7
REMARK VINA RESULT:      -8.7      6.164      9.368
REMARK  Name = 
REMARK  6 active torsions:
REMARK  status: ('A' for Active; 'I' for Inactive)
REMARK    1  A    between atoms: C_2  and  C_15
REMARK    2  A    between atoms: N_3  and  C_4
REMARK    3  A    between atoms: C_4  and  C_5
REMARK    4  A    between atoms: C_4  and  C_12
REMARK    5  A    between atoms: C_21  and  C_22
REMARK    6  A    between atoms: C_25  and  N_26
REMARK                            x       y       z     vdW  Elec       q    Type
REMARK                         _______ _______ _______ _____ _____    ______ ____
ROOT
ATOM      1  C   UNL     1       1.318  13.987  19.534  0.00  0.00    +0.000 A 
ATOM      2  C   UNL     1       0.509  15.045  19.098  0.00  0.00    +0.000 A 
ATOM      3  C   UNL     1       1.047  16.278  18.731  0.00  0.00    +0.000 A 
ATOM      4  C   UNL     1       2.435  16.399  18.787  0.00  0.00    +0.000 A 
ATOM      5  N   UNL     1       3.254  17.428  18.418  0.00  0.00    +0.000 N 
ATOM      6  N   UNL     1       4.559  17.152  18.509  0.00  0.00    +0.000 NA
ATOM      7  C   UNL     1       4.598  15.875  18.924  0.00  0.00    +0.000 A 
ATOM      8  C   UNL     1       3.281  15.373  19.195  0.00  0.00    +0.000 A 
ATOM      9  C   UNL     1       2.714  14.141  19.607  0.00  0.00    +0.000 A 
ATOM     10  H   UNL     1       2.984  18.323  18.029  0.00  0.00    +0.000 HD
ENDROOT
BRANCH   7  11
ATOM     11  C   UNL     1       5.849  15.129  18.867  0.00  0.00    +0.000 A 
ATOM     12  C   UNL     1       6.230  14.402  17.747  0.00  0.00    +0.000 A 
ATOM     13  C   UNL     1       7.520  13.863  17.678  0.00  0.00    +0.000 A 
ATOM     14  C   UNL     1       8.470  14.020  18.706  0.00  0.00    +0.000 A 
ATOM     15  C   UNL     1       8.033  14.691  19.849  0.00  0.00    +0.000 A 
ATOM     16  C   UNL     1       6.749  15.236  19.932  0.00  0.00    +0.000 A 
BRANCH  14  17
ATOM     17  N   UNL     1       9.745  13.552  18.594  0.00  0.00    +0.000 N 
ATOM     18  C   UNL     1      10.197  12.203  18.934  0.00  0.00    +0.000 C 
ATOM     19  C   UNL     1      10.836  11.815  17.595  0.00  0.00    +0.000 C 
ATOM     20  C   UNL     1      11.512  13.098  17.100  0.00  0.00    +0.000 C 
ATOM     21  C   UNL     1      10.941  14.204  18.018  0.00  0.00    +0.000 C 
ATOM     22  C   UNL     1      11.955  14.431  19.168  0.00  0.00    +0.000 C 
ATOM     23  O   UNL     1      12.329  13.179  19.795  0.00  0.00    +0.000 OA
ATOM     24  C   UNL     1      11.166  12.397  20.130  0.00  0.00    +0.000 C 
ENDBRANCH  14  17
ENDBRANCH   7  11
BRANCH   1  26
ATOM     25  O   UNL     1       0.162  12.437  20.837  0.00  0.00    +0.000 OA
ATOM     26  C   UNL     1       0.644  12.678  19.741  0.00  0.00    +0.000 C 
ATOM     27  N   UNL     1       0.605  11.790  18.688  0.00  0.00    +0.000 N 
ATOM     28  H   UNL     1       1.034  12.002  17.798  0.00  0.00    +0.000 HD
BRANCH  27  29
ATOM     29  C   UNL     1      -0.145  10.554  18.821  0.00  0.00    +0.000 C 
BRANCH  29  30
ATOM     30  C   UNL     1       0.762   9.371  19.071  0.00  0.00    +0.000 A 
ATOM     31  C   UNL     1       1.530   8.861  18.006  0.00  0.00    +0.000 A 
ATOM     32  C   UNL     1       2.353   7.746  18.177  0.00  0.00    +0.000 A 
ATOM     33  C   UNL     1       2.428   7.122  19.419  0.00  0.00    +0.000 A 
ATOM     34  C   UNL     1       1.677   7.614  20.487  0.00  0.00    +0.000 A 
ATOM     35  C   UNL     1       0.850   8.723  20.307  0.00  0.00    +0.000 A 
ATOM     36  F   UNL     1       0.114   9.147  21.344  0.00  0.00    +0.000 F 
ENDBRANCH  29  30
BRANCH  29  37
ATOM     37  C   UNL     1      -1.039  10.384  17.614  0.00  0.00    +0.000 C 
ATOM     38  C   UNL     1      -2.455   9.867  17.711  0.00  0.00    +0.000 C 
ATOM     39  C   UNL     1      -2.213  11.326  17.455  0.00  0.00    +0.000 C 
ENDBRANCH  29  37
ENDBRANCH  27  29
ENDBRANCH   1  26
TORSDOF 6
ENDMDL
MODEL 8
REMARK VINA RESULT:      -8.6      4.961     10.388
REMARK  Name = 
REMARK  6 active torsions:
REMARK  status: ('A' for Active; 'I' for Inactive)
REMARK    1  A    between atoms: C_2  and  C_15
REMARK    2  A    between atoms: N_3  and  C_4
REMARK    3  A    between atoms: C_4  and  C_5
REMARK    4  A    between atoms: C_4  and  C_12
REMARK    5  A    between atoms: C_21  and  C_22
REMARK    6  A    between atoms: C_25  and  N_26
REMARK                            x       y       z     vdW  Elec       q    Type
REMARK                         _______ _______ _______ _____ _____    ______ ____
ROOT
ATOM      1  C   UNL     1       1.130   9.706  18.241  0.00  0.00    +0.000 A 
ATOM      2  C   UNL     1      -0.235   9.693  17.924  0.00  0.00    +0.000 A 
ATOM      3  C   UNL     1      -1.044  10.812  18.119  0.00  0.00    +0.000 A 
ATOM      4  C   UNL     1      -0.422  11.958  18.613  0.00  0.00    +0.000 A 
ATOM      5  N   UNL     1      -0.914  13.215  18.827  0.00  0.00    +0.000 N 
ATOM      6  N   UNL     1       0.006  14.107  19.210  0.00  0.00    +0.000 NA
ATOM      7  C   UNL     1       1.157  13.413  19.216  0.00  0.00    +0.000 A 
ATOM      8  C   UNL     1       0.931  12.026  18.925  0.00  0.00    +0.000 A 
ATOM      9  C   UNL     1       1.730  10.865  18.763  0.00  0.00    +0.000 A 
ATOM     10  H   UNL     1      -1.857  13.545  18.663  0.00  0.00    +0.000 HD
ENDROOT
BRANCH   7  11
ATOM     11  C   UNL     1       2.430  14.116  19.308  0.00  0.00    +0.000 A 
ATOM     12  C   UNL     1       2.961  14.535  20.520  0.00  0.00    +0.000 A 
ATOM     13  C   UNL     1       4.268  15.035  20.567  0.00  0.00    +0.000 A 
ATOM     14  C   UNL     1       5.088  15.139  19.426  0.00  0.00    +0.000 A 
ATOM     15  C   UNL     1       4.501  14.780  18.213  0.00  0.00    +0.000 A 
ATOM     16  C   UNL     1       3.198  14.278  18.150  0.00  0.00    +0.000 A 
BRANCH  14  17
ATOM     17  N   UNL     1       6.382  15.559  19.499  0.00  0.00    +0.000 N 
ATOM     18  C   UNL     1       7.008  16.565  18.641  0.00  0.00    +0.000 C 
ATOM     19  C   UNL     1       7.522  17.523  19.722  0.00  0.00    +0.000 C 
ATOM     20  C   UNL     1       7.999  16.610  20.856  0.00  0.00    +0.000 C 
ATOM     21  C   UNL     1       7.429  15.220  20.488  0.00  0.00    +0.000 C 
ATOM     22  C   UNL     1       8.542  14.436  19.747  0.00  0.00    +0.000 C 
ATOM     23  O   UNL     1       9.114  15.222  18.672  0.00  0.00    +0.000 OA
ATOM     24  C   UNL     1       8.085  15.790  17.838  0.00  0.00    +0.000 C 
ENDBRANCH  14  17
ENDBRANCH   7  11
BRANCH   1  26
ATOM     25  O   UNL     1       2.648   8.592  16.864  0.00  0.00    +0.000 OA
ATOM     26  C   UNL     1       1.916   8.509  17.839  0.00  0.00    +0.000 C 
ATOM     27  N   UNL     1       1.773   7.356  18.579  0.00  0.00    +0.000 N 
ATOM     28  H   UNL     1       1.143   7.304  19.366  0.00  0.00    +0.000 HD
BRANCH  27  29
ATOM     29  C   UNL     1       2.612   6.208  18.284  0.00  0.00    +0.000 C 
BRANCH  29  30
ATOM     30  C   UNL     1       2.033   4.931  18.848  0.00  0.00    +0.000 A 
ATOM     31  C   UNL     1       1.780   3.851  17.978  0.00  0.00    +0.000 A 
ATOM     32  C   UNL     1       1.210   2.665  18.444  0.00  0.00    +0.000 A 
ATOM     33  C   UNL     1       0.886   2.533  19.791  0.00  0.00    +0.000 A 
ATOM     34  C   UNL     1       1.131   3.589  20.669  0.00  0.00    +0.000 A 
ATOM     35  C   UNL     1       1.693   4.775  20.196  0.00  0.00    +0.000 A 
ATOM     36  F   UNL     1       1.880   5.783  21.058  0.00  0.00    +0.000 F 
ENDBRANCH  29  30
BRANCH  29  37
ATOM     37  C   UNL     1       4.021   6.490  18.754  0.00  0.00    +0.000 C 
ATOM     38  C   UNL     1       5.043   5.399  18.979  0.00  0.00    +0.000 C 
ATOM     39  C   UNL     1       5.156   6.287  17.774  0.00  0.00    +0.000 C 
ENDBRANCH  29  37
ENDBRANCH  27  29
ENDBRANCH   1  26
TORSDOF 6
ENDMDL
MODEL 9
REMARK VINA RESULT:      -8.6      0.809      1.634
REMARK  Name = 
REMARK  6 active torsions:
REMARK  status: ('A' for Active; 'I' for Inactive)
REMARK    1  A    between atoms: C_2  and  C_15
REMARK    2  A    between atoms: N_3  and  C_4
REMARK    3  A    between atoms: C_4  and  C_5
REMARK    4  A    between atoms: C_4  and  C_12
REMARK    5  A    between atoms: C_21  and  C_22
REMARK    6  A    between atoms: C_25  and  N_26
REMARK                            x       y       z     vdW  Elec       q    Type
REMARK                         _______ _______ _______ _____ _____    ______ ____
ROOT
ATOM      1  C   UNL     1      -0.135  11.838  21.283  0.00  0.00    +0.000 A 
ATOM      2  C   UNL     1      -0.096  12.989  20.485  0.00  0.00    +0.000 A 
ATOM      3  C   UNL     1       0.624  13.030  19.291  0.00  0.00    +0.000 A 
ATOM      4  C   UNL     1       1.276  11.858  18.911  0.00  0.00    +0.000 A 
ATOM      5  N   UNL     1       1.978  11.558  17.777  0.00  0.00    +0.000 N 
ATOM      6  N   UNL     1       2.377  10.284  17.699  0.00  0.00    +0.000 NA
ATOM      7  C   UNL     1       1.888   9.715  18.815  0.00  0.00    +0.000 A 
ATOM      8  C   UNL     1       1.252  10.686  19.659  0.00  0.00    +0.000 A 
ATOM      9  C   UNL     1       0.553  10.676  20.892  0.00  0.00    +0.000 A 
ATOM     10  H   UNL     1       2.159  12.161  16.985  0.00  0.00    +0.000 HD
ENDROOT
BRANCH   7  11
ATOM     11  C   UNL     1       1.876   8.264  18.947  0.00  0.00    +0.000 A 
ATOM     12  C   UNL     1       2.183   7.420  17.888  0.00  0.00    +0.000 A 
ATOM     13  C   UNL     1       2.338   6.048  18.120  0.00  0.00    +0.000 A 
ATOM     14  C   UNL     1       2.194   5.467  19.396  0.00  0.00    +0.000 A 
ATOM     15  C   UNL     1       1.811   6.330  20.424  0.00  0.00    +0.000 A 
ATOM     16  C   UNL     1       1.655   7.702  20.208  0.00  0.00    +0.000 A 
BRANCH  14  17
ATOM     17  N   UNL     1       2.418   4.142  19.619  0.00  0.00    +0.000 N 
ATOM     18  C   UNL     1       1.548   3.239  20.372  0.00  0.00    +0.000 C 
ATOM     19  C   UNL     1       1.337   2.158  19.306  0.00  0.00    +0.000 C 
ATOM     20  C   UNL     1       2.694   2.030  18.606  0.00  0.00    +0.000 C 
ATOM     21  C   UNL     1       3.488   3.265  19.093  0.00  0.00    +0.000 C 
ATOM     22  C   UNL     1       4.363   2.819  20.292  0.00  0.00    +0.000 C 
ATOM     23  O   UNL     1       3.580   2.104  21.279  0.00  0.00    +0.000 OA
ATOM     24  C   UNL     1       2.380   2.828  21.615  0.00  0.00    +0.000 C 
ENDBRANCH  14  17
ENDBRANCH   7  11
BRANCH   1  26
ATOM     25  O   UNL     1      -0.917  11.038  23.329  0.00  0.00    +0.000 OA
ATOM     26  C   UNL     1      -1.063  11.867  22.445  0.00  0.00    +0.000 C 
ATOM     27  N   UNL     1      -2.055  12.823  22.463  0.00  0.00    +0.000 N 
ATOM     28  H   UNL     1      -2.172  13.483  21.707  0.00  0.00    +0.000 HD
BRANCH  27  29
ATOM     29  C   UNL     1      -2.902  12.954  23.635  0.00  0.00    +0.000 C 
BRANCH  29  30
ATOM     30  C   UNL     1      -4.368  12.833  23.285  0.00  0.00    +0.000 A 
ATOM     31  C   UNL     1      -4.778  13.086  21.961  0.00  0.00    +0.000 A 
ATOM     32  C   UNL     1      -6.124  13.025  21.597  0.00  0.00    +0.000 A 
ATOM     33  C   UNL     1      -7.088  12.705  22.549  0.00  0.00    +0.000 A 
ATOM     34  C   UNL     1      -6.701  12.448  23.865  0.00  0.00    +0.000 A 
ATOM     35  C   UNL     1      -5.355  12.519  24.224  0.00  0.00    +0.000 A 
ATOM     36  F   UNL     1      -5.022  12.304  25.504  0.00  0.00    +0.000 F 
ENDBRANCH  29  30
BRANCH  29  37
ATOM     37  C   UNL     1      -2.559  14.237  24.356  0.00  0.00    +0.000 C 
ATOM     38  C   UNL     1      -1.218  14.920  24.218  0.00  0.00    +0.000 C 
ATOM     39  C   UNL     1      -2.422  15.502  23.537  0.00  0.00    +0.000 C 
ENDBRANCH  29  37
ENDBRANCH  27  29
ENDBRANCH   1  26
TORSDOF 6
ENDMDL
