MODEL 1
REMARK VINA RESULT:      -8.5      0.000      0.000
REMARK  Name = 
REMARK  7 active torsions:
REMARK  status: ('A' for Active; 'I' for Inactive)
REMARK    1  A    between atoms: C_1  and  O_2
REMARK    2  A    between atoms: O_2  and  C_3
REMARK    3  A    between atoms: C_8  and  C_9
REMARK    4  A    between atoms: C_9  and  C_10
REMARK    5  A    between atoms: C_10  and  N_11
REMARK    6  A    between atoms: N_23  and  S_24
REMARK    7  A    between atoms: S_24  and  C_27
REMARK                            x       y       z     vdW  Elec       q    Type
REMARK                         _______ _______ _______ _____ _____    ______ ____
ROOT
ATOM      1  N   UNL     1       2.320   7.600  18.912  0.00  0.00    +0.000 N 
ATOM      2  C   UNL     1       2.035   7.047  20.145  0.00  0.00    +0.000 A 
ATOM      3  N   UNL     1       1.320   7.584  21.086  0.00  0.00    +0.000 NA
ATOM      4  C   UNL     1       0.872   8.831  20.797  0.00  0.00    +0.000 A 
ATOM      5  S   UNL     1      -0.018   9.761  21.922  0.00  0.00    +0.000 S 
ATOM      6  C   UNL     1      -0.053  11.103  20.873  0.00  0.00    +0.000 A 
ATOM      7  C   UNL     1       0.546  10.834  19.654  0.00  0.00    +0.000 A 
ATOM      8  C   UNL     1       1.095   9.522  19.629  0.00  0.00    +0.000 A 
ATOM      9  C   UNL     1       1.884   8.889  18.594  0.00  0.00    +0.000 A 
ATOM     10  O   UNL     1       2.151   9.463  17.541  0.00  0.00    +0.000 OA
ATOM     11  C   UNL     1       0.692  11.886  18.597  0.00  0.00    +0.000 C 
ATOM     12  C   UNL     1      -0.118  13.134  18.957  0.00  0.00    +0.000 C 
ATOM     13  N   UNL     1      -0.004  13.501  20.409  0.00  0.00    +0.000 NA
ATOM     14  C   UNL     1      -0.617  12.435  21.273  0.00  0.00    +0.000 C 
ENDROOT
BRANCH  13  15
ATOM     15  S   UNL     1       1.523  14.022  20.991  0.00  0.00    +0.000 S 
ATOM     16  O   UNL     1       1.287  14.862  22.149  0.00  0.00    +0.000 OA
ATOM     17  O   UNL     1       2.417  12.886  21.074  0.00  0.00    +0.000 OA
BRANCH  15  18
ATOM     18  C   UNL     1       2.109  15.063  19.679  0.00  0.00    +0.000 A 
ATOM     19  C   UNL     1       1.464  16.277  19.438  0.00  0.00    +0.000 A 
ATOM     20  C   UNL     1       1.879  17.066  18.368  0.00  0.00    +0.000 A 
ATOM     21  C   UNL     1       2.934  16.645  17.554  0.00  0.00    +0.000 A 
ATOM     22  C   UNL     1       3.586  15.438  17.810  0.00  0.00    +0.000 A 
ATOM     23  C   UNL     1       3.177  14.640  18.878  0.00  0.00    +0.000 A 
ENDBRANCH  15  18
ENDBRANCH  13  15
BRANCH   1  24
ATOM     24  C   UNL     1       3.252   6.998  17.962  0.00  0.00    +0.000 C 
BRANCH  24  25
ATOM     25  C   UNL     1       4.012   5.758  18.425  0.00  0.00    +0.000 C 
BRANCH  25  31
ATOM     26  C   UNL     1       6.355   4.961  17.813  0.00  0.00    +0.000 A 
ATOM     27  C   UNL     1       7.290   4.588  16.843  0.00  0.00    +0.000 A 
ATOM     28  C   UNL     1       7.008   4.765  15.489  0.00  0.00    +0.000 A 
ATOM     29  C   UNL     1       5.777   5.281  15.094  0.00  0.00    +0.000 A 
ATOM     30  C   UNL     1       4.808   5.574  16.051  0.00  0.00    +0.000 A 
ATOM     31  C   UNL     1       5.079   5.396  17.418  0.00  0.00    +0.000 A 
BRANCH  26  33
ATOM     32  C   UNL     1       7.766   5.653  19.587  0.00  0.00    +0.000 C 
ATOM     33  O   UNL     1       6.613   4.927  19.158  0.00  0.00    +0.000 OA
ENDBRANCH  26  33
ENDBRANCH  25  31
ENDBRANCH  24  25
ENDBRANCH   1  24
TORSDOF 6
ENDMDL
MODEL 2
REMARK VINA RESULT:      -8.4      1.098      1.628
REMARK  Name = 
REMARK  7 active torsions:
REMARK  status: ('A' for Active; 'I' for Inactive)
REMARK    1  A    between atoms: C_1  and  O_2
REMARK    2  A    between atoms: O_2  and  C_3
REMARK    3  A    between atoms: C_8  and  C_9
REMARK    4  A    between atoms: C_9  and  C_10
REMARK    5  A    between atoms: C_10  and  N_11
REMARK    6  A    between atoms: N_23  and  S_24
REMARK    7  A    between atoms: S_24  and  C_27
REMARK                            x       y       z     vdW  Elec       q    Type
REMARK                         _______ _______ _______ _____ _____    ______ ____
ROOT
ATOM      1  N   UNL     1       2.282   7.962  18.551  0.00  0.00    +0.000 N 
ATOM      2  C   UNL     1       2.194   7.295  19.758  0.00  0.00    +0.000 A 
ATOM      3  N   UNL     1       1.565   7.698  20.819  0.00  0.00    +0.000 NA
ATOM      4  C   UNL     1       0.994   8.922  20.693  0.00  0.00    +0.000 A 
ATOM      5  S   UNL     1       0.186   9.687  21.990  0.00  0.00    +0.000 S 
ATOM      6  C   UNL     1      -0.078  11.097  21.071  0.00  0.00    +0.000 A 
ATOM      7  C   UNL     1       0.382  10.971  19.772  0.00  0.00    +0.000 A 
ATOM      8  C   UNL     1       1.019   9.715  19.570  0.00  0.00    +0.000 A 
ATOM      9  C   UNL     1       1.716   9.231  18.399  0.00  0.00    +0.000 A 
ATOM     10  O   UNL     1       1.807   9.903  17.373  0.00  0.00    +0.000 OA
ATOM     11  C   UNL     1       0.317  12.109  18.799  0.00  0.00    +0.000 C 
ATOM     12  C   UNL     1      -0.531  13.254  19.357  0.00  0.00    +0.000 C 
ATOM     13  N   UNL     1      -0.263  13.519  20.812  0.00  0.00    +0.000 NA
ATOM     14  C   UNL     1      -0.684  12.343  21.648  0.00  0.00    +0.000 C 
ENDROOT
BRANCH  13  15
ATOM     15  S   UNL     1       1.283  14.119  21.250  0.00  0.00    +0.000 S 
ATOM     16  O   UNL     1       1.111  14.951  22.425  0.00  0.00    +0.000 OA
ATOM     17  O   UNL     1       2.237  13.030  21.250  0.00  0.00    +0.000 OA
BRANCH  15  18
ATOM     18  C   UNL     1       1.691  15.183  19.890  0.00  0.00    +0.000 A 
ATOM     19  C   UNL     1       2.718  14.808  19.022  0.00  0.00    +0.000 A 
ATOM     20  C   UNL     1       3.086  15.671  17.993  0.00  0.00    +0.000 A 
ATOM     21  C   UNL     1       2.425  16.892  17.832  0.00  0.00    +0.000 A 
ATOM     22  C   UNL     1       1.388  17.254  18.693  0.00  0.00    +0.000 A 
ATOM     23  C   UNL     1       1.013  16.397  19.727  0.00  0.00    +0.000 A 
ENDBRANCH  15  18
ENDBRANCH  13  15
BRANCH   1  24
ATOM     24  C   UNL     1       3.130   7.513  17.449  0.00  0.00    +0.000 C 
BRANCH  24  25
ATOM     25  C   UNL     1       3.683   6.094  17.533  0.00  0.00    +0.000 C 
BRANCH  25  31
ATOM     26  C   UNL     1       5.653   5.379  18.987  0.00  0.00    +0.000 A 
ATOM     27  C   UNL     1       7.022   5.404  19.264  0.00  0.00    +0.000 A 
ATOM     28  C   UNL     1       7.866   6.264  18.561  0.00  0.00    +0.000 A 
ATOM     29  C   UNL     1       7.354   7.076  17.554  0.00  0.00    +0.000 A 
ATOM     30  C   UNL     1       6.006   6.993  17.214  0.00  0.00    +0.000 A 
ATOM     31  C   UNL     1       5.146   6.128  17.911  0.00  0.00    +0.000 A 
BRANCH  26  33
ATOM     32  C   UNL     1       4.643   3.269  19.368  0.00  0.00    +0.000 C 
ATOM     33  O   UNL     1       4.751   4.650  19.717  0.00  0.00    +0.000 OA
ENDBRANCH  26  33
ENDBRANCH  25  31
ENDBRANCH  24  25
ENDBRANCH   1  24
TORSDOF 6
ENDMDL
MODEL 3
REMARK VINA RESULT:      -8.3      1.068      1.281
REMARK  Name = 
REMARK  7 active torsions:
REMARK  status: ('A' for Active; 'I' for Inactive)
REMARK    1  A    between atoms: C_1  and  O_2
REMARK    2  A    between atoms: O_2  and  C_3
REMARK    3  A    between atoms: C_8  and  C_9
REMARK    4  A    between atoms: C_9  and  C_10
REMARK    5  A    between atoms: C_10  and  N_11
REMARK    6  A    between atoms: N_23  and  S_24
REMARK    7  A    between atoms: S_24  and  C_27
REMARK                            x       y       z     vdW  Elec       q    Type
REMARK                         _______ _______ _______ _____ _____    ______ ____
ROOT
ATOM      1  N   UNL     1       2.174   7.795  18.886  0.00  0.00    +0.000 N 
ATOM      2  C   UNL     1       1.959   7.230  20.128  0.00  0.00    +0.000 A 
ATOM      3  N   UNL     1       1.315   7.767  21.119  0.00  0.00    +0.000 NA
ATOM      4  C   UNL     1       0.871   9.026  20.875  0.00  0.00    +0.000 A 
ATOM      5  S   UNL     1       0.071   9.955  22.065  0.00  0.00    +0.000 S 
ATOM      6  C   UNL     1      -0.007  11.311  21.037  0.00  0.00    +0.000 A 
ATOM      7  C   UNL     1       0.509  11.048  19.779  0.00  0.00    +0.000 A 
ATOM      8  C   UNL     1       1.032   9.728  19.703  0.00  0.00    +0.000 A 
ATOM      9  C   UNL     1       1.742   9.096  18.613  0.00  0.00    +0.000 A 
ATOM     10  O   UNL     1       1.952   9.679  17.551  0.00  0.00    +0.000 OA
ATOM     11  C   UNL     1       0.605  12.112  18.728  0.00  0.00    +0.000 C 
ATOM     12  C   UNL     1      -0.158  13.368  19.154  0.00  0.00    +0.000 C 
ATOM     13  N   UNL     1       0.055  13.714  20.600  0.00  0.00    +0.000 NA
ATOM     14  C   UNL     1      -0.520  12.647  21.489  0.00  0.00    +0.000 C 
ENDROOT
BRANCH  13  15
ATOM     15  S   UNL     1       1.625  14.201  21.089  0.00  0.00    +0.000 S 
ATOM     16  O   UNL     1       1.474  15.080  22.233  0.00  0.00    +0.000 OA
ATOM     17  O   UNL     1       2.487  13.040  21.161  0.00  0.00    +0.000 OA
BRANCH  15  18
ATOM     18  C   UNL     1       2.175  15.186  19.720  0.00  0.00    +0.000 A 
ATOM     19  C   UNL     1       1.539  16.401  19.461  0.00  0.00    +0.000 A 
ATOM     20  C   UNL     1       1.923  17.146  18.348  0.00  0.00    +0.000 A 
ATOM     21  C   UNL     1       2.941  16.680  17.511  0.00  0.00    +0.000 A 
ATOM     22  C   UNL     1       3.585  15.473  17.785  0.00  0.00    +0.000 A 
ATOM     23  C   UNL     1       3.206  14.720  18.895  0.00  0.00    +0.000 A 
ENDBRANCH  15  18
ENDBRANCH  13  15
BRANCH   1  24
ATOM     24  C   UNL     1       3.034   7.190  17.871  0.00  0.00    +0.000 C 
BRANCH  24  25
ATOM     25  C   UNL     1       3.997   6.102  18.336  0.00  0.00    +0.000 C 
BRANCH  25  31
ATOM     26  C   UNL     1       4.831   4.038  17.091  0.00  0.00    +0.000 A 
ATOM     27  C   UNL     1       5.377   3.458  15.943  0.00  0.00    +0.000 A 
ATOM     28  C   UNL     1       5.845   4.261  14.904  0.00  0.00    +0.000 A 
ATOM     29  C   UNL     1       5.736   5.646  14.989  0.00  0.00    +0.000 A 
ATOM     30  C   UNL     1       5.114   6.227  16.091  0.00  0.00    +0.000 A 
ATOM     31  C   UNL     1       4.635   5.429  17.142  0.00  0.00    +0.000 A 
BRANCH  26  33
ATOM     32  C   UNL     1       3.416   2.366  17.997  0.00  0.00    +0.000 C 
ATOM     33  O   UNL     1       4.464   3.316  18.197  0.00  0.00    +0.000 OA
ENDBRANCH  26  33
ENDBRANCH  25  31
ENDBRANCH  24  25
ENDBRANCH   1  24
TORSDOF 6
ENDMDL
MODEL 4
REMARK VINA RESULT:      -8.2      0.883      1.628
REMARK  Name = 
REMARK  7 active torsions:
REMARK  status: ('A' for Active; 'I' for Inactive)
REMARK    1  A    between atoms: C_1  and  O_2
REMARK    2  A    between atoms: O_2  and  C_3
REMARK    3  A    between atoms: C_8  and  C_9
REMARK    4  A    between atoms: C_9  and  C_10
REMARK    5  A    between atoms: C_10  and  N_11
REMARK    6  A    between atoms: N_23  and  S_24
REMARK    7  A    between atoms: S_24  and  C_27
REMARK                            x       y       z     vdW  Elec       q    Type
REMARK                         _______ _______ _______ _____ _____    ______ ____
ROOT
ATOM      1  N   UNL     1       2.294   7.766  18.736  0.00  0.00    +0.000 N 
ATOM      2  C   UNL     1       2.114   7.152  19.960  0.00  0.00    +0.000 A 
ATOM      3  N   UNL     1       1.453   7.625  20.971  0.00  0.00    +0.000 NA
ATOM      4  C   UNL     1       0.948   8.868  20.770  0.00  0.00    +0.000 A 
ATOM      5  S   UNL     1       0.113   9.720  21.994  0.00  0.00    +0.000 S 
ATOM      6  C   UNL     1      -0.037  11.103  21.010  0.00  0.00    +0.000 A 
ATOM      7  C   UNL     1       0.482  10.906  19.742  0.00  0.00    +0.000 A 
ATOM      8  C   UNL     1       1.067   9.615  19.621  0.00  0.00    +0.000 A 
ATOM      9  C   UNL     1       1.798   9.052  18.506  0.00  0.00    +0.000 A 
ATOM     10  O   UNL     1       1.973   9.679  17.463  0.00  0.00    +0.000 OA
ATOM     11  C   UNL     1       0.521  12.005  18.725  0.00  0.00    +0.000 C 
ATOM     12  C   UNL     1      -0.298  13.210  19.196  0.00  0.00    +0.000 C 
ATOM     13  N   UNL     1      -0.092  13.519  20.651  0.00  0.00    +0.000 NA
ATOM     14  C   UNL     1      -0.610  12.398  21.508  0.00  0.00    +0.000 C 
ENDROOT
BRANCH  13  15
ATOM     15  S   UNL     1       1.457  14.065  21.147  0.00  0.00    +0.000 S 
ATOM     16  O   UNL     1       1.275  14.873  22.337  0.00  0.00    +0.000 OA
ATOM     17  O   UNL     1       2.380  12.949  21.147  0.00  0.00    +0.000 OA
BRANCH  15  18
ATOM     18  C   UNL     1       1.933  15.148  19.826  0.00  0.00    +0.000 A 
ATOM     19  C   UNL     1       1.246  16.351  19.654  0.00  0.00    +0.000 A 
ATOM     20  C   UNL     1       1.573  17.173  18.579  0.00  0.00    +0.000 A 
ATOM     21  C   UNL     1       2.585  16.797  17.691  0.00  0.00    +0.000 A 
ATOM     22  C   UNL     1       3.280  15.601  17.877  0.00  0.00    +0.000 A 
ATOM     23  C   UNL     1       2.959  14.771  18.950  0.00  0.00    +0.000 A 
ENDBRANCH  15  18
ENDBRANCH  13  15
BRANCH   1  24
ATOM     24  C   UNL     1       3.174   7.235  17.697  0.00  0.00    +0.000 C 
BRANCH  24  25
ATOM     25  C   UNL     1       3.488   5.743  17.748  0.00  0.00    +0.000 C 
BRANCH  25  31
ATOM     26  C   UNL     1       5.802   5.240  16.802  0.00  0.00    +0.000 A 
ATOM     27  C   UNL     1       7.181   5.104  16.988  0.00  0.00    +0.000 A 
ATOM     28  C   UNL     1       7.723   5.129  18.273  0.00  0.00    +0.000 A 
ATOM     29  C   UNL     1       6.897   5.327  19.375  0.00  0.00    +0.000 A 
ATOM     30  C   UNL     1       5.534   5.550  19.190  0.00  0.00    +0.000 A 
ATOM     31  C   UNL     1       4.977   5.531  17.902  0.00  0.00    +0.000 A 
BRANCH  26  33
ATOM     32  C   UNL     1       5.820   4.204  14.670  0.00  0.00    +0.000 C 
ATOM     33  O   UNL     1       5.191   5.105  15.583  0.00  0.00    +0.000 OA
ENDBRANCH  26  33
ENDBRANCH  25  31
ENDBRANCH  24  25
ENDBRANCH   1  24
TORSDOF 6
ENDMDL
MODEL 5
REMARK VINA RESULT:      -8.2      1.947      2.934
REMARK  Name = 
REMARK  7 active torsions:
REMARK  status: ('A' for Active; 'I' for Inactive)
REMARK    1  A    between atoms: C_1  and  O_2
REMARK    2  A    between atoms: O_2  and  C_3
REMARK    3  A    between atoms: C_8  and  C_9
REMARK    4  A    between atoms: C_9  and  C_10
REMARK    5  A    between atoms: C_10  and  N_11
REMARK    6  A    between atoms: N_23  and  S_24
REMARK    7  A    between atoms: S_24  and  C_27
REMARK                            x       y       z     vdW  Elec       q    Type
REMARK                         _______ _______ _______ _____ _____    ______ ____
ROOT
ATOM      1  N   UNL     1       1.695   8.088  19.748  0.00  0.00    +0.000 N 
ATOM      2  C   UNL     1       1.517   7.931  21.108  0.00  0.00    +0.000 A 
ATOM      3  N   UNL     1       0.871   8.731  21.900  0.00  0.00    +0.000 NA
ATOM      4  C   UNL     1       0.381   9.839  21.288  0.00  0.00    +0.000 A 
ATOM      5  S   UNL     1      -0.432  11.070  22.151  0.00  0.00    +0.000 S 
ATOM      6  C   UNL     1      -0.571  12.037  20.756  0.00  0.00    +0.000 A 
ATOM      7  C   UNL     1      -0.066  11.410  19.629  0.00  0.00    +0.000 A 
ATOM      8  C   UNL     1       0.501  10.146  19.953  0.00  0.00    +0.000 A 
ATOM      9  C   UNL     1       1.215   9.226  19.095  0.00  0.00    +0.000 A 
ATOM     10  O   UNL     1       1.389   9.457  17.900  0.00  0.00    +0.000 OA
ATOM     11  C   UNL     1      -0.021  12.097  18.298  0.00  0.00    +0.000 C 
ATOM     12  C   UNL     1      -0.819  13.402  18.333  0.00  0.00    +0.000 C 
ATOM     13  N   UNL     1      -0.596  14.186  19.595  0.00  0.00    +0.000 NA
ATOM     14  C   UNL     1      -1.122  13.433  20.784  0.00  0.00    +0.000 C 
ENDROOT
BRANCH  13  15
ATOM     15  S   UNL     1       0.964  14.844  19.870  0.00  0.00    +0.000 S 
ATOM     16  O   UNL     1       0.979  15.384  21.215  0.00  0.00    +0.000 OA
ATOM     17  O   UNL     1       1.967  13.889  19.446  0.00  0.00    +0.000 OA
BRANCH  15  18
ATOM     18  C   UNL     1       1.019  16.209  18.739  0.00  0.00    +0.000 A 
ATOM     19  C   UNL     1      -0.143  16.946  18.508  0.00  0.00    +0.000 A 
ATOM     20  C   UNL     1      -0.121  17.977  17.572  0.00  0.00    +0.000 A 
ATOM     21  C   UNL     1       1.059  18.270  16.881  0.00  0.00    +0.000 A 
ATOM     22  C   UNL     1       2.222  17.540  17.128  0.00  0.00    +0.000 A 
ATOM     23  C   UNL     1       2.209  16.506  18.062  0.00  0.00    +0.000 A 
ENDBRANCH  15  18
ENDBRANCH  13  15
BRANCH   1  24
ATOM     24  C   UNL     1       2.559   7.221  18.949  0.00  0.00    +0.000 C 
BRANCH  24  25
ATOM     25  C   UNL     1       3.204   6.036  19.662  0.00  0.00    +0.000 C 
BRANCH  25  31
ATOM     26  C   UNL     1       2.720   4.061  18.124  0.00  0.00    +0.000 A 
ATOM     27  C   UNL     1       2.054   2.858  17.874  0.00  0.00    +0.000 A 
ATOM     28  C   UNL     1       1.054   2.415  18.740  0.00  0.00    +0.000 A 
ATOM     29  C   UNL     1       0.740   3.152  19.877  0.00  0.00    +0.000 A 
ATOM     30  C   UNL     1       1.459   4.306  20.178  0.00  0.00    +0.000 A 
ATOM     31  C   UNL     1       2.471   4.760  19.317  0.00  0.00    +0.000 A 
BRANCH  26  33
ATOM     32  C   UNL     1       4.670   3.745  16.812  0.00  0.00    +0.000 C 
ATOM     33  O   UNL     1       3.625   4.613  17.255  0.00  0.00    +0.000 OA
ENDBRANCH  26  33
ENDBRANCH  25  31
ENDBRANCH  24  25
ENDBRANCH   1  24
TORSDOF 6
ENDMDL
MODEL 6
REMARK VINA RESULT:      -8.1      1.437      2.281
REMARK  Name = 
REMARK  7 active torsions:
REMARK  status: ('A' for Active; 'I' for Inactive)
REMARK    1  A    between atoms: C_1  and  O_2
REMARK    2  A    between atoms: O_2  and  C_3
REMARK    3  A    between atoms: C_8  and  C_9
REMARK    4  A    between atoms: C_9  and  C_10
REMARK    5  A    between atoms: C_10  and  N_11
REMARK    6  A    between atoms: N_23  and  S_24
REMARK    7  A    between atoms: S_24  and  C_27
REMARK                            x       y       z     vdW  Elec       q    Type
REMARK                         _______ _______ _______ _____ _____    ______ ____
ROOT
ATOM      1  N   UNL     1       1.879   7.888  19.430  0.00  0.00    +0.000 N 
ATOM      2  C   UNL     1       1.628   7.470  20.723  0.00  0.00    +0.000 A 
ATOM      3  N   UNL     1       0.981   8.129  21.635  0.00  0.00    +0.000 NA
ATOM      4  C   UNL     1       0.572   9.362  21.242  0.00  0.00    +0.000 A 
ATOM      5  S   UNL     1      -0.225  10.437  22.305  0.00  0.00    +0.000 S 
ATOM      6  C   UNL     1      -0.252  11.670  21.131  0.00  0.00    +0.000 A 
ATOM      7  C   UNL     1       0.278  11.256  19.921  0.00  0.00    +0.000 A 
ATOM      8  C   UNL     1       0.771   9.924  20.003  0.00  0.00    +0.000 A 
ATOM      9  C   UNL     1       1.484   9.158  19.004  0.00  0.00    +0.000 A 
ATOM     10  O   UNL     1       1.726   9.614  17.889  0.00  0.00    +0.000 OA
ATOM     11  C   UNL     1       0.420  12.193  18.760  0.00  0.00    +0.000 C 
ATOM     12  C   UNL     1      -0.320  13.506  19.027  0.00  0.00    +0.000 C 
ATOM     13  N   UNL     1      -0.124  14.007  20.430  0.00  0.00    +0.000 NA
ATOM     14  C   UNL     1      -0.741  13.060  21.420  0.00  0.00    +0.000 C 
ENDROOT
BRANCH  13  15
ATOM     15  S   UNL     1       1.449  14.511  20.893  0.00  0.00    +0.000 S 
ATOM     16  O   UNL     1       1.300  15.511  21.931  0.00  0.00    +0.000 OA
ATOM     17  O   UNL     1       2.282  13.345  21.105  0.00  0.00    +0.000 OA
BRANCH  15  18
ATOM     18  C   UNL     1       2.044  15.329  19.436  0.00  0.00    +0.000 A 
ATOM     19  C   UNL     1       3.104  14.763  18.725  0.00  0.00    +0.000 A 
ATOM     20  C   UNL     1       3.618  15.436  17.620  0.00  0.00    +0.000 A 
ATOM     21  C   UNL     1       3.067  16.659  17.226  0.00  0.00    +0.000 A 
ATOM     22  C   UNL     1       1.997  17.212  17.930  0.00  0.00    +0.000 A 
ATOM     23  C   UNL     1       1.477  16.547  19.039  0.00  0.00    +0.000 A 
ENDBRANCH  15  18
ENDBRANCH  13  15
BRANCH   1  24
ATOM     24  C   UNL     1       2.741   7.153  18.506  0.00  0.00    +0.000 C 
BRANCH  24  25
ATOM     25  C   UNL     1       3.647   6.081  19.105  0.00  0.00    +0.000 C 
BRANCH  25  31
ATOM     26  C   UNL     1       4.058   3.831  17.977  0.00  0.00    +0.000 A 
ATOM     27  C   UNL     1       3.611   2.554  17.629  0.00  0.00    +0.000 A 
ATOM     28  C   UNL     1       2.279   2.195  17.836  0.00  0.00    +0.000 A 
ATOM     29  C   UNL     1       1.397   3.096  18.426  0.00  0.00    +0.000 A 
ATOM     30  C   UNL     1       1.858   4.338  18.855  0.00  0.00    +0.000 A 
ATOM     31  C   UNL     1       3.197   4.710  18.656  0.00  0.00    +0.000 A 
BRANCH  26  33
ATOM     32  C   UNL     1       5.630   4.425  16.305  0.00  0.00    +0.000 C 
ATOM     33  O   UNL     1       5.318   4.290  17.692  0.00  0.00    +0.000 OA
ENDBRANCH  26  33
ENDBRANCH  25  31
ENDBRANCH  24  25
ENDBRANCH   1  24
TORSDOF 6
ENDMDL
MODEL 7
REMARK VINA RESULT:      -8.1      1.005      1.408
REMARK  Name = 
REMARK  7 active torsions:
REMARK  status: ('A' for Active; 'I' for Inactive)
REMARK    1  A    between atoms: C_1  and  O_2
REMARK    2  A    between atoms: O_2  and  C_3
REMARK    3  A    between atoms: C_8  and  C_9
REMARK    4  A    between atoms: C_9  and  C_10
REMARK    5  A    between atoms: C_10  and  N_11
REMARK    6  A    between atoms: N_23  and  S_24
REMARK    7  A    between atoms: S_24  and  C_27
REMARK                            x       y       z     vdW  Elec       q    Type
REMARK                         _______ _______ _______ _____ _____    ______ ____
ROOT
ATOM      1  N   UNL     1       2.386   7.751  18.567  0.00  0.00    +0.000 N 
ATOM      2  C   UNL     1       2.269   7.091  19.775  0.00  0.00    +0.000 A 
ATOM      3  N   UNL     1       1.595   7.490  20.810  0.00  0.00    +0.000 NA
ATOM      4  C   UNL     1       1.004   8.701  20.653  0.00  0.00    +0.000 A 
ATOM      5  S   UNL     1       0.136   9.460  21.915  0.00  0.00    +0.000 S 
ATOM      6  C   UNL     1      -0.123  10.857  20.975  0.00  0.00    +0.000 A 
ATOM      7  C   UNL     1       0.385  10.730  19.693  0.00  0.00    +0.000 A 
ATOM      8  C   UNL     1       1.053   9.486  19.525  0.00  0.00    +0.000 A 
ATOM      9  C   UNL     1       1.801   9.006  18.383  0.00  0.00    +0.000 A 
ATOM     10  O   UNL     1       1.915   9.672  17.356  0.00  0.00    +0.000 OA
ATOM     11  C   UNL     1       0.332  11.859  18.709  0.00  0.00    +0.000 C 
ATOM     12  C   UNL     1      -0.558  12.991  19.227  0.00  0.00    +0.000 C 
ATOM     13  N   UNL     1      -0.347  13.273  20.688  0.00  0.00    +0.000 NA
ATOM     14  C   UNL     1      -0.774  12.095  21.519  0.00  0.00    +0.000 C 
ENDROOT
BRANCH  13  15
ATOM     15  S   UNL     1       1.170  13.907  21.175  0.00  0.00    +0.000 S 
ATOM     16  O   UNL     1       0.975  14.576  22.447  0.00  0.00    +0.000 OA
ATOM     17  O   UNL     1       2.186  12.887  21.027  0.00  0.00    +0.000 OA
BRANCH  15  18
ATOM     18  C   UNL     1       1.486  15.153  19.952  0.00  0.00    +0.000 A 
ATOM     19  C   UNL     1       2.526  14.959  19.041  0.00  0.00    +0.000 A 
ATOM     20  C   UNL     1       2.820  15.963  18.122  0.00  0.00    +0.000 A 
ATOM     21  C   UNL     1       2.073  17.144  18.112  0.00  0.00    +0.000 A 
ATOM     22  C   UNL     1       1.023  17.325  19.014  0.00  0.00    +0.000 A 
ATOM     23  C   UNL     1       0.722  16.327  19.938  0.00  0.00    +0.000 A 
ENDBRANCH  15  18
ENDBRANCH  13  15
BRANCH   1  24
ATOM     24  C   UNL     1       3.282   7.310  17.499  0.00  0.00    +0.000 C 
BRANCH  24  25
ATOM     25  C   UNL     1       4.629   6.728  17.919  0.00  0.00    +0.000 C 
BRANCH  25  31
ATOM     26  C   UNL     1       5.338   4.372  17.252  0.00  0.00    +0.000 A 
ATOM     27  C   UNL     1       5.716   3.457  16.266  0.00  0.00    +0.000 A 
ATOM     28  C   UNL     1       5.974   3.891  14.965  0.00  0.00    +0.000 A 
ATOM     29  C   UNL     1       5.820   5.234  14.635  0.00  0.00    +0.000 A 
ATOM     30  C   UNL     1       5.360   6.136  15.591  0.00  0.00    +0.000 A 
ATOM     31  C   UNL     1       5.094   5.710  16.903  0.00  0.00    +0.000 A 
BRANCH  26  33
ATOM     32  C   UNL     1       4.137   3.110  18.859  0.00  0.00    +0.000 C 
ATOM     33  O   UNL     1       5.187   4.035  18.572  0.00  0.00    +0.000 OA
ENDBRANCH  26  33
ENDBRANCH  25  31
ENDBRANCH  24  25
ENDBRANCH   1  24
TORSDOF 6
ENDMDL
MODEL 8
REMARK VINA RESULT:      -8.0      1.666      2.394
REMARK  Name = 
REMARK  7 active torsions:
REMARK  status: ('A' for Active; 'I' for Inactive)
REMARK    1  A    between atoms: C_1  and  O_2
REMARK    2  A    between atoms: O_2  and  C_3
REMARK    3  A    between atoms: C_8  and  C_9
REMARK    4  A    between atoms: C_9  and  C_10
REMARK    5  A    between atoms: C_10  and  N_11
REMARK    6  A    between atoms: N_23  and  S_24
REMARK    7  A    between atoms: S_24  and  C_27
REMARK                            x       y       z     vdW  Elec       q    Type
REMARK                         _______ _______ _______ _____ _____    ______ ____
ROOT
ATOM      1  N   UNL     1       1.831   7.924  19.608  0.00  0.00    +0.000 N 
ATOM      2  C   UNL     1       1.655   7.725  20.964  0.00  0.00    +0.000 A 
ATOM      3  N   UNL     1       0.981   8.484  21.773  0.00  0.00    +0.000 NA
ATOM      4  C   UNL     1       0.457   9.590  21.189  0.00  0.00    +0.000 A 
ATOM      5  S   UNL     1      -0.397  10.772  22.081  0.00  0.00    +0.000 S 
ATOM      6  C   UNL     1      -0.564  11.769  20.710  0.00  0.00    +0.000 A 
ATOM      7  C   UNL     1      -0.037  11.189  19.569  0.00  0.00    +0.000 A 
ATOM      8  C   UNL     1       0.570   9.936  19.863  0.00  0.00    +0.000 A 
ATOM      9  C   UNL     1       1.316   9.062  18.983  0.00  0.00    +0.000 A 
ATOM     10  O   UNL     1       1.485   9.329  17.795  0.00  0.00    +0.000 OA
ATOM     11  C   UNL     1      -0.011  11.911  18.257  0.00  0.00    +0.000 C 
ATOM     12  C   UNL     1      -0.852  13.188  18.322  0.00  0.00    +0.000 C 
ATOM     13  N   UNL     1      -0.657  13.946  19.605  0.00  0.00    +0.000 NA
ATOM     14  C   UNL     1      -1.161  13.145  20.772  0.00  0.00    +0.000 C 
ENDROOT
BRANCH  13  15
ATOM     15  S   UNL     1       0.880  14.646  19.901  0.00  0.00    +0.000 S 
ATOM     16  O   UNL     1       0.852  15.211  21.236  0.00  0.00    +0.000 OA
ATOM     17  O   UNL     1       1.915  13.710  19.518  0.00  0.00    +0.000 OA
BRANCH  15  18
ATOM     18  C   UNL     1       0.927  15.992  18.746  0.00  0.00    +0.000 A 
ATOM     19  C   UNL     1       2.149  16.351  18.174  0.00  0.00    +0.000 A 
ATOM     20  C   UNL     1       2.202  17.448  17.318  0.00  0.00    +0.000 A 
ATOM     21  C   UNL     1       1.041  18.171  17.032  0.00  0.00    +0.000 A 
ATOM     22  C   UNL     1      -0.181  17.797  17.594  0.00  0.00    +0.000 A 
ATOM     23  C   UNL     1      -0.244  16.702  18.453  0.00  0.00    +0.000 A 
ENDBRANCH  15  18
ENDBRANCH  13  15
BRANCH   1  24
ATOM     24  C   UNL     1       2.725   7.106  18.790  0.00  0.00    +0.000 C 
BRANCH  24  25
ATOM     25  C   UNL     1       3.516   6.015  19.505  0.00  0.00    +0.000 C 
BRANCH  25  31
ATOM     26  C   UNL     1       4.180   3.694  18.683  0.00  0.00    +0.000 A 
ATOM     27  C   UNL     1       3.820   2.440  18.182  0.00  0.00    +0.000 A 
ATOM     28  C   UNL     1       2.505   2.191  17.789  0.00  0.00    +0.000 A 
ATOM     29  C   UNL     1       1.536   3.180  17.930  0.00  0.00    +0.000 A 
ATOM     30  C   UNL     1       1.870   4.402  18.509  0.00  0.00    +0.000 A 
ATOM     31  C   UNL     1       3.189   4.663  18.912  0.00  0.00    +0.000 A 
BRANCH  26  33
ATOM     32  C   UNL     1       6.262   4.479  17.864  0.00  0.00    +0.000 C 
ATOM     33  O   UNL     1       5.473   4.044  18.973  0.00  0.00    +0.000 OA
ENDBRANCH  26  33
ENDBRANCH  25  31
ENDBRANCH  24  25
ENDBRANCH   1  24
TORSDOF 6
ENDMDL
MODEL 9
REMARK VINA RESULT:      -8.0      1.874      2.624
REMARK  Name = 
REMARK  7 active torsions:
REMARK  status: ('A' for Active; 'I' for Inactive)
REMARK    1  A    between atoms: C_1  and  O_2
REMARK    2  A    between atoms: O_2  and  C_3
REMARK    3  A    between atoms: C_8  and  C_9
REMARK    4  A    between atoms: C_9  and  C_10
REMARK    5  A    between atoms: C_10  and  N_11
REMARK    6  A    between atoms: N_23  and  S_24
REMARK    7  A    between atoms: S_24  and  C_27
REMARK                            x       y       z     vdW  Elec       q    Type
REMARK                         _______ _______ _______ _____ _____    ______ ____
ROOT
ATOM      1  N   UNL     1       1.556   8.382  19.207  0.00  0.00    +0.000 N 
ATOM      2  C   UNL     1       1.886   7.769  20.400  0.00  0.00    +0.000 A 
ATOM      3  N   UNL     1       1.422   8.067  21.575  0.00  0.00    +0.000 NA
ATOM      4  C   UNL     1       0.569   9.122  21.582  0.00  0.00    +0.000 A 
ATOM      5  S   UNL     1      -0.098   9.743  23.029  0.00  0.00    +0.000 S 
ATOM      6  C   UNL     1      -0.872  11.012  22.196  0.00  0.00    +0.000 A 
ATOM      7  C   UNL     1      -0.684  10.934  20.826  0.00  0.00    +0.000 A 
ATOM      8  C   UNL     1       0.169   9.848  20.485  0.00  0.00    +0.000 A 
ATOM      9  C   UNL     1       0.693   9.481  19.187  0.00  0.00    +0.000 A 
ATOM     10  O   UNL     1       0.404  10.108  18.170  0.00  0.00    +0.000 OA
ATOM     11  C   UNL     1      -1.217  11.981  19.897  0.00  0.00    +0.000 C 
ATOM     12  C   UNL     1      -2.168  12.928  20.632  0.00  0.00    +0.000 C 
ATOM     13  N   UNL     1      -1.664  13.314  21.994  0.00  0.00    +0.000 NA
ATOM     14  C   UNL     1      -1.613  12.113  22.897  0.00  0.00    +0.000 C 
ENDROOT
BRANCH  13  15
ATOM     15  S   UNL     1      -0.243  14.269  22.087  0.00  0.00    +0.000 S 
ATOM     16  O   UNL     1      -0.279  14.984  23.348  0.00  0.00    +0.000 OA
ATOM     17  O   UNL     1       0.903  13.459  21.731  0.00  0.00    +0.000 OA
BRANCH  15  18
ATOM     18  C   UNL     1      -0.480  15.453  20.788  0.00  0.00    +0.000 A 
ATOM     19  C   UNL     1      -1.501  16.397  20.909  0.00  0.00    +0.000 A 
ATOM     20  C   UNL     1      -1.733  17.286  19.863  0.00  0.00    +0.000 A 
ATOM     21  C   UNL     1      -0.943  17.234  18.711  0.00  0.00    +0.000 A 
ATOM     22  C   UNL     1       0.087  16.299  18.602  0.00  0.00    +0.000 A 
ATOM     23  C   UNL     1       0.326  15.404  19.644  0.00  0.00    +0.000 A 
ENDBRANCH  15  18
ENDBRANCH  13  15
BRANCH   1  24
ATOM     24  C   UNL     1       2.230   8.087  17.944  0.00  0.00    +0.000 C 
BRANCH  24  25
ATOM     25  C   UNL     1       3.537   7.304  18.021  0.00  0.00    +0.000 C 
BRANCH  25  31
ATOM     26  C   UNL     1       4.296   4.958  17.369  0.00  0.00    +0.000 A 
ATOM     27  C   UNL     1       4.016   3.598  17.210  0.00  0.00    +0.000 A 
ATOM     28  C   UNL     1       2.708   3.130  17.332  0.00  0.00    +0.000 A 
ATOM     29  C   UNL     1       1.679   4.011  17.650  0.00  0.00    +0.000 A 
ATOM     30  C   UNL     1       1.964   5.352  17.895  0.00  0.00    +0.000 A 
ATOM     31  C   UNL     1       3.277   5.835  17.779  0.00  0.00    +0.000 A 
BRANCH  26  33
ATOM     32  C   UNL     1       6.509   4.618  16.592  0.00  0.00    +0.000 C 
ATOM     33  O   UNL     1       5.533   5.503  17.145  0.00  0.00    +0.000 OA
ENDBRANCH  26  33
ENDBRANCH  25  31
ENDBRANCH  24  25
ENDBRANCH   1  24
TORSDOF 6
ENDMDL
