MODEL 1
REMARK VINA RESULT:      -9.0      0.000      0.000
REMARK  Name = 
REMARK  2 active torsions:
REMARK  status: ('A' for Active; 'I' for Inactive)
REMARK    1  A    between atoms: C_4  and  C_5
REMARK    2  A    between atoms: C_5  and  N_6
REMARK                            x       y       z     vdW  Elec       q    Type
REMARK                         _______ _______ _______ _____ _____    ______ ____
ROOT
ATOM      1  N   UNL     1       2.562   7.076  18.919  0.00  0.00    +0.000 N 
ATOM      2  C   UNL     1       3.100   7.684  17.817  0.00  0.00    +0.000 A 
ATOM      3  C   UNL     1       3.776   6.969  16.816  0.00  0.00    +0.000 A 
ATOM      4  C   UNL     1       4.151   5.646  17.068  0.00  0.00    +0.000 A 
ATOM      5  C   UNL     1       3.702   5.168  18.245  0.00  0.00    +0.000 A 
ATOM      6  C   UNL     1       4.277   4.066  18.879  0.00  0.00    +0.000 A 
ATOM      7  N   UNL     1       5.557   3.704  18.488  0.00  0.00    +0.000 NA
ATOM      8  C   UNL     1       6.011   4.283  17.337  0.00  0.00    +0.000 A 
ATOM      9  C   UNL     1       7.347   4.587  17.097  0.00  0.00    +0.000 A 
ATOM     10  C   UNL     1       7.751   5.146  15.877  0.00  0.00    +0.000 A 
ATOM     11  C   UNL     1       6.859   5.211  14.803  0.00  0.00    +0.000 A 
ATOM     12  C   UNL     1       5.517   5.015  15.087  0.00  0.00    +0.000 A 
ATOM     13  C   UNL     1       5.146   4.885  16.430  0.00  0.00    +0.000 A 
ATOM     14  C   UNL     1       3.360   3.668  19.957  0.00  0.00    +0.000 A 
ATOM     15  C   UNL     1       3.306   2.503  20.667  0.00  0.00    +0.000 A 
ATOM     16  C   UNL     1       2.145   2.310  21.418  0.00  0.00    +0.000 A 
ATOM     17  C   UNL     1       1.110   3.278  21.436  0.00  0.00    +0.000 A 
ATOM     18  C   UNL     1       1.222   4.501  20.757  0.00  0.00    +0.000 A 
ATOM     19  C   UNL     1       2.369   4.686  20.035  0.00  0.00    +0.000 A 
ATOM     20  C   UNL     1       2.761   5.760  19.062  0.00  0.00    +0.000 A 
ENDROOT
BRANCH   1  21
ATOM     21  C   UNL     1       2.178   7.910  20.095  0.00  0.00    +0.000 C 
BRANCH  21  25
ATOM     22  C   UNL     1      -0.844  10.958  19.581  0.00  0.00    +0.000 A 
ATOM     23  C   UNL     1      -0.564  10.416  20.829  0.00  0.00    +0.000 A 
ATOM     24  C   UNL     1       0.397   9.425  20.961  0.00  0.00    +0.000 A 
ATOM     25  C   UNL     1       1.095   8.928  19.842  0.00  0.00    +0.000 A 
ATOM     26  C   UNL     1       0.810   9.495  18.592  0.00  0.00    +0.000 A 
ATOM     27  C   UNL     1      -0.151  10.500  18.462  0.00  0.00    +0.000 A 
ENDBRANCH  21  25
ENDBRANCH   1  21
TORSDOF 2
ENDMDL
MODEL 2
REMARK VINA RESULT:      -8.7      1.827      6.274
REMARK  Name = 
REMARK  2 active torsions:
REMARK  status: ('A' for Active; 'I' for Inactive)
REMARK    1  A    between atoms: C_4  and  C_5
REMARK    2  A    between atoms: C_5  and  N_6
REMARK                            x       y       z     vdW  Elec       q    Type
REMARK                         _______ _______ _______ _____ _____    ______ ____
ROOT
ATOM      1  N   UNL     1       3.844   6.200  16.987  0.00  0.00    +0.000 N 
ATOM      2  C   UNL     1       3.900   4.835  16.902  0.00  0.00    +0.000 A 
ATOM      3  C   UNL     1       2.990   3.999  17.567  0.00  0.00    +0.000 A 
ATOM      4  C   UNL     1       2.168   4.549  18.556  0.00  0.00    +0.000 A 
ATOM      5  C   UNL     1       2.280   5.887  18.674  0.00  0.00    +0.000 A 
ATOM      6  C   UNL     1       1.893   6.576  19.825  0.00  0.00    +0.000 A 
ATOM      7  N   UNL     1       1.756   5.839  20.991  0.00  0.00    +0.000 NA
ATOM      8  C   UNL     1       1.740   4.482  20.837  0.00  0.00    +0.000 A 
ATOM      9  C   UNL     1       2.232   3.588  21.782  0.00  0.00    +0.000 A 
ATOM     10  C   UNL     1       2.150   2.204  21.576  0.00  0.00    +0.000 A 
ATOM     11  C   UNL     1       1.385   1.693  20.525  0.00  0.00    +0.000 A 
ATOM     12  C   UNL     1       0.999   2.584  19.535  0.00  0.00    +0.000 A 
ATOM     13  C   UNL     1       1.500   3.889  19.602  0.00  0.00    +0.000 A 
ATOM     14  C   UNL     1       1.885   8.005  19.483  0.00  0.00    +0.000 A 
ATOM     15  C   UNL     1       1.311   9.055  20.143  0.00  0.00    +0.000 A 
ATOM     16  C   UNL     1       1.227  10.245  19.420  0.00  0.00    +0.000 A 
ATOM     17  C   UNL     1       1.721  10.340  18.095  0.00  0.00    +0.000 A 
ATOM     18  C   UNL     1       2.374   9.269  17.466  0.00  0.00    +0.000 A 
ATOM     19  C   UNL     1       2.463   8.110  18.188  0.00  0.00    +0.000 A 
ATOM     20  C   UNL     1       2.921   6.735  17.795  0.00  0.00    +0.000 A 
ENDROOT
BRANCH   1  21
ATOM     21  C   UNL     1       5.026   7.005  16.559  0.00  0.00    +0.000 C 
BRANCH  21  25
ATOM     22  C   UNL     1       8.496   6.893  19.133  0.00  0.00    +0.000 A 
ATOM     23  C   UNL     1       8.259   7.962  18.280  0.00  0.00    +0.000 A 
ATOM     24  C   UNL     1       7.148   7.962  17.450  0.00  0.00    +0.000 A 
ATOM     25  C   UNL     1       6.247   6.879  17.433  0.00  0.00    +0.000 A 
ATOM     26  C   UNL     1       6.493   5.813  18.311  0.00  0.00    +0.000 A 
ATOM     27  C   UNL     1       7.608   5.820  19.153  0.00  0.00    +0.000 A 
ENDBRANCH  21  25
ENDBRANCH   1  21
TORSDOF 2
ENDMDL
MODEL 3
REMARK VINA RESULT:      -8.4      3.529      8.600
REMARK  Name = 
REMARK  2 active torsions:
REMARK  status: ('A' for Active; 'I' for Inactive)
REMARK    1  A    between atoms: C_4  and  C_5
REMARK    2  A    between atoms: C_5  and  N_6
REMARK                            x       y       z     vdW  Elec       q    Type
REMARK                         _______ _______ _______ _____ _____    ______ ____
ROOT
ATOM      1  N   UNL     1       1.732  10.727  18.689  0.00  0.00    +0.000 N 
ATOM      2  C   UNL     1       2.403  11.597  17.872  0.00  0.00    +0.000 A 
ATOM      3  C   UNL     1       2.588  12.949  18.200  0.00  0.00    +0.000 A 
ATOM      4  C   UNL     1       1.846  13.496  19.251  0.00  0.00    +0.000 A 
ATOM      5  C   UNL     1       1.097  12.594  19.916  0.00  0.00    +0.000 A 
ATOM      6  C   UNL     1      -0.001  12.956  20.696  0.00  0.00    +0.000 A 
ATOM      7  N   UNL     1      -0.555  14.206  20.473  0.00  0.00    +0.000 NA
ATOM      8  C   UNL     1       0.195  15.061  19.716  0.00  0.00    +0.000 A 
ATOM      9  C   UNL     1      -0.344  16.025  18.870  0.00  0.00    +0.000 A 
ATOM     10  C   UNL     1       0.484  16.896  18.149  0.00  0.00    +0.000 A 
ATOM     11  C   UNL     1       1.853  16.956  18.426  0.00  0.00    +0.000 A 
ATOM     12  C   UNL     1       2.389  15.922  19.179  0.00  0.00    +0.000 A 
ATOM     13  C   UNL     1       1.552  14.848  19.500  0.00  0.00    +0.000 A 
ATOM     14  C   UNL     1      -0.375  11.770  21.481  0.00  0.00    +0.000 A 
ATOM     15  C   UNL     1      -1.172  11.674  22.586  0.00  0.00    +0.000 A 
ATOM     16  C   UNL     1      -1.101  10.463  23.275  0.00  0.00    +0.000 A 
ATOM     17  C   UNL     1      -0.259   9.412  22.834  0.00  0.00    +0.000 A 
ATOM     18  C   UNL     1       0.494   9.508  21.653  0.00  0.00    +0.000 A 
ATOM     19  C   UNL     1       0.407  10.695  20.977  0.00  0.00    +0.000 A 
ATOM     20  C   UNL     1       1.181  11.221  19.804  0.00  0.00    +0.000 A 
ENDROOT
BRANCH   1  21
ATOM     21  C   UNL     1       1.269   9.421  18.136  0.00  0.00    +0.000 C 
BRANCH  21  25
ATOM     22  C   UNL     1       3.823   5.975  18.667  0.00  0.00    +0.000 A 
ATOM     23  C   UNL     1       2.837   6.297  19.591  0.00  0.00    +0.000 A 
ATOM     24  C   UNL     1       2.045   7.421  19.405  0.00  0.00    +0.000 A 
ATOM     25  C   UNL     1       2.230   8.271  18.296  0.00  0.00    +0.000 A 
ATOM     26  C   UNL     1       3.220   7.924  17.367  0.00  0.00    +0.000 A 
ATOM     27  C   UNL     1       4.010   6.786  17.551  0.00  0.00    +0.000 A 
ENDBRANCH  21  25
ENDBRANCH   1  21
TORSDOF 2
ENDMDL
MODEL 4
REMARK VINA RESULT:      -8.4      1.453      4.843
REMARK  Name = 
REMARK  2 active torsions:
REMARK  status: ('A' for Active; 'I' for Inactive)
REMARK    1  A    between atoms: C_4  and  C_5
REMARK    2  A    between atoms: C_5  and  N_6
REMARK                            x       y       z     vdW  Elec       q    Type
REMARK                         _______ _______ _______ _____ _____    ______ ____
ROOT
ATOM      1  N   UNL     1       2.886   7.577  18.418  0.00  0.00    +0.000 N 
ATOM      2  C   UNL     1       2.198   7.462  19.595  0.00  0.00    +0.000 A 
ATOM      3  C   UNL     1       2.280   6.322  20.409  0.00  0.00    +0.000 A 
ATOM      4  C   UNL     1       2.861   5.162  19.889  0.00  0.00    +0.000 A 
ATOM      5  C   UNL     1       3.390   5.323  18.660  0.00  0.00    +0.000 A 
ATOM      6  C   UNL     1       3.636   4.251  17.800  0.00  0.00    +0.000 A 
ATOM      7  N   UNL     1       2.976   3.062  18.062  0.00  0.00    +0.000 NA
ATOM      8  C   UNL     1       2.373   2.974  19.284  0.00  0.00    +0.000 A 
ATOM      9  C   UNL     1       1.210   2.250  19.527  0.00  0.00    +0.000 A 
ATOM     10  C   UNL     1       0.666   2.171  20.815  0.00  0.00    +0.000 A 
ATOM     11  C   UNL     1       1.391   2.636  21.915  0.00  0.00    +0.000 A 
ATOM     12  C   UNL     1       2.482   3.449  21.652  0.00  0.00    +0.000 A 
ATOM     13  C   UNL     1       2.703   3.835  20.326  0.00  0.00    +0.000 A 
ATOM     14  C   UNL     1       4.466   4.769  16.703  0.00  0.00    +0.000 A 
ATOM     15  C   UNL     1       5.211   4.089  15.780  0.00  0.00    +0.000 A 
ATOM     16  C   UNL     1       6.117   4.862  15.053  0.00  0.00    +0.000 A 
ATOM     17  C   UNL     1       6.232   6.258  15.265  0.00  0.00    +0.000 A 
ATOM     18  C   UNL     1       5.403   6.945  16.165  0.00  0.00    +0.000 A 
ATOM     19  C   UNL     1       4.509   6.181  16.864  0.00  0.00    +0.000 A 
ATOM     20  C   UNL     1       3.604   6.522  18.012  0.00  0.00    +0.000 A 
ENDROOT
BRANCH   1  21
ATOM     21  C   UNL     1       2.490   8.636  17.444  0.00  0.00    +0.000 C 
BRANCH  21  25
ATOM     22  C   UNL     1      -0.166  11.763  18.803  0.00  0.00    +0.000 A 
ATOM     23  C   UNL     1       1.213  11.929  18.807  0.00  0.00    +0.000 A 
ATOM     24  C   UNL     1       2.042  10.900  18.384  0.00  0.00    +0.000 A 
ATOM     25  C   UNL     1       1.516   9.663  17.963  0.00  0.00    +0.000 A 
ATOM     26  C   UNL     1       0.122   9.516  17.952  0.00  0.00    +0.000 A 
ATOM     27  C   UNL     1      -0.712  10.557  18.369  0.00  0.00    +0.000 A 
ENDBRANCH  21  25
ENDBRANCH   1  21
TORSDOF 2
ENDMDL
MODEL 5
REMARK VINA RESULT:      -8.3      1.292      1.580
REMARK  Name = 
REMARK  2 active torsions:
REMARK  status: ('A' for Active; 'I' for Inactive)
REMARK    1  A    between atoms: C_4  and  C_5
REMARK    2  A    between atoms: C_5  and  N_6
REMARK                            x       y       z     vdW  Elec       q    Type
REMARK                         _______ _______ _______ _____ _____    ______ ____
ROOT
ATOM      1  N   UNL     1       1.877   7.279  19.416  0.00  0.00    +0.000 N 
ATOM      2  C   UNL     1       2.504   8.158  18.576  0.00  0.00    +0.000 A 
ATOM      3  C   UNL     1       3.573   7.779  17.748  0.00  0.00    +0.000 A 
ATOM      4  C   UNL     1       4.196   6.548  17.973  0.00  0.00    +0.000 A 
ATOM      5  C   UNL     1       3.598   5.801  18.923  0.00  0.00    +0.000 A 
ATOM      6  C   UNL     1       4.254   4.765  19.589  0.00  0.00    +0.000 A 
ATOM      7  N   UNL     1       5.640   4.760  19.549  0.00  0.00    +0.000 NA
ATOM      8  C   UNL     1       6.210   5.601  18.636  0.00  0.00    +0.000 A 
ATOM      9  C   UNL     1       7.439   6.225  18.817  0.00  0.00    +0.000 A 
ATOM     10  C   UNL     1       7.984   7.047  17.821  0.00  0.00    +0.000 A 
ATOM     11  C   UNL     1       7.410   7.085  16.548  0.00  0.00    +0.000 A 
ATOM     12  C   UNL     1       6.136   6.556  16.416  0.00  0.00    +0.000 A 
ATOM     13  C   UNL     1       5.481   6.135  17.579  0.00  0.00    +0.000 A 
ATOM     14  C   UNL     1       3.225   4.009  20.317  0.00  0.00    +0.000 A 
ATOM     15  C   UNL     1       3.291   2.762  20.872  0.00  0.00    +0.000 A 
ATOM     16  C   UNL     1       2.066   2.202  21.237  0.00  0.00    +0.000 A 
ATOM     17  C   UNL     1       0.850   2.903  21.049  0.00  0.00    +0.000 A 
ATOM     18  C   UNL     1       0.815   4.213  20.546  0.00  0.00    +0.000 A 
ATOM     19  C   UNL     1       2.022   4.758  20.203  0.00  0.00    +0.000 A 
ATOM     20  C   UNL     1       2.361   6.034  19.487  0.00  0.00    +0.000 A 
ENDROOT
BRANCH   1  21
ATOM     21  C   UNL     1       1.006   7.810  20.506  0.00  0.00    +0.000 C 
BRANCH  21  25
ATOM     22  C   UNL     1      -0.357  11.892  20.102  0.00  0.00    +0.000 A 
ATOM     23  C   UNL     1      -0.813  10.887  19.258  0.00  0.00    +0.000 A 
ATOM     24  C   UNL     1      -0.343   9.589  19.398  0.00  0.00    +0.000 A 
ATOM     25  C   UNL     1       0.616   9.261  20.376  0.00  0.00    +0.000 A 
ATOM     26  C   UNL     1       1.056  10.283  21.228  0.00  0.00    +0.000 A 
ATOM     27  C   UNL     1       0.574  11.587  21.093  0.00  0.00    +0.000 A 
ENDBRANCH  21  25
ENDBRANCH   1  21
TORSDOF 2
ENDMDL
MODEL 6
REMARK VINA RESULT:      -8.2      3.969     10.266
REMARK  Name = 
REMARK  2 active torsions:
REMARK  status: ('A' for Active; 'I' for Inactive)
REMARK    1  A    between atoms: C_4  and  C_5
REMARK    2  A    between atoms: C_5  and  N_6
REMARK                            x       y       z     vdW  Elec       q    Type
REMARK                         _______ _______ _______ _____ _____    ______ ____
ROOT
ATOM      1  N   UNL     1      -0.193  11.068  20.431  0.00  0.00    +0.000 N 
ATOM      2  C   UNL     1       0.043  11.415  21.733  0.00  0.00    +0.000 A 
ATOM      3  C   UNL     1      -0.981  11.826  22.602  0.00  0.00    +0.000 A 
ATOM      4  C   UNL     1      -2.230  12.151  22.065  0.00  0.00    +0.000 A 
ATOM      5  C   UNL     1      -2.333  11.913  20.743  0.00  0.00    +0.000 A 
ATOM      6  C   UNL     1      -3.297  12.526  19.941  0.00  0.00    +0.000 A 
ATOM      7  N   UNL     1      -3.899  13.673  20.434  0.00  0.00    +0.000 NA
ATOM      8  C   UNL     1      -3.694  13.927  21.760  0.00  0.00    +0.000 A 
ATOM      9  C   UNL     1      -3.625  15.205  22.303  0.00  0.00    +0.000 A 
ATOM     10  C   UNL     1      -3.450  15.395  23.681  0.00  0.00    +0.000 A 
ATOM     11  C   UNL     1      -3.555  14.313  24.559  0.00  0.00    +0.000 A 
ATOM     12  C   UNL     1      -3.509  13.044  24.003  0.00  0.00    +0.000 A 
ATOM     13  C   UNL     1      -3.245  12.942  22.633  0.00  0.00    +0.000 A 
ATOM     14  C   UNL     1      -3.292  11.817  18.653  0.00  0.00    +0.000 A 
ATOM     15  C   UNL     1      -4.221  11.826  17.651  0.00  0.00    +0.000 A 
ATOM     16  C   UNL     1      -4.073  10.828  16.686  0.00  0.00    +0.000 A 
ATOM     17  C   UNL     1      -3.015   9.888  16.754  0.00  0.00    +0.000 A 
ATOM     18  C   UNL     1      -2.030   9.946  17.752  0.00  0.00    +0.000 A 
ATOM     19  C   UNL     1      -2.176  10.936  18.686  0.00  0.00    +0.000 A 
ATOM     20  C   UNL     1      -1.442  11.198  19.969  0.00  0.00    +0.000 A 
ENDROOT
BRANCH   1  21
ATOM     21  C   UNL     1       0.955  10.986  19.480  0.00  0.00    +0.000 C 
BRANCH  21  25
ATOM     22  C   UNL     1       2.599   7.105  18.521  0.00  0.00    +0.000 A 
ATOM     23  C   UNL     1       2.548   8.125  17.580  0.00  0.00    +0.000 A 
ATOM     24  C   UNL     1       1.996   9.355  17.910  0.00  0.00    +0.000 A 
ATOM     25  C   UNL     1       1.458   9.595  19.190  0.00  0.00    +0.000 A 
ATOM     26  C   UNL     1       1.529   8.559  20.132  0.00  0.00    +0.000 A 
ATOM     27  C   UNL     1       2.094   7.325  19.801  0.00  0.00    +0.000 A 
ENDBRANCH  21  25
ENDBRANCH   1  21
TORSDOF 2
ENDMDL
MODEL 7
REMARK VINA RESULT:      -8.0      7.257     10.208
REMARK  Name = 
REMARK  2 active torsions:
REMARK  status: ('A' for Active; 'I' for Inactive)
REMARK    1  A    between atoms: C_4  and  C_5
REMARK    2  A    between atoms: C_5  and  N_6
REMARK                            x       y       z     vdW  Elec       q    Type
REMARK                         _______ _______ _______ _____ _____    ______ ____
ROOT
ATOM      1  N   UNL     1      -0.202  11.963  19.519  0.00  0.00    +0.000 N 
ATOM      2  C   UNL     1       0.729  12.419  18.625  0.00  0.00    +0.000 A 
ATOM      3  C   UNL     1       1.215  13.736  18.648  0.00  0.00    +0.000 A 
ATOM      4  C   UNL     1       0.546  14.688  19.423  0.00  0.00    +0.000 A 
ATOM      5  C   UNL     1      -0.455  14.178  20.167  0.00  0.00    +0.000 A 
ATOM      6  C   UNL     1      -1.492  14.963  20.675  0.00  0.00    +0.000 A 
ATOM      7  N   UNL     1      -1.698  16.201  20.086  0.00  0.00    +0.000 NA
ATOM      8  C   UNL     1      -0.700  16.641  19.264  0.00  0.00    +0.000 A 
ATOM      9  C   UNL     1      -0.910  17.442  18.147  0.00  0.00    +0.000 A 
ATOM     10  C   UNL     1       0.165  17.891  17.369  0.00  0.00    +0.000 A 
ATOM     11  C   UNL     1       1.477  17.721  17.817  0.00  0.00    +0.000 A 
ATOM     12  C   UNL     1       1.676  16.831  18.861  0.00  0.00    +0.000 A 
ATOM     13  C   UNL     1       0.576  16.089  19.303  0.00  0.00    +0.000 A 
ATOM     14  C   UNL     1      -2.211  14.137  21.655  0.00  0.00    +0.000 A 
ATOM     15  C   UNL     1      -3.097  14.511  22.625  0.00  0.00    +0.000 A 
ATOM     16  C   UNL     1      -3.385  13.538  23.583  0.00  0.00    +0.000 A 
ATOM     17  C   UNL     1      -2.796  12.251  23.527  0.00  0.00    +0.000 A 
ATOM     18  C   UNL     1      -1.946  11.866  22.478  0.00  0.00    +0.000 A 
ATOM     19  C   UNL     1      -1.681  12.823  21.536  0.00  0.00    +0.000 A 
ATOM     20  C   UNL     1      -0.705  12.840  20.395  0.00  0.00    +0.000 A 
ENDROOT
BRANCH   1  21
ATOM     21  C   UNL     1      -0.926  10.691  19.229  0.00  0.00    +0.000 C 
BRANCH  21  25
ATOM     22  C   UNL     1      -3.890  10.658  16.083  0.00  0.00    +0.000 A 
ATOM     23  C   UNL     1      -2.740   9.883  16.005  0.00  0.00    +0.000 A 
ATOM     24  C   UNL     1      -1.796   9.928  17.021  0.00  0.00    +0.000 A 
ATOM     25  C   UNL     1      -1.964  10.770  18.138  0.00  0.00    +0.000 A 
ATOM     26  C   UNL     1      -3.136  11.536  18.208  0.00  0.00    +0.000 A 
ATOM     27  C   UNL     1      -4.091  11.481  17.189  0.00  0.00    +0.000 A 
ENDBRANCH  21  25
ENDBRANCH   1  21
TORSDOF 2
ENDMDL
MODEL 8
REMARK VINA RESULT:      -8.0      5.670      9.764
REMARK  Name = 
REMARK  2 active torsions:
REMARK  status: ('A' for Active; 'I' for Inactive)
REMARK    1  A    between atoms: C_4  and  C_5
REMARK    2  A    between atoms: C_5  and  N_6
REMARK                            x       y       z     vdW  Elec       q    Type
REMARK                         _______ _______ _______ _____ _____    ______ ____
ROOT
ATOM      1  N   UNL     1      -0.368  13.180  19.528  0.00  0.00    +0.000 N 
ATOM      2  C   UNL     1      -0.670  14.466  19.884  0.00  0.00    +0.000 A 
ATOM      3  C   UNL     1      -0.780  14.872  21.224  0.00  0.00    +0.000 A 
ATOM      4  C   UNL     1      -0.852  13.894  22.221  0.00  0.00    +0.000 A 
ATOM      5  C   UNL     1      -0.689  12.637  21.763  0.00  0.00    +0.000 A 
ATOM      6  C   UNL     1      -1.122  11.516  22.472  0.00  0.00    +0.000 A 
ATOM      7  N   UNL     1      -2.068  11.717  23.464  0.00  0.00    +0.000 NA
ATOM      8  C   UNL     1      -2.271  13.016  23.835  0.00  0.00    +0.000 A 
ATOM      9  C   UNL     1      -3.492  13.516  24.275  0.00  0.00    +0.000 A 
ATOM     10  C   UNL     1      -3.621  14.852  24.677  0.00  0.00    +0.000 A 
ATOM     11  C   UNL     1      -2.486  15.649  24.847  0.00  0.00    +0.000 A 
ATOM     12  C   UNL     1      -1.301  15.181  24.301  0.00  0.00    +0.000 A 
ATOM     13  C   UNL     1      -1.355  14.016  23.528  0.00  0.00    +0.000 A 
ATOM     14  C   UNL     1      -0.522  10.343  21.820  0.00  0.00    +0.000 A 
ATOM     15  C   UNL     1      -0.390   9.063  22.281  0.00  0.00    +0.000 A 
ATOM     16  C   UNL     1       0.480   8.250  21.555  0.00  0.00    +0.000 A 
ATOM     17  C   UNL     1       1.162   8.735  20.411  0.00  0.00    +0.000 A 
ATOM     18  C   UNL     1       0.952  10.030  19.913  0.00  0.00    +0.000 A 
ATOM     19  C   UNL     1       0.086  10.816  20.625  0.00  0.00    +0.000 A 
ATOM     20  C   UNL     1      -0.246  12.276  20.507  0.00  0.00    +0.000 A 
ENDROOT
BRANCH   1  21
ATOM     21  C   UNL     1      -0.611  12.738  18.123  0.00  0.00    +0.000 C 
BRANCH  21  25
ATOM     22  C   UNL     1      -3.877   9.952  17.616  0.00  0.00    +0.000 A 
ATOM     23  C   UNL     1      -2.605   9.677  17.129  0.00  0.00    +0.000 A 
ATOM     24  C   UNL     1      -1.581  10.599  17.289  0.00  0.00    +0.000 A 
ATOM     25  C   UNL     1      -1.803  11.837  17.924  0.00  0.00    +0.000 A 
ATOM     26  C   UNL     1      -3.089  12.094  18.421  0.00  0.00    +0.000 A 
ATOM     27  C   UNL     1      -4.117  11.160  18.268  0.00  0.00    +0.000 A 
ENDBRANCH  21  25
ENDBRANCH   1  21
TORSDOF 2
ENDMDL
MODEL 9
REMARK VINA RESULT:      -8.0      7.210     10.310
REMARK  Name = 
REMARK  2 active torsions:
REMARK  status: ('A' for Active; 'I' for Inactive)
REMARK    1  A    between atoms: C_4  and  C_5
REMARK    2  A    between atoms: C_5  and  N_6
REMARK                            x       y       z     vdW  Elec       q    Type
REMARK                         _______ _______ _______ _____ _____    ______ ____
ROOT
ATOM      1  N   UNL     1       0.177  11.689  19.964  0.00  0.00    +0.000 N 
ATOM      2  C   UNL     1       0.401  12.043  21.267  0.00  0.00    +0.000 A 
ATOM      3  C   UNL     1      -0.634  12.138  22.211  0.00  0.00    +0.000 A 
ATOM      4  C   UNL     1      -1.958  12.136  21.763  0.00  0.00    +0.000 A 
ATOM      5  C   UNL     1      -2.084  11.924  20.438  0.00  0.00    +0.000 A 
ATOM      6  C   UNL     1      -3.228  12.283  19.724  0.00  0.00    +0.000 A 
ATOM      7  N   UNL     1      -4.076  13.211  20.307  0.00  0.00    +0.000 NA
ATOM      8  C   UNL     1      -3.855  13.467  21.630  0.00  0.00    +0.000 A 
ATOM      9  C   UNL     1      -4.090  14.699  22.232  0.00  0.00    +0.000 A 
ATOM     10  C   UNL     1      -3.878  14.883  23.605  0.00  0.00    +0.000 A 
ATOM     11  C   UNL     1      -3.633  13.784  24.433  0.00  0.00    +0.000 A 
ATOM     12  C   UNL     1      -3.292  12.592  23.813  0.00  0.00    +0.000 A 
ATOM     13  C   UNL     1      -3.104  12.609  22.426  0.00  0.00    +0.000 A 
ATOM     14  C   UNL     1      -3.123  11.644  18.404  0.00  0.00    +0.000 A 
ATOM     15  C   UNL     1      -4.088  11.438  17.459  0.00  0.00    +0.000 A 
ATOM     16  C   UNL     1      -3.748  10.548  16.439  0.00  0.00    +0.000 A 
ATOM     17  C   UNL     1      -2.478   9.922  16.399  0.00  0.00    +0.000 A 
ATOM     18  C   UNL     1      -1.477  10.207  17.341  0.00  0.00    +0.000 A 
ATOM     19  C   UNL     1      -1.815  11.091  18.330  0.00  0.00    +0.000 A 
ATOM     20  C   UNL     1      -1.091  11.497  19.581  0.00  0.00    +0.000 A 
ENDROOT
BRANCH   1  21
ATOM     21  C   UNL     1       1.239  11.947  18.947  0.00  0.00    +0.000 C 
BRANCH  21  25
ATOM     22  C   UNL     1       2.512  16.018  18.247  0.00  0.00    +0.000 A 
ATOM     23  C   UNL     1       3.387  14.949  18.106  0.00  0.00    +0.000 A 
ATOM     24  C   UNL     1       2.956  13.654  18.357  0.00  0.00    +0.000 A 
ATOM     25  C   UNL     1       1.637  13.391  18.778  0.00  0.00    +0.000 A 
ATOM     26  C   UNL     1       0.763  14.479  18.902  0.00  0.00    +0.000 A 
ATOM     27  C   UNL     1       1.196  15.782  18.640  0.00  0.00    +0.000 A 
ENDBRANCH  21  25
ENDBRANCH   1  21
TORSDOF 2
ENDMDL
