MODEL 1
REMARK VINA RESULT:      -8.4      0.000      0.000
REMARK  Name = 
REMARK  10 active torsions:
REMARK  status: ('A' for Active; 'I' for Inactive)
REMARK    1  A    between atoms: C_1  and  N_2
REMARK    2  A    between atoms: C_8  and  O_9
REMARK    3  A    between atoms: O_9  and  C_10
REMARK    4  A    between atoms: C_10  and  C_12
REMARK    5  A    between atoms: C_18  and  C_19
REMARK    6  A    between atoms: C_19  and  O_21
REMARK    7  A    between atoms: O_21  and  C_22
REMARK    8  A    between atoms: C_22  and  C_23
REMARK    9  A    between atoms: C_23  and  C_24
REMARK   10  A    between atoms: C_27  and  N_28
REMARK                            x       y       z     vdW  Elec       q    Type
REMARK                         _______ _______ _______ _____ _____    ______ ____
ROOT
ATOM      1  C   UNL     1       4.139   1.161  18.813  0.00  0.00    +0.000 C 
ATOM      2  N   UNL     1       3.561   2.447  19.226  0.00  0.00    +0.000 NA
ATOM      3  C   UNL     1       3.914   3.420  18.245  0.00  0.00    +0.000 C 
ATOM      4  C   UNL     1       2.545   3.491  17.439  0.00  0.00    +0.000 C 
ATOM      5  C   UNL     1       1.419   3.232  18.435  0.00  0.00    +0.000 C 
ATOM      6  C   UNL     1       2.216   2.976  19.682  0.00  0.00    +0.000 C 
ATOM      7  C   UNL     1       2.374   4.446  20.350  0.00  0.00    +0.000 C 
ATOM      8  C   UNL     1       3.411   5.413  19.626  0.00  0.00    +0.000 C 
ATOM      9  C   UNL     1       4.500   4.467  19.247  0.00  0.00    +0.000 C 
ENDROOT
BRANCH   9  10
ATOM     10  C   UNL     1       5.905   4.920  19.103  0.00  0.00    +0.000 C 
ATOM     11  O   UNL     1       6.617   5.152  20.071  0.00  0.00    +0.000 OA
BRANCH  10  12
ATOM     12  O   UNL     1       6.212   5.413  17.878  0.00  0.00    +0.000 OA
BRANCH  12  13
ATOM     13  C   UNL     1       7.235   4.960  17.119  0.00  0.00    +0.000 C 
BRANCH  13  14
ATOM     14  C   UNL     1       7.214   5.775  15.831  0.00  0.00    +0.000 C 
BRANCH  14  15
ATOM     15  C   UNL     1       6.741   4.888  14.737  0.00  0.00    +0.000 A 
ATOM     16  C   UNL     1       7.378   4.914  13.493  0.00  0.00    +0.000 A 
ATOM     17  C   UNL     1       6.893   4.149  12.442  0.00  0.00    +0.000 A 
ATOM     18  C   UNL     1       5.745   3.356  12.620  0.00  0.00    +0.000 A 
ATOM     19  C   UNL     1       5.128   3.307  13.878  0.00  0.00    +0.000 A 
ATOM     20  C   UNL     1       5.619   4.072  14.929  0.00  0.00    +0.000 A 
BRANCH  18  21
ATOM     21  N   UNL     1       5.199   2.586  11.532  0.00  0.00    +0.000 N 
ATOM     22  O   UNL     1       4.181   2.949  11.025  0.00  0.00    +0.000 OA
ATOM     23  O   UNL     1       5.809   1.500  11.118  0.00  0.00    +0.000 OA
ENDBRANCH  18  21
ENDBRANCH  14  15
ENDBRANCH  13  14
ENDBRANCH  12  13
ENDBRANCH  10  12
ENDBRANCH   9  10
BRANCH   8  24
ATOM     24  O   UNL     1       3.053   6.024  18.430  0.00  0.00    +0.000 OA
BRANCH  24  25
ATOM     25  C   UNL     1       3.084   7.334  18.097  0.00  0.00    +0.000 C 
ATOM     26  O   UNL     1       3.929   7.745  17.318  0.00  0.00    +0.000 OA
BRANCH  25  27
ATOM     27  C   UNL     1       2.046   8.260  18.654  0.00  0.00    +0.000 A 
ATOM     28  C   UNL     1       1.687   8.191  20.012  0.00  0.00    +0.000 A 
ATOM     29  C   UNL     1       0.731   9.067  20.546  0.00  0.00    +0.000 A 
ATOM     30  C   UNL     1       0.131  10.035  19.743  0.00  0.00    +0.000 A 
ATOM     31  C   UNL     1       0.487  10.135  18.397  0.00  0.00    +0.000 A 
ATOM     32  C   UNL     1       1.442   9.254  17.850  0.00  0.00    +0.000 A 
ENDBRANCH  25  27
ENDBRANCH  24  25
ENDBRANCH   8  24
TORSDOF 9
ENDMDL
MODEL 2
REMARK VINA RESULT:      -8.4      3.667      8.597
REMARK  Name = 
REMARK  10 active torsions:
REMARK  status: ('A' for Active; 'I' for Inactive)
REMARK    1  A    between atoms: C_1  and  N_2
REMARK    2  A    between atoms: C_8  and  O_9
REMARK    3  A    between atoms: O_9  and  C_10
REMARK    4  A    between atoms: C_10  and  C_12
REMARK    5  A    between atoms: C_18  and  C_19
REMARK    6  A    between atoms: C_19  and  O_21
REMARK    7  A    between atoms: O_21  and  C_22
REMARK    8  A    between atoms: C_22  and  C_23
REMARK    9  A    between atoms: C_23  and  C_24
REMARK   10  A    between atoms: C_27  and  N_28
REMARK                            x       y       z     vdW  Elec       q    Type
REMARK                         _______ _______ _______ _____ _____    ______ ____
ROOT
ATOM      1  C   UNL     1       1.677   3.157  21.452  0.00  0.00    +0.000 C 
ATOM      2  N   UNL     1       2.015   3.116  20.023  0.00  0.00    +0.000 NA
ATOM      3  C   UNL     1       3.201   3.885  19.832  0.00  0.00    +0.000 C 
ATOM      4  C   UNL     1       4.265   2.707  19.732  0.00  0.00    +0.000 C 
ATOM      5  C   UNL     1       3.562   1.516  19.089  0.00  0.00    +0.000 C 
ATOM      6  C   UNL     1       2.174   2.070  18.938  0.00  0.00    +0.000 C 
ATOM      7  C   UNL     1       2.191   2.763  17.471  0.00  0.00    +0.000 C 
ATOM      8  C   UNL     1       2.985   4.139  17.378  0.00  0.00    +0.000 C 
ATOM      9  C   UNL     1       2.641   4.780  18.680  0.00  0.00    +0.000 C 
ENDROOT
BRANCH   9  10
ATOM     10  C   UNL     1       2.619   6.256  18.837  0.00  0.00    +0.000 C 
ATOM     11  O   UNL     1       3.008   7.010  17.956  0.00  0.00    +0.000 OA
BRANCH  10  12
ATOM     12  O   UNL     1       2.508   6.681  20.119  0.00  0.00    +0.000 OA
BRANCH  12  13
ATOM     13  C   UNL     1       1.434   7.346  20.602  0.00  0.00    +0.000 C 
BRANCH  13  14
ATOM     14  C   UNL     1       1.596   8.800  20.174  0.00  0.00    +0.000 C 
BRANCH  14  15
ATOM     15  C   UNL     1       0.608   9.610  20.933  0.00  0.00    +0.000 A 
ATOM     16  C   UNL     1       0.189  10.847  20.434  0.00  0.00    +0.000 A 
ATOM     17  C   UNL     1      -0.670  11.647  21.174  0.00  0.00    +0.000 A 
ATOM     18  C   UNL     1      -1.109  11.222  22.441  0.00  0.00    +0.000 A 
ATOM     19  C   UNL     1      -0.712   9.968  22.926  0.00  0.00    +0.000 A 
ATOM     20  C   UNL     1       0.145   9.168  22.179  0.00  0.00    +0.000 A 
BRANCH  18  21
ATOM     21  N   UNL     1      -1.967  12.054  23.246  0.00  0.00    +0.000 N 
ATOM     22  O   UNL     1      -2.980  11.590  23.673  0.00  0.00    +0.000 OA
ATOM     23  O   UNL     1      -1.641  13.302  23.489  0.00  0.00    +0.000 OA
ENDBRANCH  18  21
ENDBRANCH  14  15
ENDBRANCH  13  14
ENDBRANCH  12  13
ENDBRANCH  10  12
ENDBRANCH   9  10
BRANCH   8  24
ATOM     24  O   UNL     1       4.375   4.125  17.359  0.00  0.00    +0.000 OA
BRANCH  24  25
ATOM     25  C   UNL     1       5.227   4.898  16.648  0.00  0.00    +0.000 C 
ATOM     26  O   UNL     1       5.120   4.967  15.434  0.00  0.00    +0.000 OA
BRANCH  25  27
ATOM     27  C   UNL     1       6.267   5.701  17.369  0.00  0.00    +0.000 A 
ATOM     28  C   UNL     1       6.961   5.148  18.460  0.00  0.00    +0.000 A 
ATOM     29  C   UNL     1       7.950   5.887  19.128  0.00  0.00    +0.000 A 
ATOM     30  C   UNL     1       8.274   7.176  18.711  0.00  0.00    +0.000 A 
ATOM     31  C   UNL     1       7.612   7.736  17.616  0.00  0.00    +0.000 A 
ATOM     32  C   UNL     1       6.613   7.004  16.944  0.00  0.00    +0.000 A 
ENDBRANCH  25  27
ENDBRANCH  24  25
ENDBRANCH   8  24
TORSDOF 9
ENDMDL
MODEL 3
REMARK VINA RESULT:      -8.3      3.435      8.017
REMARK  Name = 
REMARK  10 active torsions:
REMARK  status: ('A' for Active; 'I' for Inactive)
REMARK    1  A    between atoms: C_1  and  N_2
REMARK    2  A    between atoms: C_8  and  O_9
REMARK    3  A    between atoms: O_9  and  C_10
REMARK    4  A    between atoms: C_10  and  C_12
REMARK    5  A    between atoms: C_18  and  C_19
REMARK    6  A    between atoms: C_19  and  O_21
REMARK    7  A    between atoms: O_21  and  C_22
REMARK    8  A    between atoms: C_22  and  C_23
REMARK    9  A    between atoms: C_23  and  C_24
REMARK   10  A    between atoms: C_27  and  N_28
REMARK                            x       y       z     vdW  Elec       q    Type
REMARK                         _______ _______ _______ _____ _____    ______ ____
ROOT
ATOM      1  C   UNL     1       1.293   2.868  21.276  0.00  0.00    +0.000 C 
ATOM      2  N   UNL     1       1.743   3.052  19.889  0.00  0.00    +0.000 NA
ATOM      3  C   UNL     1       2.934   3.836  19.917  0.00  0.00    +0.000 C 
ATOM      4  C   UNL     1       4.013   2.685  19.718  0.00  0.00    +0.000 C 
ATOM      5  C   UNL     1       3.374   1.613  18.841  0.00  0.00    +0.000 C 
ATOM      6  C   UNL     1       1.997   2.189  18.669  0.00  0.00    +0.000 C 
ATOM      7  C   UNL     1       2.125   3.105  17.335  0.00  0.00    +0.000 C 
ATOM      8  C   UNL     1       2.911   4.476  17.524  0.00  0.00    +0.000 C 
ATOM      9  C   UNL     1       2.459   4.905  18.880  0.00  0.00    +0.000 C 
ENDROOT
BRANCH   9  10
ATOM     10  C   UNL     1       2.413   6.337  19.265  0.00  0.00    +0.000 C 
ATOM     11  O   UNL     1       1.928   6.711  20.324  0.00  0.00    +0.000 OA
BRANCH  10  12
ATOM     12  O   UNL     1       2.583   7.200  18.234  0.00  0.00    +0.000 OA
BRANCH  12  13
ATOM     13  C   UNL     1       2.483   8.543  18.351  0.00  0.00    +0.000 C 
BRANCH  13  14
ATOM     14  C   UNL     1       1.241   8.956  17.572  0.00  0.00    +0.000 C 
BRANCH  14  15
ATOM     15  C   UNL     1       0.408   9.808  18.459  0.00  0.00    +0.000 A 
ATOM     16  C   UNL     1      -0.823  10.293  18.007  0.00  0.00    +0.000 A 
ATOM     17  C   UNL     1      -1.569  11.156  18.797  0.00  0.00    +0.000 A 
ATOM     18  C   UNL     1      -1.079  11.561  20.052  0.00  0.00    +0.000 A 
ATOM     19  C   UNL     1       0.141  11.050  20.516  0.00  0.00    +0.000 A 
ATOM     20  C   UNL     1       0.883  10.182  19.722  0.00  0.00    +0.000 A 
BRANCH  18  21
ATOM     21  N   UNL     1      -1.817  12.489  20.872  0.00  0.00    +0.000 N 
ATOM     22  O   UNL     1      -1.216  13.187  21.631  0.00  0.00    +0.000 OA
ATOM     23  O   UNL     1      -3.125  12.551  20.787  0.00  0.00    +0.000 OA
ENDBRANCH  18  21
ENDBRANCH  14  15
ENDBRANCH  13  14
ENDBRANCH  12  13
ENDBRANCH  10  12
ENDBRANCH   9  10
BRANCH   8  24
ATOM     24  O   UNL     1       4.298   4.459  17.614  0.00  0.00    +0.000 OA
BRANCH  24  25
ATOM     25  C   UNL     1       5.213   5.059  16.818  0.00  0.00    +0.000 C 
ATOM     26  O   UNL     1       5.119   4.967  15.604  0.00  0.00    +0.000 OA
BRANCH  25  27
ATOM     27  C   UNL     1       6.307   5.872  17.439  0.00  0.00    +0.000 A 
ATOM     28  C   UNL     1       6.588   7.166  16.965  0.00  0.00    +0.000 A 
ATOM     29  C   UNL     1       7.598   7.941  17.554  0.00  0.00    +0.000 A 
ATOM     30  C   UNL     1       8.330   7.449  18.633  0.00  0.00    +0.000 A 
ATOM     31  C   UNL     1       8.053   6.176  19.133  0.00  0.00    +0.000 A 
ATOM     32  C   UNL     1       7.046   5.387  18.543  0.00  0.00    +0.000 A 
ENDBRANCH  25  27
ENDBRANCH  24  25
ENDBRANCH   8  24
TORSDOF 9
ENDMDL
MODEL 4
REMARK VINA RESULT:      -8.2      3.215      7.957
REMARK  Name = 
REMARK  10 active torsions:
REMARK  status: ('A' for Active; 'I' for Inactive)
REMARK    1  A    between atoms: C_1  and  N_2
REMARK    2  A    between atoms: C_8  and  O_9
REMARK    3  A    between atoms: O_9  and  C_10
REMARK    4  A    between atoms: C_10  and  C_12
REMARK    5  A    between atoms: C_18  and  C_19
REMARK    6  A    between atoms: C_19  and  O_21
REMARK    7  A    between atoms: O_21  and  C_22
REMARK    8  A    between atoms: C_22  and  C_23
REMARK    9  A    between atoms: C_23  and  C_24
REMARK   10  A    between atoms: C_27  and  N_28
REMARK                            x       y       z     vdW  Elec       q    Type
REMARK                         _______ _______ _______ _____ _____    ______ ____
ROOT
ATOM      1  C   UNL     1       5.377   6.900  15.490  0.00  0.00    +0.000 C 
ATOM      2  N   UNL     1       5.784   6.274  16.755  0.00  0.00    +0.000 NA
ATOM      3  C   UNL     1       4.953   5.135  16.967  0.00  0.00    +0.000 C 
ATOM      4  C   UNL     1       5.957   3.988  16.512  0.00  0.00    +0.000 C 
ATOM      5  C   UNL     1       7.366   4.454  16.865  0.00  0.00    +0.000 C 
ATOM      6  C   UNL     1       7.069   5.819  17.418  0.00  0.00    +0.000 C 
ATOM      7  C   UNL     1       6.836   5.553  19.001  0.00  0.00    +0.000 C 
ATOM      8  C   UNL     1       5.452   4.862  19.378  0.00  0.00    +0.000 C 
ATOM      9  C   UNL     1       4.513   5.512  18.419  0.00  0.00    +0.000 C 
ENDROOT
BRANCH   9  10
ATOM     10  C   UNL     1       3.072   5.675  18.733  0.00  0.00    +0.000 C 
ATOM     11  O   UNL     1       2.201   5.539  17.885  0.00  0.00    +0.000 OA
BRANCH  10  12
ATOM     12  O   UNL     1       2.823   6.339  19.888  0.00  0.00    +0.000 OA
BRANCH  12  13
ATOM     13  C   UNL     1       1.590   6.733  20.279  0.00  0.00    +0.000 C 
BRANCH  13  14
ATOM     14  C   UNL     1       1.784   7.970  21.147  0.00  0.00    +0.000 C 
BRANCH  14  15
ATOM     15  C   UNL     1       0.962   9.065  20.571  0.00  0.00    +0.000 A 
ATOM     16  C   UNL     1       0.094   9.792  21.391  0.00  0.00    +0.000 A 
ATOM     17  C   UNL     1      -0.737  10.761  20.846  0.00  0.00    +0.000 A 
ATOM     18  C   UNL     1      -0.720  11.005  19.461  0.00  0.00    +0.000 A 
ATOM     19  C   UNL     1       0.174  10.297  18.646  0.00  0.00    +0.000 A 
ATOM     20  C   UNL     1       1.007   9.329  19.196  0.00  0.00    +0.000 A 
BRANCH  18  21
ATOM     21  N   UNL     1      -1.603  11.976  18.868  0.00  0.00    +0.000 N 
ATOM     22  O   UNL     1      -1.276  12.502  17.848  0.00  0.00    +0.000 OA
ATOM     23  O   UNL     1      -2.738  12.282  19.452  0.00  0.00    +0.000 OA
ENDBRANCH  18  21
ENDBRANCH  14  15
ENDBRANCH  13  14
ENDBRANCH  12  13
ENDBRANCH  10  12
ENDBRANCH   9  10
BRANCH   8  24
ATOM     24  O   UNL     1       5.287   3.500  19.152  0.00  0.00    +0.000 OA
BRANCH  24  25
ATOM     25  C   UNL     1       4.617   2.587  19.890  0.00  0.00    +0.000 C 
ATOM     26  O   UNL     1       5.233   1.777  20.564  0.00  0.00    +0.000 OA
BRANCH  25  27
ATOM     27  C   UNL     1       3.119   2.611  19.908  0.00  0.00    +0.000 A 
ATOM     28  C   UNL     1       2.428   3.034  21.058  0.00  0.00    +0.000 A 
ATOM     29  C   UNL     1       1.026   3.079  21.075  0.00  0.00    +0.000 A 
ATOM     30  C   UNL     1       0.292   2.722  19.946  0.00  0.00    +0.000 A 
ATOM     31  C   UNL     1       0.958   2.320  18.787  0.00  0.00    +0.000 A 
ATOM     32  C   UNL     1       2.365   2.265  18.762  0.00  0.00    +0.000 A 
ENDBRANCH  25  27
ENDBRANCH  24  25
ENDBRANCH   8  24
TORSDOF 9
ENDMDL
MODEL 5
REMARK VINA RESULT:      -8.2      3.763      8.729
REMARK  Name = 
REMARK  10 active torsions:
REMARK  status: ('A' for Active; 'I' for Inactive)
REMARK    1  A    between atoms: C_1  and  N_2
REMARK    2  A    between atoms: C_8  and  O_9
REMARK    3  A    between atoms: O_9  and  C_10
REMARK    4  A    between atoms: C_10  and  C_12
REMARK    5  A    between atoms: C_18  and  C_19
REMARK    6  A    between atoms: C_19  and  O_21
REMARK    7  A    between atoms: O_21  and  C_22
REMARK    8  A    between atoms: C_22  and  C_23
REMARK    9  A    between atoms: C_23  and  C_24
REMARK   10  A    between atoms: C_27  and  N_28
REMARK                            x       y       z     vdW  Elec       q    Type
REMARK                         _______ _______ _______ _____ _____    ______ ____
ROOT
ATOM      1  C   UNL     1       1.651   3.024  21.507  0.00  0.00    +0.000 C 
ATOM      2  N   UNL     1       1.975   3.104  20.076  0.00  0.00    +0.000 NA
ATOM      3  C   UNL     1       3.155   3.894  19.939  0.00  0.00    +0.000 C 
ATOM      4  C   UNL     1       4.225   2.735  19.732  0.00  0.00    +0.000 C 
ATOM      5  C   UNL     1       3.522   1.597  18.999  0.00  0.00    +0.000 C 
ATOM      6  C   UNL     1       2.130   2.152  18.907  0.00  0.00    +0.000 C 
ATOM      7  C   UNL     1       2.129   2.964  17.502  0.00  0.00    +0.000 C 
ATOM      8  C   UNL     1       2.914   4.349  17.517  0.00  0.00    +0.000 C 
ATOM      9  C   UNL     1       2.579   4.878  18.871  0.00  0.00    +0.000 C 
ENDROOT
BRANCH   9  10
ATOM     10  C   UNL     1       2.550   6.335  19.149  0.00  0.00    +0.000 C 
ATOM     11  O   UNL     1       3.223   7.133  18.511  0.00  0.00    +0.000 OA
BRANCH  10  12
ATOM     12  O   UNL     1       2.046   6.663  20.364  0.00  0.00    +0.000 OA
BRANCH  12  13
ATOM     13  C   UNL     1       1.091   7.601  20.554  0.00  0.00    +0.000 C 
BRANCH  13  14
ATOM     14  C   UNL     1       1.644   8.581  21.582  0.00  0.00    +0.000 C 
BRANCH  14  15
ATOM     15  C   UNL     1       0.619   9.633  21.806  0.00  0.00    +0.000 A 
ATOM     16  C   UNL     1      -0.084   9.676  23.014  0.00  0.00    +0.000 A 
ATOM     17  C   UNL     1      -1.099  10.604  23.200  0.00  0.00    +0.000 A 
ATOM     18  C   UNL     1      -1.436  11.495  22.165  0.00  0.00    +0.000 A 
ATOM     19  C   UNL     1      -0.708  11.470  20.968  0.00  0.00    +0.000 A 
ATOM     20  C   UNL     1       0.310  10.541  20.786  0.00  0.00    +0.000 A 
BRANCH  18  21
ATOM     21  N   UNL     1      -2.513  12.439  22.321  0.00  0.00    +0.000 N 
ATOM     22  O   UNL     1      -2.411  13.515  21.815  0.00  0.00    +0.000 OA
ATOM     23  O   UNL     1      -3.579  12.119  23.018  0.00  0.00    +0.000 OA
ENDBRANCH  18  21
ENDBRANCH  14  15
ENDBRANCH  13  14
ENDBRANCH  12  13
ENDBRANCH  10  12
ENDBRANCH   9  10
BRANCH   8  24
ATOM     24  O   UNL     1       4.303   4.345  17.483  0.00  0.00    +0.000 OA
BRANCH  24  25
ATOM     25  C   UNL     1       5.142   5.090  16.727  0.00  0.00    +0.000 C 
ATOM     26  O   UNL     1       4.965   5.171  15.522  0.00  0.00    +0.000 OA
BRANCH  25  27
ATOM     27  C   UNL     1       6.254   5.846  17.388  0.00  0.00    +0.000 A 
ATOM     28  C   UNL     1       6.594   7.137  16.949  0.00  0.00    +0.000 A 
ATOM     29  C   UNL     1       7.621   7.859  17.576  0.00  0.00    +0.000 A 
ATOM     30  C   UNL     1       8.310   7.316  18.658  0.00  0.00    +0.000 A 
ATOM     31  C   UNL     1       7.974   6.043  19.124  0.00  0.00    +0.000 A 
ATOM     32  C   UNL     1       6.949   5.308  18.496  0.00  0.00    +0.000 A 
ENDBRANCH  25  27
ENDBRANCH  24  25
ENDBRANCH   8  24
TORSDOF 9
ENDMDL
MODEL 6
REMARK VINA RESULT:      -8.1      3.307      7.935
REMARK  Name = 
REMARK  10 active torsions:
REMARK  status: ('A' for Active; 'I' for Inactive)
REMARK    1  A    between atoms: C_1  and  N_2
REMARK    2  A    between atoms: C_8  and  O_9
REMARK    3  A    between atoms: O_9  and  C_10
REMARK    4  A    between atoms: C_10  and  C_12
REMARK    5  A    between atoms: C_18  and  C_19
REMARK    6  A    between atoms: C_19  and  O_21
REMARK    7  A    between atoms: O_21  and  C_22
REMARK    8  A    between atoms: C_22  and  C_23
REMARK    9  A    between atoms: C_23  and  C_24
REMARK   10  A    between atoms: C_27  and  N_28
REMARK                            x       y       z     vdW  Elec       q    Type
REMARK                         _______ _______ _______ _____ _____    ______ ____
ROOT
ATOM      1  C   UNL     1       1.663   2.964  21.380  0.00  0.00    +0.000 C 
ATOM      2  N   UNL     1       2.054   2.965  19.964  0.00  0.00    +0.000 NA
ATOM      3  C   UNL     1       3.208   3.792  19.829  0.00  0.00    +0.000 C 
ATOM      4  C   UNL     1       4.330   2.668  19.750  0.00  0.00    +0.000 C 
ATOM      5  C   UNL     1       3.708   1.456  19.062  0.00  0.00    +0.000 C 
ATOM      6  C   UNL     1       2.302   1.947  18.868  0.00  0.00    +0.000 C 
ATOM      7  C   UNL     1       2.339   2.666  17.414  0.00  0.00    +0.000 C 
ATOM      8  C   UNL     1       3.069   4.080  17.373  0.00  0.00    +0.000 C 
ATOM      9  C   UNL     1       2.648   4.681  18.672  0.00  0.00    +0.000 C 
ENDROOT
BRANCH   9  10
ATOM     10  C   UNL     1       2.550   6.150  18.852  0.00  0.00    +0.000 C 
ATOM     11  O   UNL     1       2.853   6.937  17.965  0.00  0.00    +0.000 OA
BRANCH  10  12
ATOM     12  O   UNL     1       2.477   6.553  20.144  0.00  0.00    +0.000 OA
BRANCH  12  13
ATOM     13  C   UNL     1       1.336   6.965  20.741  0.00  0.00    +0.000 C 
BRANCH  13  14
ATOM     14  C   UNL     1       1.653   8.295  21.414  0.00  0.00    +0.000 C 
BRANCH  14  15
ATOM     15  C   UNL     1       0.680   9.301  20.914  0.00  0.00    +0.000 A 
ATOM     16  C   UNL     1       0.569   9.542  19.541  0.00  0.00    +0.000 A 
ATOM     17  C   UNL     1      -0.277  10.537  19.072  0.00  0.00    +0.000 A 
ATOM     18  C   UNL     1      -1.014  11.320  19.979  0.00  0.00    +0.000 A 
ATOM     19  C   UNL     1      -0.923  11.056  21.352  0.00  0.00    +0.000 A 
ATOM     20  C   UNL     1      -0.077  10.056  21.819  0.00  0.00    +0.000 A 
BRANCH  18  21
ATOM     21  N   UNL     1      -1.866  12.386  19.516  0.00  0.00    +0.000 N 
ATOM     22  O   UNL     1      -2.672  12.149  18.668  0.00  0.00    +0.000 OA
ATOM     23  O   UNL     1      -1.745  13.594  20.015  0.00  0.00    +0.000 OA
ENDBRANCH  18  21
ENDBRANCH  14  15
ENDBRANCH  13  14
ENDBRANCH  12  13
ENDBRANCH  10  12
ENDBRANCH   9  10
BRANCH   8  24
ATOM     24  O   UNL     1       4.457   4.131  17.405  0.00  0.00    +0.000 OA
BRANCH  24  25
ATOM     25  C   UNL     1       5.301   4.891  16.669  0.00  0.00    +0.000 C 
ATOM     26  O   UNL     1       5.206   4.902  15.452  0.00  0.00    +0.000 OA
BRANCH  25  27
ATOM     27  C   UNL     1       6.315   5.748  17.365  0.00  0.00    +0.000 A 
ATOM     28  C   UNL     1       6.994   5.267  18.498  0.00  0.00    +0.000 A 
ATOM     29  C   UNL     1       7.959   6.056  19.142  0.00  0.00    +0.000 A 
ATOM     30  C   UNL     1       8.274   7.325  18.660  0.00  0.00    +0.000 A 
ATOM     31  C   UNL     1       7.627   7.813  17.523  0.00  0.00    +0.000 A 
ATOM     32  C   UNL     1       6.651   7.030  16.874  0.00  0.00    +0.000 A 
ENDBRANCH  25  27
ENDBRANCH  24  25
ENDBRANCH   8  24
TORSDOF 9
ENDMDL
MODEL 7
REMARK VINA RESULT:      -8.0      3.443      8.329
REMARK  Name = 
REMARK  10 active torsions:
REMARK  status: ('A' for Active; 'I' for Inactive)
REMARK    1  A    between atoms: C_1  and  N_2
REMARK    2  A    between atoms: C_8  and  O_9
REMARK    3  A    between atoms: O_9  and  C_10
REMARK    4  A    between atoms: C_10  and  C_12
REMARK    5  A    between atoms: C_18  and  C_19
REMARK    6  A    between atoms: C_19  and  O_21
REMARK    7  A    between atoms: O_21  and  C_22
REMARK    8  A    between atoms: C_22  and  C_23
REMARK    9  A    between atoms: C_23  and  C_24
REMARK   10  A    between atoms: C_27  and  N_28
REMARK                            x       y       z     vdW  Elec       q    Type
REMARK                         _______ _______ _______ _____ _____    ______ ____
ROOT
ATOM      1  C   UNL     1       5.239   6.784  15.189  0.00  0.00    +0.000 C 
ATOM      2  N   UNL     1       5.677   6.236  16.480  0.00  0.00    +0.000 NA
ATOM      3  C   UNL     1       4.864   5.100  16.770  0.00  0.00    +0.000 C 
ATOM      4  C   UNL     1       5.875   3.942  16.362  0.00  0.00    +0.000 C 
ATOM      5  C   UNL     1       7.284   4.444  16.663  0.00  0.00    +0.000 C 
ATOM      6  C   UNL     1       6.979   5.834  17.144  0.00  0.00    +0.000 C 
ATOM      7  C   UNL     1       6.775   5.654  18.744  0.00  0.00    +0.000 C 
ATOM      8  C   UNL     1       5.408   4.968  19.183  0.00  0.00    +0.000 C 
ATOM      9  C   UNL     1       4.444   5.553  18.206  0.00  0.00    +0.000 C 
ENDROOT
BRANCH   9  10
ATOM     10  C   UNL     1       3.007   5.715  18.536  0.00  0.00    +0.000 C 
ATOM     11  O   UNL     1       2.119   5.422  17.746  0.00  0.00    +0.000 OA
BRANCH  10  12
ATOM     12  O   UNL     1       2.763   6.542  19.582  0.00  0.00    +0.000 OA
BRANCH  12  13
ATOM     13  C   UNL     1       2.169   7.751  19.465  0.00  0.00    +0.000 C 
BRANCH  13  14
ATOM     14  C   UNL     1       1.382   7.975  20.751  0.00  0.00    +0.000 C 
BRANCH  14  15
ATOM     15  C   UNL     1       0.611   9.236  20.599  0.00  0.00    +0.000 A 
ATOM     16  C   UNL     1       0.279   9.701  19.323  0.00  0.00    +0.000 A 
ATOM     17  C   UNL     1      -0.370  10.919  19.169  0.00  0.00    +0.000 A 
ATOM     18  C   UNL     1      -0.680  11.699  20.298  0.00  0.00    +0.000 A 
ATOM     19  C   UNL     1      -0.373  11.215  21.577  0.00  0.00    +0.000 A 
ATOM     20  C   UNL     1       0.273   9.993  21.728  0.00  0.00    +0.000 A 
BRANCH  18  21
ATOM     21  N   UNL     1      -1.316  12.984  20.159  0.00  0.00    +0.000 N 
ATOM     22  O   UNL     1      -0.788  13.815  19.484  0.00  0.00    +0.000 OA
ATOM     23  O   UNL     1      -2.447  13.233  20.775  0.00  0.00    +0.000 OA
ENDBRANCH  18  21
ENDBRANCH  14  15
ENDBRANCH  13  14
ENDBRANCH  12  13
ENDBRANCH  10  12
ENDBRANCH   9  10
BRANCH   8  24
ATOM     24  O   UNL     1       5.256   3.595  19.036  0.00  0.00    +0.000 OA
BRANCH  24  25
ATOM     25  C   UNL     1       4.597   2.718  19.828  0.00  0.00    +0.000 C 
ATOM     26  O   UNL     1       5.223   1.935  20.523  0.00  0.00    +0.000 OA
BRANCH  25  27
ATOM     27  C   UNL     1       3.100   2.754  19.876  0.00  0.00    +0.000 A 
ATOM     28  C   UNL     1       2.342   2.226  18.816  0.00  0.00    +0.000 A 
ATOM     29  C   UNL     1       0.940   2.237  18.863  0.00  0.00    +0.000 A 
ATOM     30  C   UNL     1       0.272   2.756  19.970  0.00  0.00    +0.000 A 
ATOM     31  C   UNL     1       1.005   3.266  21.043  0.00  0.00    +0.000 A 
ATOM     32  C   UNL     1       2.414   3.265  21.002  0.00  0.00    +0.000 A 
ENDBRANCH  25  27
ENDBRANCH  24  25
ENDBRANCH   8  24
TORSDOF 9
ENDMDL
MODEL 8
REMARK VINA RESULT:      -8.0      1.021      1.720
REMARK  Name = 
REMARK  10 active torsions:
REMARK  status: ('A' for Active; 'I' for Inactive)
REMARK    1  A    between atoms: C_1  and  N_2
REMARK    2  A    between atoms: C_8  and  O_9
REMARK    3  A    between atoms: O_9  and  C_10
REMARK    4  A    between atoms: C_10  and  C_12
REMARK    5  A    between atoms: C_18  and  C_19
REMARK    6  A    between atoms: C_19  and  O_21
REMARK    7  A    between atoms: O_21  and  C_22
REMARK    8  A    between atoms: C_22  and  C_23
REMARK    9  A    between atoms: C_23  and  C_24
REMARK   10  A    between atoms: C_27  and  N_28
REMARK                            x       y       z     vdW  Elec       q    Type
REMARK                         _______ _______ _______ _____ _____    ______ ____
ROOT
ATOM      1  C   UNL     1       3.793   2.154  18.010  0.00  0.00    +0.000 C 
ATOM      2  N   UNL     1       3.348   3.256  18.874  0.00  0.00    +0.000 NA
ATOM      3  C   UNL     1       3.040   4.370  18.039  0.00  0.00    +0.000 C 
ATOM      4  C   UNL     1       1.455   4.250  18.013  0.00  0.00    +0.000 C 
ATOM      5  C   UNL     1       1.021   3.680  19.360  0.00  0.00    +0.000 C 
ATOM      6  C   UNL     1       2.360   3.464  20.005  0.00  0.00    +0.000 C 
ATOM      7  C   UNL     1       2.652   4.865  20.770  0.00  0.00    +0.000 C 
ATOM      8  C   UNL     1       3.060   6.082  19.829  0.00  0.00    +0.000 C 
ATOM      9  C   UNL     1       3.917   5.409  18.811  0.00  0.00    +0.000 C 
ENDROOT
BRANCH   9  10
ATOM     10  C   UNL     1       4.994   6.139  18.098  0.00  0.00    +0.000 C 
ATOM     11  O   UNL     1       4.768   6.845  17.124  0.00  0.00    +0.000 OA
BRANCH  10  12
ATOM     12  O   UNL     1       6.244   5.680  18.350  0.00  0.00    +0.000 OA
BRANCH  12  13
ATOM     13  C   UNL     1       6.869   4.745  17.600  0.00  0.00    +0.000 C 
BRANCH  13  14
ATOM     14  C   UNL     1       7.387   5.459  16.358  0.00  0.00    +0.000 C 
BRANCH  14  15
ATOM     15  C   UNL     1       6.863   4.742  15.167  0.00  0.00    +0.000 A 
ATOM     16  C   UNL     1       7.443   4.954  13.913  0.00  0.00    +0.000 A 
ATOM     17  C   UNL     1       6.908   4.351  12.783  0.00  0.00    +0.000 A 
ATOM     18  C   UNL     1       5.766   3.537  12.894  0.00  0.00    +0.000 A 
ATOM     19  C   UNL     1       5.205   3.302  14.157  0.00  0.00    +0.000 A 
ATOM     20  C   UNL     1       5.746   3.904  15.287  0.00  0.00    +0.000 A 
BRANCH  18  21
ATOM     21  N   UNL     1       5.169   2.936  11.729  0.00  0.00    +0.000 N 
ATOM     22  O   UNL     1       5.616   1.906  11.322  0.00  0.00    +0.000 OA
ATOM     23  O   UNL     1       4.160   3.520  11.126  0.00  0.00    +0.000 OA
ENDBRANCH  18  21
ENDBRANCH  14  15
ENDBRANCH  13  14
ENDBRANCH  12  13
ENDBRANCH  10  12
ENDBRANCH   9  10
BRANCH   8  24
ATOM     24  O   UNL     1       2.079   6.724  19.082  0.00  0.00    +0.000 OA
BRANCH  24  25
ATOM     25  C   UNL     1       1.872   8.049  18.902  0.00  0.00    +0.000 C 
ATOM     26  O   UNL     1       2.217   8.583  17.860  0.00  0.00    +0.000 OA
BRANCH  25  27
ATOM     27  C   UNL     1       1.177   8.836  19.971  0.00  0.00    +0.000 A 
ATOM     28  C   UNL     1       0.693  10.129  19.700  0.00  0.00    +0.000 A 
ATOM     29  C   UNL     1       0.024  10.864  20.689  0.00  0.00    +0.000 A 
ATOM     30  C   UNL     1      -0.191  10.320  21.953  0.00  0.00    +0.000 A 
ATOM     31  C   UNL     1       0.261   9.030  22.237  0.00  0.00    +0.000 A 
ATOM     32  C   UNL     1       0.942   8.287  21.252  0.00  0.00    +0.000 A 
ENDBRANCH  25  27
ENDBRANCH  24  25
ENDBRANCH   8  24
TORSDOF 9
ENDMDL
MODEL 9
REMARK VINA RESULT:      -7.9      3.467      8.411
REMARK  Name = 
REMARK  10 active torsions:
REMARK  status: ('A' for Active; 'I' for Inactive)
REMARK    1  A    between atoms: C_1  and  N_2
REMARK    2  A    between atoms: C_8  and  O_9
REMARK    3  A    between atoms: O_9  and  C_10
REMARK    4  A    between atoms: C_10  and  C_12
REMARK    5  A    between atoms: C_18  and  C_19
REMARK    6  A    between atoms: C_19  and  O_21
REMARK    7  A    between atoms: O_21  and  C_22
REMARK    8  A    between atoms: C_22  and  C_23
REMARK    9  A    between atoms: C_23  and  C_24
REMARK   10  A    between atoms: C_27  and  N_28
REMARK                            x       y       z     vdW  Elec       q    Type
REMARK                         _______ _______ _______ _____ _____    ______ ____
ROOT
ATOM      1  C   UNL     1       1.059   3.648  20.616  0.00  0.00    +0.000 C 
ATOM      2  N   UNL     1       1.755   3.480  19.333  0.00  0.00    +0.000 NA
ATOM      3  C   UNL     1       3.056   4.049  19.464  0.00  0.00    +0.000 C 
ATOM      4  C   UNL     1       3.905   2.720  19.670  0.00  0.00    +0.000 C 
ATOM      5  C   UNL     1       3.218   1.616  18.873  0.00  0.00    +0.000 C 
ATOM      6  C   UNL     1       2.029   2.364  18.343  0.00  0.00    +0.000 C 
ATOM      7  C   UNL     1       2.548   2.966  16.929  0.00  0.00    +0.000 C 
ATOM      8  C   UNL     1       3.547   4.200  17.041  0.00  0.00    +0.000 C 
ATOM      9  C   UNL     1       2.975   4.955  18.193  0.00  0.00    +0.000 C 
ENDROOT
BRANCH   9  10
ATOM     10  C   UNL     1       3.149   6.423  18.322  0.00  0.00    +0.000 C 
ATOM     11  O   UNL     1       3.673   7.096  17.444  0.00  0.00    +0.000 OA
BRANCH  10  12
ATOM     12  O   UNL     1       3.045   6.890  19.590  0.00  0.00    +0.000 OA
BRANCH  12  13
ATOM     13  C   UNL     1       1.904   7.386  20.119  0.00  0.00    +0.000 C 
BRANCH  13  14
ATOM     14  C   UNL     1       1.555   8.630  19.310  0.00  0.00    +0.000 C 
BRANCH  14  15
ATOM     15  C   UNL     1       0.761   9.533  20.182  0.00  0.00    +0.000 A 
ATOM     16  C   UNL     1       0.831  10.918  20.002  0.00  0.00    +0.000 A 
ATOM     17  C   UNL     1       0.157  11.771  20.864  0.00  0.00    +0.000 A 
ATOM     18  C   UNL     1      -0.587  11.245  21.935  0.00  0.00    +0.000 A 
ATOM     19  C   UNL     1      -0.681   9.856  22.095  0.00  0.00    +0.000 A 
ATOM     20  C   UNL     1      -0.008   9.004  21.227  0.00  0.00    +0.000 A 
BRANCH  18  21
ATOM     21  N   UNL     1      -1.261  12.114  22.866  0.00  0.00    +0.000 N 
ATOM     22  O   UNL     1      -2.170  11.676  23.504  0.00  0.00    +0.000 OA
ATOM     23  O   UNL     1      -0.885  13.364  22.997  0.00  0.00    +0.000 OA
ENDBRANCH  18  21
ENDBRANCH  14  15
ENDBRANCH  13  14
ENDBRANCH  12  13
ENDBRANCH  10  12
ENDBRANCH   9  10
BRANCH   8  24
ATOM     24  O   UNL     1       4.871   3.974  17.400  0.00  0.00    +0.000 OA
BRANCH  24  25
ATOM     25  C   UNL     1       6.004   4.373  16.780  0.00  0.00    +0.000 C 
ATOM     26  O   UNL     1       6.333   3.860  15.723  0.00  0.00    +0.000 OA
BRANCH  25  27
ATOM     27  C   UNL     1       6.820   5.479  17.379  0.00  0.00    +0.000 A 
ATOM     28  C   UNL     1       6.928   6.718  16.723  0.00  0.00    +0.000 A 
ATOM     29  C   UNL     1       7.674   7.763  17.287  0.00  0.00    +0.000 A 
ATOM     30  C   UNL     1       8.307   7.600  18.517  0.00  0.00    +0.000 A 
ATOM     31  C   UNL     1       8.195   6.384  19.196  0.00  0.00    +0.000 A 
ATOM     32  C   UNL     1       7.454   5.326  18.634  0.00  0.00    +0.000 A 
ENDBRANCH  25  27
ENDBRANCH  24  25
ENDBRANCH   8  24
TORSDOF 9
ENDMDL
