MODEL 1
REMARK VINA RESULT:      -8.0      0.000      0.000
REMARK  Name = 
REMARK  11 active torsions:
REMARK  status: ('A' for Active; 'I' for Inactive)
REMARK    1  A    between atoms: C_1  and  O_2
REMARK    2  A    between atoms: O_2  and  C_3
REMARK    3  A    between atoms: C_3  and  C_5
REMARK    4  A    between atoms: C_5  and  C_6
REMARK    5  A    between atoms: C_5  and  N_13
REMARK    6  A    between atoms: C_6  and  C_7
REMARK    7  A    between atoms: C_14  and  C_16
REMARK    8  A    between atoms: C_16  and  C_17
REMARK    9  A    between atoms: C_16  and  C_24
REMARK   10  A    between atoms: C_17  and  C_18
REMARK   11  A    between atoms: C_24  and  N_25
REMARK                            x       y       z     vdW  Elec       q    Type
REMARK                         _______ _______ _______ _____ _____    ______ ____
ROOT
ATOM      1  N   UNL     1       5.057   4.759  17.863  0.00  0.00    +0.000 N 
ATOM      2  C   UNL     1       3.837   4.139  17.896  0.00  0.00    +0.000 C 
ATOM      3  O   UNL     1       3.499   3.342  17.026  0.00  0.00    +0.000 OA
ATOM      4  H   UNL     1       5.299   5.462  18.546  0.00  0.00    +0.000 HD
ENDROOT
BRANCH   1   5
ATOM      5  C   UNL     1       6.001   4.537  16.759  0.00  0.00    +0.000 C 
BRANCH   5   6
ATOM      6  C   UNL     1       7.435   4.878  17.188  0.00  0.00    +0.000 C 
ATOM      7  O   UNL     1       8.231   4.079  17.676  0.00  0.00    +0.000 OA
BRANCH   6   9
ATOM      8  C   UNL     1       7.843   6.952  18.240  0.00  0.00    +0.000 C 
ATOM      9  O   UNL     1       7.668   6.210  17.027  0.00  0.00    +0.000 OA
ENDBRANCH   6   9
ENDBRANCH   5   6
BRANCH   5  10
ATOM     10  C   UNL     1       5.646   5.412  15.546  0.00  0.00    +0.000 C 
BRANCH  10  11
ATOM     11  C   UNL     1       6.079   4.804  14.231  0.00  0.00    +0.000 A 
ATOM     12  C   UNL     1       5.294   3.824  13.604  0.00  0.00    +0.000 A 
ATOM     13  C   UNL     1       5.704   3.254  12.398  0.00  0.00    +0.000 A 
ATOM     14  C   UNL     1       6.899   3.657  11.805  0.00  0.00    +0.000 A 
ATOM     15  C   UNL     1       7.684   4.631  12.417  0.00  0.00    +0.000 A 
ATOM     16  C   UNL     1       7.276   5.204  13.622  0.00  0.00    +0.000 A 
ENDBRANCH  10  11
ENDBRANCH   5  10
ENDBRANCH   1   5
BRANCH   2  17
ATOM     17  C   UNL     1       2.998   4.380  19.148  0.00  0.00    +0.000 C 
BRANCH  17  18
ATOM     18  C   UNL     1       3.365   5.660  19.940  0.00  0.00    +0.000 C 
BRANCH  18  19
ATOM     19  C   UNL     1       2.589   6.870  19.464  0.00  0.00    +0.000 A 
ATOM     20  C   UNL     1       2.757   7.351  18.157  0.00  0.00    +0.000 A 
ATOM     21  C   UNL     1       2.173   8.556  17.765  0.00  0.00    +0.000 A 
ATOM     22  C   UNL     1       1.404   9.284  18.671  0.00  0.00    +0.000 A 
ATOM     23  C   UNL     1       1.179   8.784  19.952  0.00  0.00    +0.000 A 
ATOM     24  C   UNL     1       1.760   7.577  20.345  0.00  0.00    +0.000 A 
ENDBRANCH  18  19
ENDBRANCH  17  18
BRANCH  17  25
ATOM     25  C   UNL     1       1.507   4.224  18.804  0.00  0.00    +0.000 C 
BRANCH  25  26
ATOM     26  N   UNL     1       0.850   3.050  19.484  0.00  0.00    +0.000 N 
ATOM     27  O   UNL     1       0.952   2.946  20.713  0.00  0.00    +0.000 OA
ATOM     28  O   UNL     1       0.318   2.213  18.744  0.00  0.00    +0.000 OA
ENDBRANCH  25  26
ENDBRANCH  17  25
ENDBRANCH   2  17
TORSDOF 10
ENDMDL
MODEL 2
REMARK VINA RESULT:      -7.6      2.132      7.305
REMARK  Name = 
REMARK  11 active torsions:
REMARK  status: ('A' for Active; 'I' for Inactive)
REMARK    1  A    between atoms: C_1  and  O_2
REMARK    2  A    between atoms: O_2  and  C_3
REMARK    3  A    between atoms: C_3  and  C_5
REMARK    4  A    between atoms: C_5  and  C_6
REMARK    5  A    between atoms: C_5  and  N_13
REMARK    6  A    between atoms: C_6  and  C_7
REMARK    7  A    between atoms: C_14  and  C_16
REMARK    8  A    between atoms: C_16  and  C_17
REMARK    9  A    between atoms: C_16  and  C_24
REMARK   10  A    between atoms: C_17  and  C_18
REMARK   11  A    between atoms: C_24  and  N_25
REMARK                            x       y       z     vdW  Elec       q    Type
REMARK                         _______ _______ _______ _____ _____    ______ ____
ROOT
ATOM      1  N   UNL     1       4.007   6.681  17.883  0.00  0.00    +0.000 N 
ATOM      2  C   UNL     1       4.441   5.533  17.276  0.00  0.00    +0.000 C 
ATOM      3  O   UNL     1       3.699   4.565  17.131  0.00  0.00    +0.000 OA
ATOM      4  H   UNL     1       4.643   7.446  18.058  0.00  0.00    +0.000 HD
ENDROOT
BRANCH   1   5
ATOM      5  C   UNL     1       2.649   6.793  18.433  0.00  0.00    +0.000 C 
BRANCH   5   6
ATOM      6  C   UNL     1       2.114   8.224  18.286  0.00  0.00    +0.000 C 
ATOM      7  O   UNL     1       2.183   8.897  17.260  0.00  0.00    +0.000 OA
BRANCH   6   9
ATOM      8  C   UNL     1       0.636   9.696  19.391  0.00  0.00    +0.000 C 
ATOM      9  O   UNL     1       1.629   8.668  19.478  0.00  0.00    +0.000 OA
ENDBRANCH   6   9
ENDBRANCH   5   6
BRANCH   5  10
ATOM     10  C   UNL     1       2.628   6.428  19.927  0.00  0.00    +0.000 C 
BRANCH  10  11
ATOM     11  C   UNL     1       2.135   5.022  20.186  0.00  0.00    +0.000 A 
ATOM     12  C   UNL     1       2.485   4.347  21.365  0.00  0.00    +0.000 A 
ATOM     13  C   UNL     1       2.042   3.044  21.593  0.00  0.00    +0.000 A 
ATOM     14  C   UNL     1       1.241   2.403  20.649  0.00  0.00    +0.000 A 
ATOM     15  C   UNL     1       0.884   3.065  19.477  0.00  0.00    +0.000 A 
ATOM     16  C   UNL     1       1.325   4.369  19.247  0.00  0.00    +0.000 A 
ENDBRANCH  10  11
ENDBRANCH   5  10
ENDBRANCH   1   5
BRANCH   2  17
ATOM     17  C   UNL     1       5.836   5.588  16.661  0.00  0.00    +0.000 C 
BRANCH  17  18
ATOM     18  C   UNL     1       5.893   6.176  15.229  0.00  0.00    +0.000 C 
BRANCH  18  19
ATOM     19  C   UNL     1       6.169   5.116  14.184  0.00  0.00    +0.000 A 
ATOM     20  C   UNL     1       7.340   5.167  13.415  0.00  0.00    +0.000 A 
ATOM     21  C   UNL     1       7.522   4.292  12.344  0.00  0.00    +0.000 A 
ATOM     22  C   UNL     1       6.543   3.348  12.041  0.00  0.00    +0.000 A 
ATOM     23  C   UNL     1       5.404   3.247  12.838  0.00  0.00    +0.000 A 
ATOM     24  C   UNL     1       5.222   4.120  13.912  0.00  0.00    +0.000 A 
ENDBRANCH  18  19
ENDBRANCH  17  18
BRANCH  17  25
ATOM     25  C   UNL     1       6.816   6.212  17.669  0.00  0.00    +0.000 C 
BRANCH  25  26
ATOM     26  N   UNL     1       7.355   5.228  18.676  0.00  0.00    +0.000 N 
ATOM     27  O   UNL     1       8.081   4.310  18.274  0.00  0.00    +0.000 OA
ATOM     28  O   UNL     1       6.957   5.360  19.840  0.00  0.00    +0.000 OA
ENDBRANCH  25  26
ENDBRANCH  17  25
ENDBRANCH   2  17
TORSDOF 10
ENDMDL
MODEL 3
REMARK VINA RESULT:      -7.5      0.414      1.016
REMARK  Name = 
REMARK  11 active torsions:
REMARK  status: ('A' for Active; 'I' for Inactive)
REMARK    1  A    between atoms: C_1  and  O_2
REMARK    2  A    between atoms: O_2  and  C_3
REMARK    3  A    between atoms: C_3  and  C_5
REMARK    4  A    between atoms: C_5  and  C_6
REMARK    5  A    between atoms: C_5  and  N_13
REMARK    6  A    between atoms: C_6  and  C_7
REMARK    7  A    between atoms: C_14  and  C_16
REMARK    8  A    between atoms: C_16  and  C_17
REMARK    9  A    between atoms: C_16  and  C_24
REMARK   10  A    between atoms: C_17  and  C_18
REMARK   11  A    between atoms: C_24  and  N_25
REMARK                            x       y       z     vdW  Elec       q    Type
REMARK                         _______ _______ _______ _____ _____    ______ ____
ROOT
ATOM      1  N   UNL     1       5.096   4.690  18.021  0.00  0.00    +0.000 N 
ATOM      2  C   UNL     1       3.810   4.230  17.918  0.00  0.00    +0.000 C 
ATOM      3  O   UNL     1       3.428   3.610  16.930  0.00  0.00    +0.000 OA
ATOM      4  H   UNL     1       5.382   5.256  18.807  0.00  0.00    +0.000 HD
ENDROOT
BRANCH   1   5
ATOM      5  C   UNL     1       6.066   4.507  16.933  0.00  0.00    +0.000 C 
BRANCH   5   6
ATOM      6  C   UNL     1       7.495   4.782  17.421  0.00  0.00    +0.000 C 
ATOM      7  O   UNL     1       8.430   3.989  17.338  0.00  0.00    +0.000 OA
BRANCH   6   9
ATOM      8  C   UNL     1       8.016   5.976  19.389  0.00  0.00    +0.000 C 
ATOM      9  O   UNL     1       7.555   5.996  18.033  0.00  0.00    +0.000 OA
ENDBRANCH   6   9
ENDBRANCH   5   6
BRANCH   5  10
ATOM     10  C   UNL     1       5.770   5.460  15.764  0.00  0.00    +0.000 C 
BRANCH  10  11
ATOM     11  C   UNL     1       6.199   4.905  14.424  0.00  0.00    +0.000 A 
ATOM     12  C   UNL     1       5.423   3.938  13.769  0.00  0.00    +0.000 A 
ATOM     13  C   UNL     1       5.830   3.416  12.540  0.00  0.00    +0.000 A 
ATOM     14  C   UNL     1       7.014   3.857  11.952  0.00  0.00    +0.000 A 
ATOM     15  C   UNL     1       7.791   4.820  12.592  0.00  0.00    +0.000 A 
ATOM     16  C   UNL     1       7.386   5.344  13.820  0.00  0.00    +0.000 A 
ENDBRANCH  10  11
ENDBRANCH   5  10
ENDBRANCH   1   5
BRANCH   2  17
ATOM     17  C   UNL     1       2.938   4.399  19.159  0.00  0.00    +0.000 C 
BRANCH  17  18
ATOM     18  C   UNL     1       3.297   5.618  20.045  0.00  0.00    +0.000 C 
BRANCH  18  19
ATOM     19  C   UNL     1       2.677   6.901  19.533  0.00  0.00    +0.000 A 
ATOM     20  C   UNL     1       1.800   7.636  20.344  0.00  0.00    +0.000 A 
ATOM     21  C   UNL     1       1.100   8.726  19.824  0.00  0.00    +0.000 A 
ATOM     22  C   UNL     1       1.281   9.099  18.494  0.00  0.00    +0.000 A 
ATOM     23  C   UNL     1       2.197   8.414  17.698  0.00  0.00    +0.000 A 
ATOM     24  C   UNL     1       2.901   7.326  18.217  0.00  0.00    +0.000 A 
ENDBRANCH  18  19
ENDBRANCH  17  18
BRANCH  17  25
ATOM     25  C   UNL     1       1.456   4.287  18.763  0.00  0.00    +0.000 C 
BRANCH  25  26
ATOM     26  N   UNL     1       0.774   3.063  19.318  0.00  0.00    +0.000 N 
ATOM     27  O   UNL     1       0.700   2.933  20.546  0.00  0.00    +0.000 OA
ATOM     28  O   UNL     1       0.406   2.218  18.493  0.00  0.00    +0.000 OA
ENDBRANCH  25  26
ENDBRANCH  17  25
ENDBRANCH   2  17
TORSDOF 10
ENDMDL
MODEL 4
REMARK VINA RESULT:      -7.3      1.465      2.198
REMARK  Name = 
REMARK  11 active torsions:
REMARK  status: ('A' for Active; 'I' for Inactive)
REMARK    1  A    between atoms: C_1  and  O_2
REMARK    2  A    between atoms: O_2  and  C_3
REMARK    3  A    between atoms: C_3  and  C_5
REMARK    4  A    between atoms: C_5  and  C_6
REMARK    5  A    between atoms: C_5  and  N_13
REMARK    6  A    between atoms: C_6  and  C_7
REMARK    7  A    between atoms: C_14  and  C_16
REMARK    8  A    between atoms: C_16  and  C_17
REMARK    9  A    between atoms: C_16  and  C_24
REMARK   10  A    between atoms: C_17  and  C_18
REMARK   11  A    between atoms: C_24  and  N_25
REMARK                            x       y       z     vdW  Elec       q    Type
REMARK                         _______ _______ _______ _____ _____    ______ ____
ROOT
ATOM      1  N   UNL     1       5.201   4.420  18.031  0.00  0.00    +0.000 N 
ATOM      2  C   UNL     1       4.039   3.694  18.036  0.00  0.00    +0.000 C 
ATOM      3  O   UNL     1       3.758   2.929  17.118  0.00  0.00    +0.000 OA
ATOM      4  H   UNL     1       5.391   5.097  18.756  0.00  0.00    +0.000 HD
ENDROOT
BRANCH   1   5
ATOM      5  C   UNL     1       6.141   4.356  16.904  0.00  0.00    +0.000 C 
BRANCH   5   6
ATOM      6  C   UNL     1       7.542   4.813  17.333  0.00  0.00    +0.000 C 
ATOM      7  O   UNL     1       8.414   4.074  17.787  0.00  0.00    +0.000 OA
BRANCH   6   9
ATOM      8  C   UNL     1       7.928   6.864  18.436  0.00  0.00    +0.000 C 
ATOM      9  O   UNL     1       7.649   6.165  17.218  0.00  0.00    +0.000 OA
ENDBRANCH   6   9
ENDBRANCH   5   6
BRANCH   5  10
ATOM     10  C   UNL     1       5.680   5.257  15.747  0.00  0.00    +0.000 C 
BRANCH  10  11
ATOM     11  C   UNL     1       6.146   4.768  14.394  0.00  0.00    +0.000 A 
ATOM     12  C   UNL     1       7.326   5.266  13.821  0.00  0.00    +0.000 A 
ATOM     13  C   UNL     1       7.744   4.825  12.565  0.00  0.00    +0.000 A 
ATOM     14  C   UNL     1       6.991   3.880  11.870  0.00  0.00    +0.000 A 
ATOM     15  C   UNL     1       5.820   3.376  12.431  0.00  0.00    +0.000 A 
ATOM     16  C   UNL     1       5.400   3.815  13.687  0.00  0.00    +0.000 A 
ENDBRANCH  10  11
ENDBRANCH   5  10
ENDBRANCH   1   5
BRANCH   2  17
ATOM     17  C   UNL     1       3.204   3.778  19.310  0.00  0.00    +0.000 C 
BRANCH  17  18
ATOM     18  C   UNL     1       1.837   4.488  19.144  0.00  0.00    +0.000 C 
BRANCH  18  19
ATOM     19  C   UNL     1       1.953   5.993  19.269  0.00  0.00    +0.000 A 
ATOM     20  C   UNL     1       1.641   6.630  20.479  0.00  0.00    +0.000 A 
ATOM     21  C   UNL     1       1.589   8.022  20.553  0.00  0.00    +0.000 A 
ATOM     22  C   UNL     1       1.863   8.791  19.424  0.00  0.00    +0.000 A 
ATOM     23  C   UNL     1       2.236   8.169  18.234  0.00  0.00    +0.000 A 
ATOM     24  C   UNL     1       2.292   6.776  18.158  0.00  0.00    +0.000 A 
ENDBRANCH  18  19
ENDBRANCH  17  18
BRANCH  17  25
ATOM     25  C   UNL     1       3.150   2.395  19.980  0.00  0.00    +0.000 C 
BRANCH  25  26
ATOM     26  N   UNL     1       4.502   1.745  20.131  0.00  0.00    +0.000 N 
ATOM     27  O   UNL     1       4.798   0.814  19.372  0.00  0.00    +0.000 OA
ATOM     28  O   UNL     1       5.198   2.140  21.075  0.00  0.00    +0.000 OA
ENDBRANCH  25  26
ENDBRANCH  17  25
ENDBRANCH   2  17
TORSDOF 10
ENDMDL
MODEL 5
REMARK VINA RESULT:      -7.3      1.038      1.532
REMARK  Name = 
REMARK  11 active torsions:
REMARK  status: ('A' for Active; 'I' for Inactive)
REMARK    1  A    between atoms: C_1  and  O_2
REMARK    2  A    between atoms: O_2  and  C_3
REMARK    3  A    between atoms: C_3  and  C_5
REMARK    4  A    between atoms: C_5  and  C_6
REMARK    5  A    between atoms: C_5  and  N_13
REMARK    6  A    between atoms: C_6  and  C_7
REMARK    7  A    between atoms: C_14  and  C_16
REMARK    8  A    between atoms: C_16  and  C_17
REMARK    9  A    between atoms: C_16  and  C_24
REMARK   10  A    between atoms: C_17  and  C_18
REMARK   11  A    between atoms: C_24  and  N_25
REMARK                            x       y       z     vdW  Elec       q    Type
REMARK                         _______ _______ _______ _____ _____    ______ ____
ROOT
ATOM      1  N   UNL     1       4.780   4.591  17.474  0.00  0.00    +0.000 N 
ATOM      2  C   UNL     1       4.695   3.822  18.604  0.00  0.00    +0.000 C 
ATOM      3  O   UNL     1       5.591   3.044  18.918  0.00  0.00    +0.000 OA
ATOM      4  H   UNL     1       4.010   5.179  17.189  0.00  0.00    +0.000 HD
ENDROOT
BRANCH   1   5
ATOM      5  C   UNL     1       5.924   4.486  16.558  0.00  0.00    +0.000 C 
BRANCH   5   6
ATOM      6  C   UNL     1       7.228   4.888  17.262  0.00  0.00    +0.000 C 
ATOM      7  O   UNL     1       8.190   4.143  17.437  0.00  0.00    +0.000 OA
BRANCH   6   9
ATOM      8  C   UNL     1       7.923   6.444  18.895  0.00  0.00    +0.000 C 
ATOM      9  O   UNL     1       7.131   6.160  17.736  0.00  0.00    +0.000 OA
ENDBRANCH   6   9
ENDBRANCH   5   6
BRANCH   5  10
ATOM     10  C   UNL     1       5.740   5.402  15.337  0.00  0.00    +0.000 C 
BRANCH  10  11
ATOM     11  C   UNL     1       6.124   4.736  14.035  0.00  0.00    +0.000 A 
ATOM     12  C   UNL     1       5.307   3.746  13.469  0.00  0.00    +0.000 A 
ATOM     13  C   UNL     1       5.673   3.123  12.275  0.00  0.00    +0.000 A 
ATOM     14  C   UNL     1       6.856   3.484  11.633  0.00  0.00    +0.000 A 
ATOM     15  C   UNL     1       7.673   4.468  12.184  0.00  0.00    +0.000 A 
ATOM     16  C   UNL     1       7.309   5.094  13.377  0.00  0.00    +0.000 A 
ENDBRANCH  10  11
ENDBRANCH   5  10
ENDBRANCH   1   5
BRANCH   2  17
ATOM     17  C   UNL     1       3.505   4.104  19.517  0.00  0.00    +0.000 C 
BRANCH  17  18
ATOM     18  C   UNL     1       2.289   4.759  18.815  0.00  0.00    +0.000 C 
BRANCH  18  19
ATOM     19  C   UNL     1       2.133   6.220  19.185  0.00  0.00    +0.000 A 
ATOM     20  C   UNL     1       1.720   6.584  20.475  0.00  0.00    +0.000 A 
ATOM     21  C   UNL     1       1.418   7.913  20.773  0.00  0.00    +0.000 A 
ATOM     22  C   UNL     1       1.539   8.892  19.789  0.00  0.00    +0.000 A 
ATOM     23  C   UNL     1       2.009   8.550  18.522  0.00  0.00    +0.000 A 
ATOM     24  C   UNL     1       2.316   7.222  18.223  0.00  0.00    +0.000 A 
ENDBRANCH  18  19
ENDBRANCH  17  18
BRANCH  17  25
ATOM     25  C   UNL     1       3.188   2.849  20.347  0.00  0.00    +0.000 C 
BRANCH  25  26
ATOM     26  N   UNL     1       2.002   3.015  21.263  0.00  0.00    +0.000 N 
ATOM     27  O   UNL     1       2.205   3.353  22.436  0.00  0.00    +0.000 OA
ATOM     28  O   UNL     1       0.898   2.715  20.792  0.00  0.00    +0.000 OA
ENDBRANCH  25  26
ENDBRANCH  17  25
ENDBRANCH   2  17
TORSDOF 10
ENDMDL
MODEL 6
REMARK VINA RESULT:      -7.3      0.963      1.413
REMARK  Name = 
REMARK  11 active torsions:
REMARK  status: ('A' for Active; 'I' for Inactive)
REMARK    1  A    between atoms: C_1  and  O_2
REMARK    2  A    between atoms: O_2  and  C_3
REMARK    3  A    between atoms: C_3  and  C_5
REMARK    4  A    between atoms: C_5  and  C_6
REMARK    5  A    between atoms: C_5  and  N_13
REMARK    6  A    between atoms: C_6  and  C_7
REMARK    7  A    between atoms: C_14  and  C_16
REMARK    8  A    between atoms: C_16  and  C_17
REMARK    9  A    between atoms: C_16  and  C_24
REMARK   10  A    between atoms: C_17  and  C_18
REMARK   11  A    between atoms: C_24  and  N_25
REMARK                            x       y       z     vdW  Elec       q    Type
REMARK                         _______ _______ _______ _____ _____    ______ ____
ROOT
ATOM      1  N   UNL     1       5.061   5.487  16.985  0.00  0.00    +0.000 N 
ATOM      2  C   UNL     1       4.200   4.786  17.787  0.00  0.00    +0.000 C 
ATOM      3  O   UNL     1       4.470   3.657  18.184  0.00  0.00    +0.000 OA
ATOM      4  H   UNL     1       4.801   6.388  16.608  0.00  0.00    +0.000 HD
ENDROOT
BRANCH   1   5
ATOM      5  C   UNL     1       6.327   4.903  16.523  0.00  0.00    +0.000 C 
BRANCH   5   6
ATOM      6  C   UNL     1       7.443   5.126  17.554  0.00  0.00    +0.000 C 
ATOM      7  O   UNL     1       7.712   4.356  18.474  0.00  0.00    +0.000 OA
BRANCH   6   9
ATOM      8  C   UNL     1       8.012   7.222  18.479  0.00  0.00    +0.000 C 
ATOM      9  O   UNL     1       8.031   6.336  17.353  0.00  0.00    +0.000 OA
ENDBRANCH   6   9
ENDBRANCH   5   6
BRANCH   5  10
ATOM     10  C   UNL     1       6.775   5.534  15.195  0.00  0.00    +0.000 C 
BRANCH  10  11
ATOM     11  C   UNL     1       6.438   4.682  13.991  0.00  0.00    +0.000 A 
ATOM     12  C   UNL     1       5.200   4.028  13.902  0.00  0.00    +0.000 A 
ATOM     13  C   UNL     1       4.899   3.229  12.798  0.00  0.00    +0.000 A 
ATOM     14  C   UNL     1       5.829   3.079  11.770  0.00  0.00    +0.000 A 
ATOM     15  C   UNL     1       7.060   3.726  11.847  0.00  0.00    +0.000 A 
ATOM     16  C   UNL     1       7.363   4.526  12.950  0.00  0.00    +0.000 A 
ENDBRANCH  10  11
ENDBRANCH   5  10
ENDBRANCH   1   5
BRANCH   2  17
ATOM     17  C   UNL     1       2.971   5.548  18.274  0.00  0.00    +0.000 C 
BRANCH  17  18
ATOM     18  C   UNL     1       3.018   7.078  18.037  0.00  0.00    +0.000 C 
BRANCH  18  19
ATOM     19  C   UNL     1       2.085   7.830  18.963  0.00  0.00    +0.000 A 
ATOM     20  C   UNL     1       1.459   9.009  18.534  0.00  0.00    +0.000 A 
ATOM     21  C   UNL     1       0.732   9.792  19.431  0.00  0.00    +0.000 A 
ATOM     22  C   UNL     1       0.612   9.396  20.762  0.00  0.00    +0.000 A 
ATOM     23  C   UNL     1       1.177   8.194  21.183  0.00  0.00    +0.000 A 
ATOM     24  C   UNL     1       1.902   7.408  20.286  0.00  0.00    +0.000 A 
ENDBRANCH  18  19
ENDBRANCH  17  18
BRANCH  17  25
ATOM     25  C   UNL     1       1.699   4.843  17.772  0.00  0.00    +0.000 C 
BRANCH  25  26
ATOM     26  N   UNL     1       1.236   3.723  18.669  0.00  0.00    +0.000 N 
ATOM     27  O   UNL     1       1.140   2.585  18.192  0.00  0.00    +0.000 OA
ATOM     28  O   UNL     1       0.899   4.042  19.816  0.00  0.00    +0.000 OA
ENDBRANCH  25  26
ENDBRANCH  17  25
ENDBRANCH   2  17
TORSDOF 10
ENDMDL
MODEL 7
REMARK VINA RESULT:      -7.3      2.212      7.395
REMARK  Name = 
REMARK  11 active torsions:
REMARK  status: ('A' for Active; 'I' for Inactive)
REMARK    1  A    between atoms: C_1  and  O_2
REMARK    2  A    between atoms: O_2  and  C_3
REMARK    3  A    between atoms: C_3  and  C_5
REMARK    4  A    between atoms: C_5  and  C_6
REMARK    5  A    between atoms: C_5  and  N_13
REMARK    6  A    between atoms: C_6  and  C_7
REMARK    7  A    between atoms: C_14  and  C_16
REMARK    8  A    between atoms: C_16  and  C_17
REMARK    9  A    between atoms: C_16  and  C_24
REMARK   10  A    between atoms: C_17  and  C_18
REMARK   11  A    between atoms: C_24  and  N_25
REMARK                            x       y       z     vdW  Elec       q    Type
REMARK                         _______ _______ _______ _____ _____    ______ ____
ROOT
ATOM      1  N   UNL     1       4.008   6.471  18.254  0.00  0.00    +0.000 N 
ATOM      2  C   UNL     1       4.421   5.370  17.553  0.00  0.00    +0.000 C 
ATOM      3  O   UNL     1       3.616   4.584  17.062  0.00  0.00    +0.000 OA
ATOM      4  H   UNL     1       4.676   7.075  18.711  0.00  0.00    +0.000 HD
ENDROOT
BRANCH   1   5
ATOM      5  C   UNL     1       2.583   6.738  18.495  0.00  0.00    +0.000 C 
BRANCH   5   6
ATOM      6  C   UNL     1       2.237   8.198  18.172  0.00  0.00    +0.000 C 
ATOM      7  O   UNL     1       2.580   8.792  17.152  0.00  0.00    +0.000 OA
BRANCH   6   9
ATOM      8  C   UNL     1       0.816   9.938  18.897  0.00  0.00    +0.000 C 
ATOM      9  O   UNL     1       1.570   8.763  19.215  0.00  0.00    +0.000 OA
ENDBRANCH   6   9
ENDBRANCH   5   6
BRANCH   5  10
ATOM     10  C   UNL     1       2.213   6.475  19.964  0.00  0.00    +0.000 C 
BRANCH  10  11
ATOM     11  C   UNL     1       1.929   5.017  20.250  0.00  0.00    +0.000 A 
ATOM     12  C   UNL     1       2.422   4.407  21.414  0.00  0.00    +0.000 A 
ATOM     13  C   UNL     1       2.171   3.058  21.667  0.00  0.00    +0.000 A 
ATOM     14  C   UNL     1       1.422   2.305  20.764  0.00  0.00    +0.000 A 
ATOM     15  C   UNL     1       0.924   2.902  19.608  0.00  0.00    +0.000 A 
ATOM     16  C   UNL     1       1.173   4.251  19.353  0.00  0.00    +0.000 A 
ENDBRANCH  10  11
ENDBRANCH   5  10
ENDBRANCH   1   5
BRANCH   2  17
ATOM     17  C   UNL     1       5.921   5.268  17.291  0.00  0.00    +0.000 C 
BRANCH  17  18
ATOM     18  C   UNL     1       6.361   3.994  16.527  0.00  0.00    +0.000 C 
BRANCH  18  19
ATOM     19  C   UNL     1       6.471   4.231  15.035  0.00  0.00    +0.000 A 
ATOM     20  C   UNL     1       5.561   3.630  14.153  0.00  0.00    +0.000 A 
ATOM     21  C   UNL     1       5.753   3.710  12.774  0.00  0.00    +0.000 A 
ATOM     22  C   UNL     1       6.849   4.403  12.262  0.00  0.00    +0.000 A 
ATOM     23  C   UNL     1       7.724   5.056  13.128  0.00  0.00    +0.000 A 
ATOM     24  C   UNL     1       7.532   4.980  14.508  0.00  0.00    +0.000 A 
ENDBRANCH  18  19
ENDBRANCH  17  18
BRANCH  17  25
ATOM     25  C   UNL     1       6.431   6.596  16.707  0.00  0.00    +0.000 C 
BRANCH  25  26
ATOM     26  N   UNL     1       7.466   7.275  17.566  0.00  0.00    +0.000 N 
ATOM     27  O   UNL     1       7.915   6.664  18.544  0.00  0.00    +0.000 OA
ATOM     28  O   UNL     1       7.738   8.447  17.277  0.00  0.00    +0.000 OA
ENDBRANCH  25  26
ENDBRANCH  17  25
ENDBRANCH   2  17
TORSDOF 10
ENDMDL
MODEL 8
REMARK VINA RESULT:      -7.3      2.110      3.518
REMARK  Name = 
REMARK  11 active torsions:
REMARK  status: ('A' for Active; 'I' for Inactive)
REMARK    1  A    between atoms: C_1  and  O_2
REMARK    2  A    between atoms: O_2  and  C_3
REMARK    3  A    between atoms: C_3  and  C_5
REMARK    4  A    between atoms: C_5  and  C_6
REMARK    5  A    between atoms: C_5  and  N_13
REMARK    6  A    between atoms: C_6  and  C_7
REMARK    7  A    between atoms: C_14  and  C_16
REMARK    8  A    between atoms: C_16  and  C_17
REMARK    9  A    between atoms: C_16  and  C_24
REMARK   10  A    between atoms: C_17  and  C_18
REMARK   11  A    between atoms: C_24  and  N_25
REMARK                            x       y       z     vdW  Elec       q    Type
REMARK                         _______ _______ _______ _____ _____    ______ ____
ROOT
ATOM      1  N   UNL     1       5.205   5.438  17.189  0.00  0.00    +0.000 N 
ATOM      2  C   UNL     1       3.994   4.820  17.018  0.00  0.00    +0.000 C 
ATOM      3  O   UNL     1       3.899   3.751  16.422  0.00  0.00    +0.000 OA
ATOM      4  H   UNL     1       5.264   6.349  17.621  0.00  0.00    +0.000 HD
ENDROOT
BRANCH   1   5
ATOM      5  C   UNL     1       6.440   4.876  16.626  0.00  0.00    +0.000 C 
BRANCH   5   6
ATOM      6  C   UNL     1       7.566   4.873  17.669  0.00  0.00    +0.000 C 
ATOM      7  O   UNL     1       8.409   3.987  17.789  0.00  0.00    +0.000 OA
BRANCH   6   9
ATOM      8  C   UNL     1       7.722   5.696  19.876  0.00  0.00    +0.000 C 
ATOM      9  O   UNL     1       7.443   5.948  18.494  0.00  0.00    +0.000 OA
ENDBRANCH   6   9
ENDBRANCH   5   6
BRANCH   5  10
ATOM     10  C   UNL     1       6.916   5.693  15.414  0.00  0.00    +0.000 C 
BRANCH  10  11
ATOM     11  C   UNL     1       6.824   4.930  14.112  0.00  0.00    +0.000 A 
ATOM     12  C   UNL     1       7.693   5.222  13.049  0.00  0.00    +0.000 A 
ATOM     13  C   UNL     1       7.595   4.526  11.844  0.00  0.00    +0.000 A 
ATOM     14  C   UNL     1       6.633   3.529  11.688  0.00  0.00    +0.000 A 
ATOM     15  C   UNL     1       5.768   3.229  12.738  0.00  0.00    +0.000 A 
ATOM     16  C   UNL     1       5.864   3.922  13.945  0.00  0.00    +0.000 A 
ENDBRANCH  10  11
ENDBRANCH   5  10
ENDBRANCH   1   5
BRANCH   2  17
ATOM     17  C   UNL     1       2.810   5.458  17.738  0.00  0.00    +0.000 C 
BRANCH  17  18
ATOM     18  C   UNL     1       1.694   4.468  18.157  0.00  0.00    +0.000 C 
BRANCH  18  19
ATOM     19  C   UNL     1       1.992   3.795  19.480  0.00  0.00    +0.000 A 
ATOM     20  C   UNL     1       3.194   3.097  19.665  0.00  0.00    +0.000 A 
ATOM     21  C   UNL     1       3.403   2.340  20.819  0.00  0.00    +0.000 A 
ATOM     22  C   UNL     1       2.419   2.286  21.804  0.00  0.00    +0.000 A 
ATOM     23  C   UNL     1       1.248   3.027  21.658  0.00  0.00    +0.000 A 
ATOM     24  C   UNL     1       1.039   3.787  20.506  0.00  0.00    +0.000 A 
ENDBRANCH  18  19
ENDBRANCH  17  18
BRANCH  17  25
ATOM     25  C   UNL     1       3.326   6.379  18.856  0.00  0.00    +0.000 C 
BRANCH  25  26
ATOM     26  N   UNL     1       2.349   7.458  19.249  0.00  0.00    +0.000 N 
ATOM     27  O   UNL     1       2.179   8.410  18.478  0.00  0.00    +0.000 OA
ATOM     28  O   UNL     1       1.840   7.355  20.372  0.00  0.00    +0.000 OA
ENDBRANCH  25  26
ENDBRANCH  17  25
ENDBRANCH   2  17
TORSDOF 10
ENDMDL
MODEL 9
REMARK VINA RESULT:      -7.2      4.000      7.995
REMARK  Name = 
REMARK  11 active torsions:
REMARK  status: ('A' for Active; 'I' for Inactive)
REMARK    1  A    between atoms: C_1  and  O_2
REMARK    2  A    between atoms: O_2  and  C_3
REMARK    3  A    between atoms: C_3  and  C_5
REMARK    4  A    between atoms: C_5  and  C_6
REMARK    5  A    between atoms: C_5  and  N_13
REMARK    6  A    between atoms: C_6  and  C_7
REMARK    7  A    between atoms: C_14  and  C_16
REMARK    8  A    between atoms: C_16  and  C_17
REMARK    9  A    between atoms: C_16  and  C_24
REMARK   10  A    between atoms: C_17  and  C_18
REMARK   11  A    between atoms: C_24  and  N_25
REMARK                            x       y       z     vdW  Elec       q    Type
REMARK                         _______ _______ _______ _____ _____    ______ ____
ROOT
ATOM      1  N   UNL     1       1.361   8.858  19.365  0.00  0.00    +0.000 N 
ATOM      2  C   UNL     1       2.014   8.442  18.235  0.00  0.00    +0.000 C 
ATOM      3  O   UNL     1       2.059   9.140  17.227  0.00  0.00    +0.000 OA
ATOM      4  H   UNL     1       1.273   8.250  20.166  0.00  0.00    +0.000 HD
ENDROOT
BRANCH   1   5
ATOM      5  C   UNL     1       0.642  10.139  19.407  0.00  0.00    +0.000 C 
BRANCH   5   6
ATOM      6  C   UNL     1       1.181  11.033  20.533  0.00  0.00    +0.000 C 
ATOM      7  O   UNL     1       1.211  10.722  21.722  0.00  0.00    +0.000 OA
BRANCH   6   9
ATOM      8  C   UNL     1       1.774  12.286  18.623  0.00  0.00    +0.000 C 
ATOM      9  O   UNL     1       1.540  12.247  20.035  0.00  0.00    +0.000 OA
ENDBRANCH   6   9
ENDBRANCH   5   6
BRANCH   5  10
ATOM     10  C   UNL     1      -0.860   9.920  19.651  0.00  0.00    +0.000 C 
BRANCH  10  11
ATOM     11  C   UNL     1      -1.714  10.299  18.461  0.00  0.00    +0.000 A 
ATOM     12  C   UNL     1      -1.509   9.694  17.212  0.00  0.00    +0.000 A 
ATOM     13  C   UNL     1      -2.288  10.058  16.113  0.00  0.00    +0.000 A 
ATOM     14  C   UNL     1      -3.282  11.026  16.251  0.00  0.00    +0.000 A 
ATOM     15  C   UNL     1      -3.496  11.630  17.487  0.00  0.00    +0.000 A 
ATOM     16  C   UNL     1      -2.719  11.267  18.588  0.00  0.00    +0.000 A 
ENDBRANCH  10  11
ENDBRANCH   5  10
ENDBRANCH   1   5
BRANCH   2  17
ATOM     17  C   UNL     1       2.803   7.141  18.360  0.00  0.00    +0.000 C 
BRANCH  17  18
ATOM     18  C   UNL     1       2.022   5.866  17.954  0.00  0.00    +0.000 C 
BRANCH  18  19
ATOM     19  C   UNL     1       1.813   4.925  19.122  0.00  0.00    +0.000 A 
ATOM     20  C   UNL     1       2.320   5.246  20.390  0.00  0.00    +0.000 A 
ATOM     21  C   UNL     1       2.274   4.314  21.427  0.00  0.00    +0.000 A 
ATOM     22  C   UNL     1       1.708   3.059  21.212  0.00  0.00    +0.000 A 
ATOM     23  C   UNL     1       1.145   2.754  19.974  0.00  0.00    +0.000 A 
ATOM     24  C   UNL     1       1.187   3.686  18.936  0.00  0.00    +0.000 A 
ENDBRANCH  18  19
ENDBRANCH  17  18
BRANCH  17  25
ATOM     25  C   UNL     1       4.179   7.310  17.695  0.00  0.00    +0.000 C 
BRANCH  25  26
ATOM     26  N   UNL     1       4.969   6.030  17.609  0.00  0.00    +0.000 N 
ATOM     27  O   UNL     1       5.473   5.576  18.644  0.00  0.00    +0.000 OA
ATOM     28  O   UNL     1       5.133   5.560  16.477  0.00  0.00    +0.000 OA
ENDBRANCH  25  26
ENDBRANCH  17  25
ENDBRANCH   2  17
TORSDOF 10
ENDMDL
