MODEL 1
REMARK VINA RESULT:      -6.8      0.000      0.000
REMARK  Name = 
REMARK  9 active torsions:
REMARK  status: ('A' for Active; 'I' for Inactive)
REMARK    1  A    between atoms: C_1  and  O_2
REMARK    2  A    between atoms: O_2  and  C_3
REMARK    3  A    between atoms: C_3  and  C_4
REMARK    4  A    between atoms: C_4  and  C_5
REMARK    5  A    between atoms: C_7  and  C_8
REMARK    6  A    between atoms: C_12  and  O_13
REMARK    7  A    between atoms: O_13  and  C_14
REMARK    8  A    between atoms: C_14  and  C_15
REMARK    9  A    between atoms: N_19  and  C_20
REMARK                            x       y       z     vdW  Elec       q    Type
REMARK                         _______ _______ _______ _____ _____    ______ ____
ROOT
ATOM      1  C   UNL     1       6.260   4.237  13.635  0.00  0.00    +0.000 A 
ATOM      2  C   UNL     1       7.424   4.882  14.058  0.00  0.00    +0.000 A 
ATOM      3  N   UNL     1       7.613   5.434  15.277  0.00  0.00    +0.000 NA
ATOM      4  C   UNL     1       6.578   5.329  16.135  0.00  0.00    +0.000 A 
ATOM      5  C   UNL     1       5.370   4.698  15.856  0.00  0.00    +0.000 A 
ATOM      6  C   UNL     1       5.220   4.167  14.574  0.00  0.00    +0.000 A 
ENDROOT
BRANCH   1   9
ATOM      7  C   UNL     1       4.816   3.223  11.678  0.00  0.00    +0.000 C 
ATOM      8  C   UNL     1       5.896   2.230  12.009  0.00  0.00    +0.000 C 
ATOM      9  C   UNL     1       6.141   3.711  12.229  0.00  0.00    +0.000 C 
BRANCH   7  10
ATOM     10  C   UNL     1       4.470   3.464  10.232  0.00  0.00    +0.000 C 
BRANCH  10  11
ATOM     11  C   UNL     1       3.017   3.892  10.050  0.00  0.00    +0.000 C 
BRANCH  11  13
ATOM     12  C   UNL     1       1.923   5.387   8.596  0.00  0.00    +0.000 C 
ATOM     13  O   UNL     1       2.800   4.275   8.694  0.00  0.00    +0.000 OA
ENDBRANCH  11  13
ENDBRANCH  10  11
ENDBRANCH   7  10
ENDBRANCH   1   9
BRANCH   5  14
ATOM     14  O   UNL     1       4.320   4.525  16.721  0.00  0.00    +0.000 OA
BRANCH  14  15
ATOM     15  C   UNL     1       4.551   3.668  17.842  0.00  0.00    +0.000 C 
BRANCH  15  16
ATOM     16  C   UNL     1       3.280   2.930  18.325  0.00  0.00    +0.000 C 
ATOM     17  C   UNL     1       2.049   3.785  17.989  0.00  0.00    +0.000 C 
ATOM     18  C   UNL     1       1.790   4.636  19.234  0.00  0.00    +0.000 C 
ATOM     19  C   UNL     1       2.738   4.100  20.297  0.00  0.00    +0.000 C 
ATOM     20  N   UNL     1       3.101   2.782  19.782  0.00  0.00    +0.000 NA
ATOM     21  C   UNL     1       4.221   2.186  20.485  0.00  0.00    +0.000 C 
ENDBRANCH  15  16
ENDBRANCH  14  15
ENDBRANCH   5  14
TORSDOF 7
ENDMDL
MODEL 2
REMARK VINA RESULT:      -6.7      1.852      2.837
REMARK  Name = 
REMARK  9 active torsions:
REMARK  status: ('A' for Active; 'I' for Inactive)
REMARK    1  A    between atoms: C_1  and  O_2
REMARK    2  A    between atoms: O_2  and  C_3
REMARK    3  A    between atoms: C_3  and  C_4
REMARK    4  A    between atoms: C_4  and  C_5
REMARK    5  A    between atoms: C_7  and  C_8
REMARK    6  A    between atoms: C_12  and  O_13
REMARK    7  A    between atoms: O_13  and  C_14
REMARK    8  A    between atoms: C_14  and  C_15
REMARK    9  A    between atoms: N_19  and  C_20
REMARK                            x       y       z     vdW  Elec       q    Type
REMARK                         _______ _______ _______ _____ _____    ______ ____
ROOT
ATOM      1  C   UNL     1       6.300   5.346  16.365  0.00  0.00    +0.000 A 
ATOM      2  C   UNL     1       7.286   6.184  16.890  0.00  0.00    +0.000 A 
ATOM      3  N   UNL     1       7.554   6.348  18.205  0.00  0.00    +0.000 NA
ATOM      4  C   UNL     1       6.798   5.621  19.052  0.00  0.00    +0.000 A 
ATOM      5  C   UNL     1       5.798   4.733  18.669  0.00  0.00    +0.000 A 
ATOM      6  C   UNL     1       5.547   4.622  17.301  0.00  0.00    +0.000 A 
ENDROOT
BRANCH   1   9
ATOM      7  C   UNL     1       6.137   3.984  14.115  0.00  0.00    +0.000 C 
ATOM      8  C   UNL     1       7.212   5.022  13.942  0.00  0.00    +0.000 C 
ATOM      9  C   UNL     1       6.050   5.289  14.881  0.00  0.00    +0.000 C 
BRANCH   7  10
ATOM     10  C   UNL     1       5.193   3.720  12.971  0.00  0.00    +0.000 C 
BRANCH  10  11
ATOM     11  C   UNL     1       5.714   2.639  12.030  0.00  0.00    +0.000 C 
BRANCH  11  13
ATOM     12  C   UNL     1       3.629   3.250  11.124  0.00  0.00    +0.000 C 
ATOM     13  O   UNL     1       4.801   2.470  10.949  0.00  0.00    +0.000 OA
ENDBRANCH  11  13
ENDBRANCH  10  11
ENDBRANCH   7  10
ENDBRANCH   1   9
BRANCH   5  14
ATOM     14  O   UNL     1       5.050   3.938  19.499  0.00  0.00    +0.000 OA
BRANCH  14  15
ATOM     15  C   UNL     1       3.659   3.822  19.189  0.00  0.00    +0.000 C 
BRANCH  15  16
ATOM     16  C   UNL     1       3.025   2.502  19.689  0.00  0.00    +0.000 C 
ATOM     17  C   UNL     1       2.275   1.837  18.525  0.00  0.00    +0.000 C 
ATOM     18  C   UNL     1       0.834   2.340  18.626  0.00  0.00    +0.000 C 
ATOM     19  C   UNL     1       0.760   3.098  19.944  0.00  0.00    +0.000 C 
ATOM     20  N   UNL     1       1.929   2.612  20.671  0.00  0.00    +0.000 NA
ATOM     21  C   UNL     1       2.233   3.401  21.850  0.00  0.00    +0.000 C 
ENDBRANCH  15  16
ENDBRANCH  14  15
ENDBRANCH   5  14
TORSDOF 7
ENDMDL
MODEL 3
REMARK VINA RESULT:      -6.6      1.114      1.475
REMARK  Name = 
REMARK  9 active torsions:
REMARK  status: ('A' for Active; 'I' for Inactive)
REMARK    1  A    between atoms: C_1  and  O_2
REMARK    2  A    between atoms: O_2  and  C_3
REMARK    3  A    between atoms: C_3  and  C_4
REMARK    4  A    between atoms: C_4  and  C_5
REMARK    5  A    between atoms: C_7  and  C_8
REMARK    6  A    between atoms: C_12  and  O_13
REMARK    7  A    between atoms: O_13  and  C_14
REMARK    8  A    between atoms: C_14  and  C_15
REMARK    9  A    between atoms: N_19  and  C_20
REMARK                            x       y       z     vdW  Elec       q    Type
REMARK                         _______ _______ _______ _____ _____    ______ ____
ROOT
ATOM      1  C   UNL     1       6.102   4.329  14.396  0.00  0.00    +0.000 A 
ATOM      2  C   UNL     1       7.270   4.803  14.997  0.00  0.00    +0.000 A 
ATOM      3  N   UNL     1       7.462   4.947  16.327  0.00  0.00    +0.000 NA
ATOM      4  C   UNL     1       6.427   4.586  17.111  0.00  0.00    +0.000 A 
ATOM      5  C   UNL     1       5.215   4.080  16.653  0.00  0.00    +0.000 A 
ATOM      6  C   UNL     1       5.062   3.975  15.269  0.00  0.00    +0.000 A 
ENDROOT
BRANCH   1   9
ATOM      7  C   UNL     1       4.947   3.383  12.224  0.00  0.00    +0.000 C 
ATOM      8  C   UNL     1       6.403   3.006  12.168  0.00  0.00    +0.000 C 
ATOM      9  C   UNL     1       5.979   4.267  12.896  0.00  0.00    +0.000 C 
BRANCH   7  10
ATOM     10  C   UNL     1       4.269   3.847  10.962  0.00  0.00    +0.000 C 
BRANCH  10  11
ATOM     11  C   UNL     1       3.335   2.786  10.386  0.00  0.00    +0.000 C 
BRANCH  11  13
ATOM     12  C   UNL     1       2.822   4.736   9.171  0.00  0.00    +0.000 C 
ATOM     13  O   UNL     1       2.604   3.339   9.295  0.00  0.00    +0.000 OA
ENDBRANCH  11  13
ENDBRANCH  10  11
ENDBRANCH   7  10
ENDBRANCH   1   9
BRANCH   5  14
ATOM     14  O   UNL     1       4.165   3.651  17.423  0.00  0.00    +0.000 OA
BRANCH  14  15
ATOM     15  C   UNL     1       4.150   4.090  18.784  0.00  0.00    +0.000 C 
BRANCH  15  16
ATOM     16  C   UNL     1       3.439   3.103  19.740  0.00  0.00    +0.000 C 
ATOM     17  C   UNL     1       2.924   1.905  18.928  0.00  0.00    +0.000 C 
ATOM     18  C   UNL     1       1.487   2.260  18.541  0.00  0.00    +0.000 C 
ATOM     19  C   UNL     1       1.164   3.535  19.307  0.00  0.00    +0.000 C 
ATOM     20  N   UNL     1       2.178   3.556  20.358  0.00  0.00    +0.000 NA
ATOM     21  C   UNL     1       2.252   4.828  21.051  0.00  0.00    +0.000 C 
ENDBRANCH  15  16
ENDBRANCH  14  15
ENDBRANCH   5  14
TORSDOF 7
ENDMDL
MODEL 4
REMARK VINA RESULT:      -6.6      1.420      1.980
REMARK  Name = 
REMARK  9 active torsions:
REMARK  status: ('A' for Active; 'I' for Inactive)
REMARK    1  A    between atoms: C_1  and  O_2
REMARK    2  A    between atoms: O_2  and  C_3
REMARK    3  A    between atoms: C_3  and  C_4
REMARK    4  A    between atoms: C_4  and  C_5
REMARK    5  A    between atoms: C_7  and  C_8
REMARK    6  A    between atoms: C_12  and  O_13
REMARK    7  A    between atoms: O_13  and  C_14
REMARK    8  A    between atoms: C_14  and  C_15
REMARK    9  A    between atoms: N_19  and  C_20
REMARK                            x       y       z     vdW  Elec       q    Type
REMARK                         _______ _______ _______ _____ _____    ______ ____
ROOT
ATOM      1  C   UNL     1       6.028   4.741  15.106  0.00  0.00    +0.000 A 
ATOM      2  C   UNL     1       7.252   4.413  15.695  0.00  0.00    +0.000 A 
ATOM      3  N   UNL     1       7.558   4.572  17.002  0.00  0.00    +0.000 NA
ATOM      4  C   UNL     1       6.579   5.081  17.776  0.00  0.00    +0.000 A 
ATOM      5  C   UNL     1       5.309   5.433  17.330  0.00  0.00    +0.000 A 
ATOM      6  C   UNL     1       5.055   5.271  15.967  0.00  0.00    +0.000 A 
ENDROOT
BRANCH   1   9
ATOM      7  C   UNL     1       6.224   3.304  12.907  0.00  0.00    +0.000 C 
ATOM      8  C   UNL     1       7.024   4.561  12.702  0.00  0.00    +0.000 C 
ATOM      9  C   UNL     1       5.820   4.577  13.624  0.00  0.00    +0.000 C 
BRANCH   7  10
ATOM     10  C   UNL     1       5.385   2.785  11.769  0.00  0.00    +0.000 C 
BRANCH  10  11
ATOM     11  C   UNL     1       4.142   3.638  11.532  0.00  0.00    +0.000 C 
BRANCH  11  13
ATOM     12  C   UNL     1       2.887   4.126   9.600  0.00  0.00    +0.000 C 
ATOM     13  O   UNL     1       3.399   3.103  10.440  0.00  0.00    +0.000 OA
ENDBRANCH  11  13
ENDBRANCH  10  11
ENDBRANCH   7  10
ENDBRANCH   1   9
BRANCH   5  14
ATOM     14  O   UNL     1       4.274   5.900  18.098  0.00  0.00    +0.000 OA
BRANCH  14  15
ATOM     15  C   UNL     1       3.105   5.078  18.162  0.00  0.00    +0.000 C 
BRANCH  15  16
ATOM     16  C   UNL     1       3.275   3.834  19.066  0.00  0.00    +0.000 C 
ATOM     17  C   UNL     1       3.014   2.572  18.231  0.00  0.00    +0.000 C 
ATOM     18  C   UNL     1       1.527   2.260  18.415  0.00  0.00    +0.000 C 
ATOM     19  C   UNL     1       1.042   3.217  19.495  0.00  0.00    +0.000 C 
ATOM     20  N   UNL     1       2.281   3.643  20.140  0.00  0.00    +0.000 NA
ATOM     21  C   UNL     1       2.100   4.779  21.024  0.00  0.00    +0.000 C 
ENDBRANCH  15  16
ENDBRANCH  14  15
ENDBRANCH   5  14
TORSDOF 7
ENDMDL
MODEL 5
REMARK VINA RESULT:      -6.6      1.047      1.294
REMARK  Name = 
REMARK  9 active torsions:
REMARK  status: ('A' for Active; 'I' for Inactive)
REMARK    1  A    between atoms: C_1  and  O_2
REMARK    2  A    between atoms: O_2  and  C_3
REMARK    3  A    between atoms: C_3  and  C_4
REMARK    4  A    between atoms: C_4  and  C_5
REMARK    5  A    between atoms: C_7  and  C_8
REMARK    6  A    between atoms: C_12  and  O_13
REMARK    7  A    between atoms: O_13  and  C_14
REMARK    8  A    between atoms: C_14  and  C_15
REMARK    9  A    between atoms: N_19  and  C_20
REMARK                            x       y       z     vdW  Elec       q    Type
REMARK                         _______ _______ _______ _____ _____    ______ ____
ROOT
ATOM      1  C   UNL     1       5.834   4.415  13.931  0.00  0.00    +0.000 A 
ATOM      2  C   UNL     1       7.120   4.904  14.174  0.00  0.00    +0.000 A 
ATOM      3  N   UNL     1       7.601   5.270  15.383  0.00  0.00    +0.000 NA
ATOM      4  C   UNL     1       6.750   5.132  16.419  0.00  0.00    +0.000 A 
ATOM      5  C   UNL     1       5.452   4.641  16.327  0.00  0.00    +0.000 A 
ATOM      6  C   UNL     1       4.998   4.300  15.052  0.00  0.00    +0.000 A 
ENDROOT
BRANCH   1   9
ATOM      7  C   UNL     1       4.536   2.875  12.232  0.00  0.00    +0.000 C 
ATOM      8  C   UNL     1       5.981   2.895  11.816  0.00  0.00    +0.000 C 
ATOM      9  C   UNL     1       5.386   4.094  12.529  0.00  0.00    +0.000 C 
BRANCH   7  10
ATOM     10  C   UNL     1       3.474   2.942  11.166  0.00  0.00    +0.000 C 
BRANCH  10  11
ATOM     11  C   UNL     1       3.623   4.174  10.279  0.00  0.00    +0.000 C 
BRANCH  11  13
ATOM     12  C   UNL     1       2.079   5.152   8.796  0.00  0.00    +0.000 C 
ATOM     13  O   UNL     1       2.855   4.001   9.092  0.00  0.00    +0.000 OA
ENDBRANCH  11  13
ENDBRANCH  10  11
ENDBRANCH   7  10
ENDBRANCH   1   9
BRANCH   5  14
ATOM     14  O   UNL     1       4.581   4.435  17.366  0.00  0.00    +0.000 OA
BRANCH  14  15
ATOM     15  C   UNL     1       3.393   3.695  17.067  0.00  0.00    +0.000 C 
BRANCH  15  16
ATOM     16  C   UNL     1       2.107   4.341  17.636  0.00  0.00    +0.000 C 
ATOM     17  C   UNL     1       2.465   5.697  18.261  0.00  0.00    +0.000 C 
ATOM     18  C   UNL     1       2.740   5.408  19.738  0.00  0.00    +0.000 C 
ATOM     19  C   UNL     1       2.335   3.956  19.950  0.00  0.00    +0.000 C 
ATOM     20  N   UNL     1       1.481   3.679  18.797  0.00  0.00    +0.000 NA
ATOM     21  C   UNL     1       1.198   2.267  18.626  0.00  0.00    +0.000 C 
ENDBRANCH  15  16
ENDBRANCH  14  15
ENDBRANCH   5  14
TORSDOF 7
ENDMDL
MODEL 6
REMARK VINA RESULT:      -6.6      2.332      3.360
REMARK  Name = 
REMARK  9 active torsions:
REMARK  status: ('A' for Active; 'I' for Inactive)
REMARK    1  A    between atoms: C_1  and  O_2
REMARK    2  A    between atoms: O_2  and  C_3
REMARK    3  A    between atoms: C_3  and  C_4
REMARK    4  A    between atoms: C_4  and  C_5
REMARK    5  A    between atoms: C_7  and  C_8
REMARK    6  A    between atoms: C_12  and  O_13
REMARK    7  A    between atoms: O_13  and  C_14
REMARK    8  A    between atoms: C_14  and  C_15
REMARK    9  A    between atoms: N_19  and  C_20
REMARK                            x       y       z     vdW  Elec       q    Type
REMARK                         _______ _______ _______ _____ _____    ______ ____
ROOT
ATOM      1  C   UNL     1       6.378   5.347  16.390  0.00  0.00    +0.000 A 
ATOM      2  C   UNL     1       7.218   6.294  16.980  0.00  0.00    +0.000 A 
ATOM      3  N   UNL     1       7.445   6.419  18.307  0.00  0.00    +0.000 NA
ATOM      4  C   UNL     1       6.801   5.537  19.097  0.00  0.00    +0.000 A 
ATOM      5  C   UNL     1       5.953   4.530  18.647  0.00  0.00    +0.000 A 
ATOM      6  C   UNL     1       5.736   4.463  17.270  0.00  0.00    +0.000 A 
ENDROOT
BRANCH   1   9
ATOM      7  C   UNL     1       6.049   4.043  14.124  0.00  0.00    +0.000 C 
ATOM      8  C   UNL     1       7.278   4.899  13.983  0.00  0.00    +0.000 C 
ATOM      9  C   UNL     1       6.154   5.340  14.901  0.00  0.00    +0.000 C 
BRANCH   7  10
ATOM     10  C   UNL     1       5.099   3.939  12.960  0.00  0.00    +0.000 C 
BRANCH  10  11
ATOM     11  C   UNL     1       5.456   2.788  12.025  0.00  0.00    +0.000 C 
BRANCH  11  13
ATOM     12  C   UNL     1       7.267   1.652  11.037  0.00  0.00    +0.000 C 
ATOM     13  O   UNL     1       6.860   2.790  11.782  0.00  0.00    +0.000 OA
ENDBRANCH  11  13
ENDBRANCH  10  11
ENDBRANCH   7  10
ENDBRANCH   1   9
BRANCH   5  14
ATOM     14  O   UNL     1       5.328   3.583  19.416  0.00  0.00    +0.000 OA
BRANCH  14  15
ATOM     15  C   UNL     1       4.077   3.089  18.931  0.00  0.00    +0.000 C 
BRANCH  15  16
ATOM     16  C   UNL     1       2.864   3.553  19.771  0.00  0.00    +0.000 C 
ATOM     17  C   UNL     1       1.923   2.359  19.989  0.00  0.00    +0.000 C 
ATOM     18  C   UNL     1       0.908   2.424  18.846  0.00  0.00    +0.000 C 
ATOM     19  C   UNL     1       1.172   3.748  18.143  0.00  0.00    +0.000 C 
ATOM     20  N   UNL     1       1.931   4.504  19.136  0.00  0.00    +0.000 NA
ATOM     21  C   UNL     1       2.544   5.701  18.592  0.00  0.00    +0.000 C 
ENDBRANCH  15  16
ENDBRANCH  14  15
ENDBRANCH   5  14
TORSDOF 7
ENDMDL
MODEL 7
REMARK VINA RESULT:      -6.5      2.535      3.420
REMARK  Name = 
REMARK  9 active torsions:
REMARK  status: ('A' for Active; 'I' for Inactive)
REMARK    1  A    between atoms: C_1  and  O_2
REMARK    2  A    between atoms: O_2  and  C_3
REMARK    3  A    between atoms: C_3  and  C_4
REMARK    4  A    between atoms: C_4  and  C_5
REMARK    5  A    between atoms: C_7  and  C_8
REMARK    6  A    between atoms: C_12  and  O_13
REMARK    7  A    between atoms: O_13  and  C_14
REMARK    8  A    between atoms: C_14  and  C_15
REMARK    9  A    between atoms: N_19  and  C_20
REMARK                            x       y       z     vdW  Elec       q    Type
REMARK                         _______ _______ _______ _____ _____    ______ ____
ROOT
ATOM      1  C   UNL     1       6.465   4.386  16.561  0.00  0.00    +0.000 A 
ATOM      2  C   UNL     1       7.671   4.470  17.260  0.00  0.00    +0.000 A 
ATOM      3  N   UNL     1       7.819   4.970  18.507  0.00  0.00    +0.000 NA
ATOM      4  C   UNL     1       6.690   5.406  19.101  0.00  0.00    +0.000 A 
ATOM      5  C   UNL     1       5.421   5.364  18.534  0.00  0.00    +0.000 A 
ATOM      6  C   UNL     1       5.330   4.861  17.235  0.00  0.00    +0.000 A 
ENDROOT
BRANCH   1   9
ATOM      7  C   UNL     1       6.600   4.789  13.961  0.00  0.00    +0.000 C 
ATOM      8  C   UNL     1       5.248   4.203  14.261  0.00  0.00    +0.000 C 
ATOM      9  C   UNL     1       6.429   3.864  15.149  0.00  0.00    +0.000 C 
BRANCH   7  10
ATOM     10  C   UNL     1       7.342   4.313  12.739  0.00  0.00    +0.000 C 
BRANCH  10  11
ATOM     11  C   UNL     1       6.512   3.344  11.901  0.00  0.00    +0.000 C 
BRANCH  11  13
ATOM     12  C   UNL     1       6.623   1.171  11.003  0.00  0.00    +0.000 C 
ATOM     13  O   UNL     1       7.359   2.327  11.374  0.00  0.00    +0.000 OA
ENDBRANCH  11  13
ENDBRANCH  10  11
ENDBRANCH   7  10
ENDBRANCH   1   9
BRANCH   5  14
ATOM     14  O   UNL     1       4.247   5.747  19.130  0.00  0.00    +0.000 OA
BRANCH  14  15
ATOM     15  C   UNL     1       3.526   4.730  19.831  0.00  0.00    +0.000 C 
BRANCH  15  16
ATOM     16  C   UNL     1       2.053   4.595  19.376  0.00  0.00    +0.000 C 
ATOM     17  C   UNL     1       1.161   4.434  20.616  0.00  0.00    +0.000 C 
ATOM     18  C   UNL     1       1.028   2.925  20.831  0.00  0.00    +0.000 C 
ATOM     19  C   UNL     1       1.666   2.282  19.608  0.00  0.00    +0.000 C 
ATOM     20  N   UNL     1       1.688   3.372  18.635  0.00  0.00    +0.000 NA
ATOM     21  C   UNL     1       2.510   3.083  17.476  0.00  0.00    +0.000 C 
ENDBRANCH  15  16
ENDBRANCH  14  15
ENDBRANCH   5  14
TORSDOF 7
ENDMDL
MODEL 8
REMARK VINA RESULT:      -6.5      1.100      1.457
REMARK  Name = 
REMARK  9 active torsions:
REMARK  status: ('A' for Active; 'I' for Inactive)
REMARK    1  A    between atoms: C_1  and  O_2
REMARK    2  A    between atoms: O_2  and  C_3
REMARK    3  A    between atoms: C_3  and  C_4
REMARK    4  A    between atoms: C_4  and  C_5
REMARK    5  A    between atoms: C_7  and  C_8
REMARK    6  A    between atoms: C_12  and  O_13
REMARK    7  A    between atoms: O_13  and  C_14
REMARK    8  A    between atoms: C_14  and  C_15
REMARK    9  A    between atoms: N_19  and  C_20
REMARK                            x       y       z     vdW  Elec       q    Type
REMARK                         _______ _______ _______ _____ _____    ______ ____
ROOT
ATOM      1  C   UNL     1       5.953   4.320  14.913  0.00  0.00    +0.000 A 
ATOM      2  C   UNL     1       7.210   4.644  15.429  0.00  0.00    +0.000 A 
ATOM      3  N   UNL     1       7.503   4.791  16.740  0.00  0.00    +0.000 NA
ATOM      4  C   UNL     1       6.480   4.593  17.595  0.00  0.00    +0.000 A 
ATOM      5  C   UNL     1       5.184   4.246  17.225  0.00  0.00    +0.000 A 
ATOM      6  C   UNL     1       4.932   4.132  15.857  0.00  0.00    +0.000 A 
ENDROOT
BRANCH   1   9
ATOM      7  C   UNL     1       6.060   2.987  12.643  0.00  0.00    +0.000 C 
ATOM      8  C   UNL     1       6.927   4.207  12.496  0.00  0.00    +0.000 C 
ATOM      9  C   UNL     1       5.729   4.242  13.426  0.00  0.00    +0.000 C 
BRANCH   7  10
ATOM     10  C   UNL     1       5.189   2.572  11.486  0.00  0.00    +0.000 C 
BRANCH  10  11
ATOM     11  C   UNL     1       3.953   3.456  11.349  0.00  0.00    +0.000 C 
BRANCH  11  13
ATOM     12  C   UNL     1       2.826   4.367   9.493  0.00  0.00    +0.000 C 
ATOM     13  O   UNL     1       3.308   3.181  10.108  0.00  0.00    +0.000 OA
ENDBRANCH  11  13
ENDBRANCH  10  11
ENDBRANCH   7  10
ENDBRANCH   1   9
BRANCH   5  14
ATOM     14  O   UNL     1       4.136   3.983  18.068  0.00  0.00    +0.000 OA
BRANCH  14  15
ATOM     15  C   UNL     1       3.163   3.043  17.605  0.00  0.00    +0.000 C 
BRANCH  15  16
ATOM     16  C   UNL     1       2.440   2.292  18.747  0.00  0.00    +0.000 C 
ATOM     17  C   UNL     1       1.023   2.866  18.903  0.00  0.00    +0.000 C 
ATOM     18  C   UNL     1       1.141   3.964  19.961  0.00  0.00    +0.000 C 
ATOM     19  C   UNL     1       2.552   3.844  20.517  0.00  0.00    +0.000 C 
ATOM     20  N   UNL     1       2.952   2.497  20.116  0.00  0.00    +0.000 NA
ATOM     21  C   UNL     1       4.371   2.251  20.288  0.00  0.00    +0.000 C 
ENDBRANCH  15  16
ENDBRANCH  14  15
ENDBRANCH   5  14
TORSDOF 7
ENDMDL
MODEL 9
REMARK VINA RESULT:      -6.5      2.565      3.522
REMARK  Name = 
REMARK  9 active torsions:
REMARK  status: ('A' for Active; 'I' for Inactive)
REMARK    1  A    between atoms: C_1  and  O_2
REMARK    2  A    between atoms: O_2  and  C_3
REMARK    3  A    between atoms: C_3  and  C_4
REMARK    4  A    between atoms: C_4  and  C_5
REMARK    5  A    between atoms: C_7  and  C_8
REMARK    6  A    between atoms: C_12  and  O_13
REMARK    7  A    between atoms: O_13  and  C_14
REMARK    8  A    between atoms: C_14  and  C_15
REMARK    9  A    between atoms: N_19  and  C_20
REMARK                            x       y       z     vdW  Elec       q    Type
REMARK                         _______ _______ _______ _____ _____    ______ ____
ROOT
ATOM      1  C   UNL     1       5.609   4.979  16.526  0.00  0.00    +0.000 A 
ATOM      2  C   UNL     1       6.714   4.617  17.300  0.00  0.00    +0.000 A 
ATOM      3  N   UNL     1       6.750   4.600  18.651  0.00  0.00    +0.000 NA
ATOM      4  C   UNL     1       5.608   4.958  19.272  0.00  0.00    +0.000 A 
ATOM      5  C   UNL     1       4.429   5.321  18.630  0.00  0.00    +0.000 A 
ATOM      6  C   UNL     1       4.456   5.344  17.235  0.00  0.00    +0.000 A 
ENDROOT
BRANCH   1   9
ATOM      7  C   UNL     1       6.250   3.843  14.236  0.00  0.00    +0.000 C 
ATOM      8  C   UNL     1       7.069   5.099  14.367  0.00  0.00    +0.000 C 
ATOM      9  C   UNL     1       5.704   5.018  15.023  0.00  0.00    +0.000 C 
BRANCH   7  10
ATOM     10  C   UNL     1       5.660   3.499  12.894  0.00  0.00    +0.000 C 
BRANCH  10  11
ATOM     11  C   UNL     1       6.704   3.521  11.781  0.00  0.00    +0.000 C 
BRANCH  11  13
ATOM     12  C   UNL     1       5.997   1.345  11.224  0.00  0.00    +0.000 C 
ATOM     13  O   UNL     1       7.110   2.187  11.485  0.00  0.00    +0.000 OA
ENDBRANCH  11  13
ENDBRANCH  10  11
ENDBRANCH   7  10
ENDBRANCH   1   9
BRANCH   5  14
ATOM     14  O   UNL     1       3.236   5.636  19.229  0.00  0.00    +0.000 OA
BRANCH  14  15
ATOM     15  C   UNL     1       2.081   4.936  18.758  0.00  0.00    +0.000 C 
BRANCH  15  16
ATOM     16  C   UNL     1       1.254   4.283  19.891  0.00  0.00    +0.000 C 
ATOM     17  C   UNL     1       2.017   4.431  21.216  0.00  0.00    +0.000 C 
ATOM     18  C   UNL     1       2.851   3.156  21.353  0.00  0.00    +0.000 C 
ATOM     19  C   UNL     1       2.386   2.244  20.227  0.00  0.00    +0.000 C 
ATOM     20  N   UNL     1       1.097   2.816  19.848  0.00  0.00    +0.000 NA
ATOM     21  C   UNL     1       0.585   2.286  18.599  0.00  0.00    +0.000 C 
ENDBRANCH  15  16
ENDBRANCH  14  15
ENDBRANCH   5  14
TORSDOF 7
ENDMDL
