MODEL 1
REMARK VINA RESULT:      -7.4      0.000      0.000
REMARK  Name = 
REMARK  6 active torsions:
REMARK  status: ('A' for Active; 'I' for Inactive)
REMARK    1  A    between atoms: C_1  and  N_2
REMARK    2  A    between atoms: N_2  and  C_3
REMARK    3  A    between atoms: C_8  and  C_9
REMARK    4  A    between atoms: C_9  and  N_10
REMARK    5  A    between atoms: N_10  and  S_11
REMARK    6  A    between atoms: S_11  and  C_14
REMARK                            x       y       z     vdW  Elec       q    Type
REMARK                         _______ _______ _______ _____ _____    ______ ____
ROOT
ATOM      1  N   UNL     1       5.417   4.846  16.822  0.00  0.00    +0.000 NA
ATOM      2  H   UNL     1       5.022   4.020  16.371  0.00  0.00    +0.000 HD
ENDROOT
BRANCH   1   3
ATOM      3  S   UNL     1       6.964   5.209  16.304  0.00  0.00    +0.000 S 
ATOM      4  O   UNL     1       7.092   6.647  16.372  0.00  0.00    +0.000 OA
ATOM      5  O   UNL     1       7.884   4.330  16.993  0.00  0.00    +0.000 OA
BRANCH   3   6
ATOM      6  C   UNL     1       6.917   4.762  14.588  0.00  0.00    +0.000 A 
ATOM      7  C   UNL     1       6.004   3.796  14.158  0.00  0.00    +0.000 A 
ATOM      8  C   UNL     1       5.954   3.453  12.805  0.00  0.00    +0.000 A 
ATOM      9  C   UNL     1       6.803   4.082  11.893  0.00  0.00    +0.000 A 
ATOM     10  C   UNL     1       7.705   5.057  12.326  0.00  0.00    +0.000 A 
ATOM     11  C   UNL     1       7.763   5.403  13.678  0.00  0.00    +0.000 A 
ENDBRANCH   3   6
ENDBRANCH   1   3
BRANCH   1  12
ATOM     12  C   UNL     1       4.477   5.973  16.996  0.00  0.00    +0.000 C 
BRANCH  12  20
ATOM     13  C   UNL     1       1.672   2.892  21.384  0.00  0.00    +0.000 C 
ATOM     14  N   UNL     1       2.899   3.337  20.735  0.00  0.00    +0.000 N 
ATOM     15  C   UNL     1       3.781   2.306  20.202  0.00  0.00    +0.000 C 
ATOM     16  C   UNL     1       2.869   4.537  20.015  0.00  0.00    +0.000 A 
ATOM     17  C   UNL     1       2.101   5.604  20.445  0.00  0.00    +0.000 A 
ATOM     18  C   UNL     1       2.144   6.764  19.705  0.00  0.00    +0.000 A 
ATOM     19  N   UNL     1       2.878   6.908  18.593  0.00  0.00    +0.000 NA
ATOM     20  C   UNL     1       3.613   5.835  18.240  0.00  0.00    +0.000 A 
ATOM     21  N   UNL     1       3.640   4.665  18.915  0.00  0.00    +0.000 NA
ENDBRANCH  12  20
ENDBRANCH   1  12
TORSDOF 4
ENDMDL
MODEL 2
REMARK VINA RESULT:      -7.2      1.178      1.178
REMARK  Name = 
REMARK  6 active torsions:
REMARK  status: ('A' for Active; 'I' for Inactive)
REMARK    1  A    between atoms: C_1  and  N_2
REMARK    2  A    between atoms: N_2  and  C_3
REMARK    3  A    between atoms: C_8  and  C_9
REMARK    4  A    between atoms: C_9  and  N_10
REMARK    5  A    between atoms: N_10  and  S_11
REMARK    6  A    between atoms: S_11  and  C_14
REMARK                            x       y       z     vdW  Elec       q    Type
REMARK                         _______ _______ _______ _____ _____    ______ ____
ROOT
ATOM      1  N   UNL     1       5.037   5.952  16.227  0.00  0.00    +0.000 NA
ATOM      2  H   UNL     1       4.699   6.312  15.333  0.00  0.00    +0.000 HD
ENDROOT
BRANCH   1   3
ATOM      3  S   UNL     1       6.598   5.362  16.157  0.00  0.00    +0.000 S 
ATOM      4  O   UNL     1       7.475   6.502  16.301  0.00  0.00    +0.000 OA
ATOM      5  O   UNL     1       6.685   4.220  17.041  0.00  0.00    +0.000 OA
BRANCH   3   6
ATOM      6  C   UNL     1       6.730   4.802  14.479  0.00  0.00    +0.000 A 
ATOM      7  C   UNL     1       5.856   3.816  14.016  0.00  0.00    +0.000 A 
ATOM      8  C   UNL     1       5.946   3.384  12.692  0.00  0.00    +0.000 A 
ATOM      9  C   UNL     1       6.897   3.944  11.837  0.00  0.00    +0.000 A 
ATOM     10  C   UNL     1       7.762   4.939  12.301  0.00  0.00    +0.000 A 
ATOM     11  C   UNL     1       7.679   5.374  13.625  0.00  0.00    +0.000 A 
ENDBRANCH   3   6
ENDBRANCH   1   3
BRANCH   1  12
ATOM     12  C   UNL     1       4.669   6.764  17.406  0.00  0.00    +0.000 C 
BRANCH  12  20
ATOM     13  C   UNL     1       0.848   2.326  18.926  0.00  0.00    +0.000 C 
ATOM     14  N   UNL     1       2.206   2.806  18.702  0.00  0.00    +0.000 N 
ATOM     15  C   UNL     1       2.979   2.150  17.655  0.00  0.00    +0.000 C 
ATOM     16  C   UNL     1       2.463   4.170  18.877  0.00  0.00    +0.000 A 
ATOM     17  C   UNL     1       1.821   4.892  19.867  0.00  0.00    +0.000 A 
ATOM     18  C   UNL     1       2.145   6.223  20.003  0.00  0.00    +0.000 A 
ATOM     19  N   UNL     1       3.036   6.853  19.224  0.00  0.00    +0.000 NA
ATOM     20  C   UNL     1       3.635   6.087  18.290  0.00  0.00    +0.000 A 
ATOM     21  N   UNL     1       3.386   4.773  18.098  0.00  0.00    +0.000 NA
ENDBRANCH  12  20
ENDBRANCH   1  12
TORSDOF 4
ENDMDL
MODEL 3
REMARK VINA RESULT:      -7.1      1.015      2.711
REMARK  Name = 
REMARK  6 active torsions:
REMARK  status: ('A' for Active; 'I' for Inactive)
REMARK    1  A    between atoms: C_1  and  N_2
REMARK    2  A    between atoms: N_2  and  C_3
REMARK    3  A    between atoms: C_8  and  C_9
REMARK    4  A    between atoms: C_9  and  N_10
REMARK    5  A    between atoms: N_10  and  S_11
REMARK    6  A    between atoms: S_11  and  C_14
REMARK                            x       y       z     vdW  Elec       q    Type
REMARK                         _______ _______ _______ _____ _____    ______ ____
ROOT
ATOM      1  N   UNL     1       5.604   5.394  16.968  0.00  0.00    +0.000 NA
ATOM      2  H   UNL     1       5.275   6.324  17.232  0.00  0.00    +0.000 HD
ENDROOT
BRANCH   1   3
ATOM      3  S   UNL     1       7.176   5.384  16.401  0.00  0.00    +0.000 S 
ATOM      4  O   UNL     1       7.610   6.762  16.369  0.00  0.00    +0.000 OA
ATOM      5  O   UNL     1       7.909   4.372  17.132  0.00  0.00    +0.000 OA
BRANCH   3   6
ATOM      6  C   UNL     1       6.982   4.851  14.720  0.00  0.00    +0.000 A 
ATOM      7  C   UNL     1       7.799   5.402  13.730  0.00  0.00    +0.000 A 
ATOM      8  C   UNL     1       7.660   4.973  12.408  0.00  0.00    +0.000 A 
ATOM      9  C   UNL     1       6.718   3.995  12.086  0.00  0.00    +0.000 A 
ATOM     10  C   UNL     1       5.911   3.438  13.083  0.00  0.00    +0.000 A 
ATOM     11  C   UNL     1       6.043   3.864  14.406  0.00  0.00    +0.000 A 
ENDBRANCH   3   6
ENDBRANCH   1   3
BRANCH   1  12
ATOM     12  C   UNL     1       5.205   4.306  17.884  0.00  0.00    +0.000 C 
BRANCH  12  20
ATOM     13  C   UNL     1       1.465   8.236  20.564  0.00  0.00    +0.000 C 
ATOM     14  N   UNL     1       1.937   7.552  19.366  0.00  0.00    +0.000 N 
ATOM     15  C   UNL     1       2.480   8.382  18.298  0.00  0.00    +0.000 C 
ATOM     16  C   UNL     1       2.529   6.293  19.513  0.00  0.00    +0.000 A 
ATOM     17  C   UNL     1       2.072   5.400  20.466  0.00  0.00    +0.000 A 
ATOM     18  C   UNL     1       2.681   4.167  20.533  0.00  0.00    +0.000 A 
ATOM     19  N   UNL     1       3.692   3.795  19.736  0.00  0.00    +0.000 NA
ATOM     20  C   UNL     1       4.076   4.707  18.821  0.00  0.00    +0.000 A 
ATOM     21  N   UNL     1       3.526   5.932  18.678  0.00  0.00    +0.000 NA
ENDBRANCH  12  20
ENDBRANCH   1  12
TORSDOF 4
ENDMDL
MODEL 4
REMARK VINA RESULT:      -7.0      1.025      2.470
REMARK  Name = 
REMARK  6 active torsions:
REMARK  status: ('A' for Active; 'I' for Inactive)
REMARK    1  A    between atoms: C_1  and  N_2
REMARK    2  A    between atoms: N_2  and  C_3
REMARK    3  A    between atoms: C_8  and  C_9
REMARK    4  A    between atoms: C_9  and  N_10
REMARK    5  A    between atoms: N_10  and  S_11
REMARK    6  A    between atoms: S_11  and  C_14
REMARK                            x       y       z     vdW  Elec       q    Type
REMARK                         _______ _______ _______ _____ _____    ______ ____
ROOT
ATOM      1  N   UNL     1       5.305   4.955  16.817  0.00  0.00    +0.000 NA
ATOM      2  H   UNL     1       4.672   5.755  16.782  0.00  0.00    +0.000 HD
ENDROOT
BRANCH   1   3
ATOM      3  S   UNL     1       6.878   5.336  16.399  0.00  0.00    +0.000 S 
ATOM      4  O   UNL     1       6.980   6.776  16.457  0.00  0.00    +0.000 OA
ATOM      5  O   UNL     1       7.763   4.480  17.160  0.00  0.00    +0.000 OA
BRANCH   3   6
ATOM      6  C   UNL     1       6.954   4.867  14.691  0.00  0.00    +0.000 A 
ATOM      7  C   UNL     1       6.033   3.941  14.194  0.00  0.00    +0.000 A 
ATOM      8  C   UNL     1       6.080   3.582  12.845  0.00  0.00    +0.000 A 
ATOM      9  C   UNL     1       7.034   4.154  12.002  0.00  0.00    +0.000 A 
ATOM     10  C   UNL     1       7.945   5.088  12.501  0.00  0.00    +0.000 A 
ATOM     11  C   UNL     1       7.906   5.451  13.849  0.00  0.00    +0.000 A 
ENDBRANCH   3   6
ENDBRANCH   1   3
BRANCH   1  12
ATOM     12  C   UNL     1       5.107   4.051  17.969  0.00  0.00    +0.000 C 
BRANCH  12  20
ATOM     13  C   UNL     1       1.535   8.193  20.555  0.00  0.00    +0.000 C 
ATOM     14  N   UNL     1       1.966   7.451  19.377  0.00  0.00    +0.000 N 
ATOM     15  C   UNL     1       2.516   8.223  18.270  0.00  0.00    +0.000 C 
ATOM     16  C   UNL     1       2.521   6.180  19.561  0.00  0.00    +0.000 A 
ATOM     17  C   UNL     1       2.052   5.338  20.554  0.00  0.00    +0.000 A 
ATOM     18  C   UNL     1       2.623   4.090  20.659  0.00  0.00    +0.000 A 
ATOM     19  N   UNL     1       3.609   3.656  19.861  0.00  0.00    +0.000 NA
ATOM     20  C   UNL     1       4.007   4.521  18.907  0.00  0.00    +0.000 A 
ATOM     21  N   UNL     1       3.493   5.757  18.726  0.00  0.00    +0.000 NA
ENDBRANCH  12  20
ENDBRANCH   1  12
TORSDOF 4
ENDMDL
MODEL 5
REMARK VINA RESULT:      -6.9      3.724      6.526
REMARK  Name = 
REMARK  6 active torsions:
REMARK  status: ('A' for Active; 'I' for Inactive)
REMARK    1  A    between atoms: C_1  and  N_2
REMARK    2  A    between atoms: N_2  and  C_3
REMARK    3  A    between atoms: C_8  and  C_9
REMARK    4  A    between atoms: C_9  and  N_10
REMARK    5  A    between atoms: N_10  and  S_11
REMARK    6  A    between atoms: S_11  and  C_14
REMARK                            x       y       z     vdW  Elec       q    Type
REMARK                         _______ _______ _______ _____ _____    ______ ____
ROOT
ATOM      1  N   UNL     1       2.803   2.264  18.300  0.00  0.00    +0.000 NA
ATOM      2  H   UNL     1       2.672   1.332  17.907  0.00  0.00    +0.000 HD
ENDROOT
BRANCH   1   3
ATOM      3  S   UNL     1       1.524   2.768  19.251  0.00  0.00    +0.000 S 
ATOM      4  O   UNL     1       0.323   2.530  18.483  0.00  0.00    +0.000 OA
ATOM      5  O   UNL     1       1.703   2.210  20.574  0.00  0.00    +0.000 OA
BRANCH   3   6
ATOM      6  C   UNL     1       1.763   4.524  19.330  0.00  0.00    +0.000 A 
ATOM      7  C   UNL     1       1.692   5.169  20.567  0.00  0.00    +0.000 A 
ATOM      8  C   UNL     1       1.895   6.548  20.635  0.00  0.00    +0.000 A 
ATOM      9  C   UNL     1       2.177   7.271  19.474  0.00  0.00    +0.000 A 
ATOM     10  C   UNL     1       2.259   6.620  18.241  0.00  0.00    +0.000 A 
ATOM     11  C   UNL     1       2.055   5.241  18.165  0.00  0.00    +0.000 A 
ENDBRANCH   3   6
ENDBRANCH   1   3
BRANCH   1  12
ATOM     12  C   UNL     1       4.168   2.551  18.789  0.00  0.00    +0.000 C 
BRANCH  12  20
ATOM     13  C   UNL     1       7.743   7.314  17.720  0.00  0.00    +0.000 C 
ATOM     14  N   UNL     1       7.551   5.966  18.242  0.00  0.00    +0.000 N 
ATOM     15  C   UNL     1       7.789   5.766  19.666  0.00  0.00    +0.000 C 
ATOM     16  C   UNL     1       6.543   5.176  17.680  0.00  0.00    +0.000 A 
ATOM     17  C   UNL     1       6.254   5.248  16.329  0.00  0.00    +0.000 A 
ATOM     18  C   UNL     1       5.270   4.419  15.839  0.00  0.00    +0.000 A 
ATOM     19  N   UNL     1       4.576   3.561  16.600  0.00  0.00    +0.000 NA
ATOM     20  C   UNL     1       4.919   3.532  17.903  0.00  0.00    +0.000 A 
ATOM     21  N   UNL     1       5.879   4.300  18.463  0.00  0.00    +0.000 NA
ENDBRANCH  12  20
ENDBRANCH   1  12
TORSDOF 4
ENDMDL
MODEL 6
REMARK VINA RESULT:      -6.9      1.046      2.643
REMARK  Name = 
REMARK  6 active torsions:
REMARK  status: ('A' for Active; 'I' for Inactive)
REMARK    1  A    between atoms: C_1  and  N_2
REMARK    2  A    between atoms: N_2  and  C_3
REMARK    3  A    between atoms: C_8  and  C_9
REMARK    4  A    between atoms: C_9  and  N_10
REMARK    5  A    between atoms: N_10  and  S_11
REMARK    6  A    between atoms: S_11  and  C_14
REMARK                            x       y       z     vdW  Elec       q    Type
REMARK                         _______ _______ _______ _____ _____    ______ ____
ROOT
ATOM      1  N   UNL     1       5.499   4.935  16.970  0.00  0.00    +0.000 NA
ATOM      2  H   UNL     1       5.114   4.059  16.615  0.00  0.00    +0.000 HD
ENDROOT
BRANCH   1   3
ATOM      3  S   UNL     1       7.041   5.255  16.413  0.00  0.00    +0.000 S 
ATOM      4  O   UNL     1       7.204   6.691  16.459  0.00  0.00    +0.000 OA
ATOM      5  O   UNL     1       7.957   4.364  17.092  0.00  0.00    +0.000 OA
BRANCH   3   6
ATOM      6  C   UNL     1       6.944   4.788  14.704  0.00  0.00    +0.000 A 
ATOM      7  C   UNL     1       6.000   3.838  14.307  0.00  0.00    +0.000 A 
ATOM      8  C   UNL     1       5.911   3.479  12.961  0.00  0.00    +0.000 A 
ATOM      9  C   UNL     1       6.753   4.076  12.021  0.00  0.00    +0.000 A 
ATOM     10  C   UNL     1       7.687   5.035  12.421  0.00  0.00    +0.000 A 
ATOM     11  C   UNL     1       7.784   5.397  13.766  0.00  0.00    +0.000 A 
ENDBRANCH   3   6
ENDBRANCH   1   3
BRANCH   1  12
ATOM     12  C   UNL     1       4.545   6.063  17.019  0.00  0.00    +0.000 C 
BRANCH  12  20
ATOM     13  C   UNL     1       1.189   8.590  21.372  0.00  0.00    +0.000 C 
ATOM     14  N   UNL     1       1.403   8.262  19.968  0.00  0.00    +0.000 N 
ATOM     15  C   UNL     1       1.517   9.376  19.035  0.00  0.00    +0.000 C 
ATOM     16  C   UNL     1       2.174   7.136  19.662  0.00  0.00    +0.000 A 
ATOM     17  C   UNL     1       2.119   6.001  20.451  0.00  0.00    +0.000 A 
ATOM     18  C   UNL     1       2.882   4.919  20.073  0.00  0.00    +0.000 A 
ATOM     19  N   UNL     1       3.677   4.913  18.995  0.00  0.00    +0.000 NA
ATOM     20  C   UNL     1       3.672   6.045  18.263  0.00  0.00    +0.000 A 
ATOM     21  N   UNL     1       2.945   7.146  18.554  0.00  0.00    +0.000 NA
ENDBRANCH  12  20
ENDBRANCH   1  12
TORSDOF 4
ENDMDL
MODEL 7
REMARK VINA RESULT:      -6.9      2.957      4.742
REMARK  Name = 
REMARK  6 active torsions:
REMARK  status: ('A' for Active; 'I' for Inactive)
REMARK    1  A    between atoms: C_1  and  N_2
REMARK    2  A    between atoms: N_2  and  C_3
REMARK    3  A    between atoms: C_8  and  C_9
REMARK    4  A    between atoms: C_9  and  N_10
REMARK    5  A    between atoms: N_10  and  S_11
REMARK    6  A    between atoms: S_11  and  C_14
REMARK                            x       y       z     vdW  Elec       q    Type
REMARK                         _______ _______ _______ _____ _____    ______ ____
ROOT
ATOM      1  N   UNL     1       4.080   5.352  19.714  0.00  0.00    +0.000 NA
ATOM      2  H   UNL     1       4.825   5.520  20.391  0.00  0.00    +0.000 HD
ENDROOT
BRANCH   1   3
ATOM      3  S   UNL     1       4.203   3.872  18.947  0.00  0.00    +0.000 S 
ATOM      4  O   UNL     1       4.953   3.012  19.833  0.00  0.00    +0.000 OA
ATOM      5  O   UNL     1       2.888   3.507  18.465  0.00  0.00    +0.000 OA
BRANCH   3   6
ATOM      6  C   UNL     1       5.244   4.237  17.558  0.00  0.00    +0.000 A 
ATOM      7  C   UNL     1       6.586   4.559  17.775  0.00  0.00    +0.000 A 
ATOM      8  C   UNL     1       7.412   4.831  16.683  0.00  0.00    +0.000 A 
ATOM      9  C   UNL     1       6.899   4.771  15.386  0.00  0.00    +0.000 A 
ATOM     10  C   UNL     1       5.559   4.437  15.173  0.00  0.00    +0.000 A 
ATOM     11  C   UNL     1       4.726   4.166  16.260  0.00  0.00    +0.000 A 
ENDBRANCH   3   6
ENDBRANCH   1   3
BRANCH   1  12
ATOM     12  C   UNL     1       2.733   5.784  20.144  0.00  0.00    +0.000 C 
BRANCH  12  20
ATOM     13  C   UNL     1      -0.465  10.912  19.856  0.00  0.00    +0.000 C 
ATOM     14  N   UNL     1       0.541  10.082  20.507  0.00  0.00    +0.000 N 
ATOM     15  C   UNL     1       0.280   9.679  21.883  0.00  0.00    +0.000 C 
ATOM     16  C   UNL     1       1.238   9.153  19.728  0.00  0.00    +0.000 A 
ATOM     17  C   UNL     1       1.580   9.440  18.418  0.00  0.00    +0.000 A 
ATOM     18  C   UNL     1       2.293   8.492  17.719  0.00  0.00    +0.000 A 
ATOM     19  N   UNL     1       2.661   7.311  18.236  0.00  0.00    +0.000 NA
ATOM     20  C   UNL     1       2.309   7.104  19.520  0.00  0.00    +0.000 A 
ATOM     21  N   UNL     1       1.622   7.984  20.281  0.00  0.00    +0.000 NA
ENDBRANCH  12  20
ENDBRANCH   1  12
TORSDOF 4
ENDMDL
MODEL 8
REMARK VINA RESULT:      -6.8      2.971      4.738
REMARK  Name = 
REMARK  6 active torsions:
REMARK  status: ('A' for Active; 'I' for Inactive)
REMARK    1  A    between atoms: C_1  and  N_2
REMARK    2  A    between atoms: N_2  and  C_3
REMARK    3  A    between atoms: C_8  and  C_9
REMARK    4  A    between atoms: C_9  and  N_10
REMARK    5  A    between atoms: N_10  and  S_11
REMARK    6  A    between atoms: S_11  and  C_14
REMARK                            x       y       z     vdW  Elec       q    Type
REMARK                         _______ _______ _______ _____ _____    ______ ____
ROOT
ATOM      1  N   UNL     1       3.984   5.207  19.900  0.00  0.00    +0.000 NA
ATOM      2  H   UNL     1       4.655   5.297  20.664  0.00  0.00    +0.000 HD
ENDROOT
BRANCH   1   3
ATOM      3  S   UNL     1       4.133   3.777  19.050  0.00  0.00    +0.000 S 
ATOM      4  O   UNL     1       4.878   2.873  19.897  0.00  0.00    +0.000 OA
ATOM      5  O   UNL     1       2.830   3.428  18.527  0.00  0.00    +0.000 OA
BRANCH   3   6
ATOM      6  C   UNL     1       5.191   4.231  17.702  0.00  0.00    +0.000 A 
ATOM      7  C   UNL     1       4.661   4.306  16.411  0.00  0.00    +0.000 A 
ATOM      8  C   UNL     1       5.487   4.679  15.349  0.00  0.00    +0.000 A 
ATOM      9  C   UNL     1       6.829   4.984  15.582  0.00  0.00    +0.000 A 
ATOM     10  C   UNL     1       7.352   4.920  16.876  0.00  0.00    +0.000 A 
ATOM     11  C   UNL     1       6.532   4.546  17.942  0.00  0.00    +0.000 A 
ENDBRANCH   3   6
ENDBRANCH   1   3
BRANCH   1  12
ATOM     12  C   UNL     1       2.616   5.673  20.212  0.00  0.00    +0.000 C 
BRANCH  12  20
ATOM     13  C   UNL     1      -0.360  10.916  19.700  0.00  0.00    +0.000 C 
ATOM     14  N   UNL     1       0.573  10.055  20.415  0.00  0.00    +0.000 N 
ATOM     15  C   UNL     1       0.217   9.675  21.776  0.00  0.00    +0.000 C 
ATOM     16  C   UNL     1       1.279   9.093  19.684  0.00  0.00    +0.000 A 
ATOM     17  C   UNL     1       1.708   9.354  18.395  0.00  0.00    +0.000 A 
ATOM     18  C   UNL     1       2.423   8.373  17.746  0.00  0.00    +0.000 A 
ATOM     19  N   UNL     1       2.715   7.184  18.292  0.00  0.00    +0.000 NA
ATOM     20  C   UNL     1       2.280   7.003  19.555  0.00  0.00    +0.000 A 
ATOM     21  N   UNL     1       1.584   7.915  20.268  0.00  0.00    +0.000 NA
ENDBRANCH  12  20
ENDBRANCH   1  12
TORSDOF 4
ENDMDL
MODEL 9
REMARK VINA RESULT:      -6.8      3.224      6.547
REMARK  Name = 
REMARK  6 active torsions:
REMARK  status: ('A' for Active; 'I' for Inactive)
REMARK    1  A    between atoms: C_1  and  N_2
REMARK    2  A    between atoms: N_2  and  C_3
REMARK    3  A    between atoms: C_8  and  C_9
REMARK    4  A    between atoms: C_9  and  N_10
REMARK    5  A    between atoms: N_10  and  S_11
REMARK    6  A    between atoms: S_11  and  C_14
REMARK                            x       y       z     vdW  Elec       q    Type
REMARK                         _______ _______ _______ _____ _____    ______ ____
ROOT
ATOM      1  N   UNL     1       3.396   2.886  18.797  0.00  0.00    +0.000 NA
ATOM      2  H   UNL     1       3.445   1.903  18.528  0.00  0.00    +0.000 HD
ENDROOT
BRANCH   1   3
ATOM      3  S   UNL     1       1.867   3.371  19.262  0.00  0.00    +0.000 S 
ATOM      4  O   UNL     1       0.978   3.019  18.178  0.00  0.00    +0.000 OA
ATOM      5  O   UNL     1       1.640   2.905  20.613  0.00  0.00    +0.000 OA
BRANCH   3   6
ATOM      6  C   UNL     1       2.006   5.139  19.280  0.00  0.00    +0.000 A 
ATOM      7  C   UNL     1       2.288   5.815  18.090  0.00  0.00    +0.000 A 
ATOM      8  C   UNL     1       2.383   7.208  18.098  0.00  0.00    +0.000 A 
ATOM      9  C   UNL     1       2.185   7.916  19.285  0.00  0.00    +0.000 A 
ATOM     10  C   UNL     1       1.890   7.236  20.469  0.00  0.00    +0.000 A 
ATOM     11  C   UNL     1       1.797   5.843  20.470  0.00  0.00    +0.000 A 
ENDBRANCH   3   6
ENDBRANCH   1   3
BRANCH   1  12
ATOM     12  C   UNL     1       4.538   3.371  19.602  0.00  0.00    +0.000 C 
BRANCH  12  20
ATOM     13  C   UNL     1       7.428   5.160  14.596  0.00  0.00    +0.000 C 
ATOM     14  N   UNL     1       6.194   4.987  15.352  0.00  0.00    +0.000 N 
ATOM     15  C   UNL     1       5.182   4.108  14.779  0.00  0.00    +0.000 C 
ATOM     16  C   UNL     1       6.267   4.994  16.749  0.00  0.00    +0.000 A 
ATOM     17  C   UNL     1       7.160   5.819  17.410  0.00  0.00    +0.000 A 
ATOM     18  C   UNL     1       7.156   5.797  18.786  0.00  0.00    +0.000 A 
ATOM     19  N   UNL     1       6.345   5.016  19.513  0.00  0.00    +0.000 NA
ATOM     20  C   UNL     1       5.490   4.250  18.806  0.00  0.00    +0.000 A 
ATOM     21  N   UNL     1       5.418   4.220  17.458  0.00  0.00    +0.000 NA
ENDBRANCH  12  20
ENDBRANCH   1  12
TORSDOF 4
ENDMDL
