MODEL 1
REMARK VINA RESULT:      -7.2      0.000      0.000
REMARK  Name = 
REMARK  13 active torsions:
REMARK  status: ('A' for Active; 'I' for Inactive)
REMARK    1  A    between atoms: C_1  and  O_2
REMARK    2  A    between atoms: O_2  and  C_3
REMARK    3  A    between atoms: C_6  and  C_7
REMARK    4  A    between atoms: C_8  and  C_9
REMARK    5  A    between atoms: C_8  and  C_12
REMARK    6  A    between atoms: C_9  and  C_10
REMARK    7  A    between atoms: C_14  and  O_15
REMARK    8  A    between atoms: O_15  and  C_16
REMARK    9  A    between atoms: C_17  and  O_18
REMARK   10  A    between atoms: O_18  and  C_19
REMARK   11  A    between atoms: C_20  and  O_21
REMARK   12  A    between atoms: O_21  and  C_22
REMARK   13  A    between atoms: C_25  and  N_26
REMARK                            x       y       z     vdW  Elec       q    Type
REMARK                         _______ _______ _______ _____ _____    ______ ____
ROOT
ATOM      1  C   UNL     1       1.936   4.919  19.100  0.00  0.00    +0.000 C 
ATOM      2  C   UNL     1       2.920   4.124  18.643  0.00  0.00    +0.000 C 
ENDROOT
BRANCH   1   6
ATOM      3  C   UNL     1       1.480   9.154  19.462  0.00  0.00    +0.000 A 
ATOM      4  C   UNL     1       1.875   8.581  18.249  0.00  0.00    +0.000 A 
ATOM      5  C   UNL     1       2.088   7.201  18.145  0.00  0.00    +0.000 A 
ATOM      6  C   UNL     1       1.947   6.374  19.264  0.00  0.00    +0.000 A 
ATOM      7  C   UNL     1       1.631   6.935  20.498  0.00  0.00    +0.000 A 
ATOM      8  C   UNL     1       1.386   8.315  20.583  0.00  0.00    +0.000 A 
BRANCH   8   9
ATOM      9  N   UNL     1       0.859   8.821  21.841  0.00  0.00    +0.000 N 
ATOM     10  O   UNL     1      -0.352   8.726  22.049  0.00  0.00    +0.000 OA
ATOM     11  O   UNL     1       1.680   9.364  22.597  0.00  0.00    +0.000 OA
ENDBRANCH   8   9
BRANCH   3  13
ATOM     12  C   UNL     1      -0.040  10.914  18.988  0.00  0.00    +0.000 C 
ATOM     13  O   UNL     1       1.169  10.479  19.603  0.00  0.00    +0.000 OA
ENDBRANCH   3  13
ENDBRANCH   1   6
BRANCH   2  14
ATOM     14  C   UNL     1       4.272   4.621  18.318  0.00  0.00    +0.000 A 
ATOM     15  C   UNL     1       4.578   4.971  17.002  0.00  0.00    +0.000 A 
ATOM     16  C   UNL     1       5.781   5.620  16.702  0.00  0.00    +0.000 A 
ATOM     17  C   UNL     1       6.705   5.909  17.731  0.00  0.00    +0.000 A 
ATOM     18  C   UNL     1       6.403   5.536  19.057  0.00  0.00    +0.000 A 
ATOM     19  C   UNL     1       5.195   4.877  19.333  0.00  0.00    +0.000 A 
BRANCH  16  20
ATOM     20  O   UNL     1       6.113   6.014  15.425  0.00  0.00    +0.000 OA
ATOM     21  C   UNL     1       6.508   4.977  14.532  0.00  0.00    +0.000 C 
ENDBRANCH  16  20
BRANCH  17  22
ATOM     22  O   UNL     1       7.867   6.525  17.323  0.00  0.00    +0.000 OA
ATOM     23  C   UNL     1       7.960   7.930  17.527  0.00  0.00    +0.000 C 
ENDBRANCH  17  22
BRANCH  18  24
ATOM     24  O   UNL     1       7.322   5.783  20.046  0.00  0.00    +0.000 OA
ATOM     25  C   UNL     1       8.566   5.097  19.922  0.00  0.00    +0.000 C 
ENDBRANCH  18  24
ENDBRANCH   2  14
BRANCH   2  26
ATOM     26  C   UNL     1       2.684   2.643  18.512  0.00  0.00    +0.000 C 
ATOM     27  C   UNL     1       1.462   1.998  19.114  0.00  0.00    +0.000 C 
ATOM     28  O   UNL     1       3.494   1.942  17.897  0.00  0.00    +0.000 OA
ENDBRANCH   2  26
TORSDOF 8
ENDMDL
MODEL 2
REMARK VINA RESULT:      -6.5      2.309      5.997
REMARK  Name = 
REMARK  13 active torsions:
REMARK  status: ('A' for Active; 'I' for Inactive)
REMARK    1  A    between atoms: C_1  and  O_2
REMARK    2  A    between atoms: O_2  and  C_3
REMARK    3  A    between atoms: C_6  and  C_7
REMARK    4  A    between atoms: C_8  and  C_9
REMARK    5  A    between atoms: C_8  and  C_12
REMARK    6  A    between atoms: C_9  and  C_10
REMARK    7  A    between atoms: C_14  and  O_15
REMARK    8  A    between atoms: O_15  and  C_16
REMARK    9  A    between atoms: C_17  and  O_18
REMARK   10  A    between atoms: O_18  and  C_19
REMARK   11  A    between atoms: C_20  and  O_21
REMARK   12  A    between atoms: O_21  and  C_22
REMARK   13  A    between atoms: C_25  and  N_26
REMARK                            x       y       z     vdW  Elec       q    Type
REMARK                         _______ _______ _______ _____ _____    ______ ____
ROOT
ATOM      1  C   UNL     1       3.359   3.097  19.066  0.00  0.00    +0.000 C 
ATOM      2  C   UNL     1       2.475   3.879  19.712  0.00  0.00    +0.000 C 
ENDROOT
BRANCH   1   6
ATOM      3  C   UNL     1       6.429   4.724  16.576  0.00  0.00    +0.000 A 
ATOM      4  C   UNL     1       5.380   3.983  16.023  0.00  0.00    +0.000 A 
ATOM      5  C   UNL     1       4.409   3.395  16.841  0.00  0.00    +0.000 A 
ATOM      6  C   UNL     1       4.492   3.504  18.233  0.00  0.00    +0.000 A 
ATOM      7  C   UNL     1       5.571   4.170  18.807  0.00  0.00    +0.000 A 
ATOM      8  C   UNL     1       6.519   4.786  17.975  0.00  0.00    +0.000 A 
BRANCH   8   9
ATOM      9  N   UNL     1       7.508   5.641  18.614  0.00  0.00    +0.000 N 
ATOM     10  O   UNL     1       8.270   5.137  19.441  0.00  0.00    +0.000 OA
ATOM     11  O   UNL     1       7.470   6.843  18.306  0.00  0.00    +0.000 OA
ENDBRANCH   8   9
BRANCH   3  13
ATOM     12  C   UNL     1       7.327   5.155  14.422  0.00  0.00    +0.000 C 
ATOM     13  O   UNL     1       7.354   5.397  15.826  0.00  0.00    +0.000 OA
ENDBRANCH   3  13
ENDBRANCH   1   6
BRANCH   2  14
ATOM     14  C   UNL     1       2.457   5.350  19.583  0.00  0.00    +0.000 A 
ATOM     15  C   UNL     1       2.858   5.940  18.383  0.00  0.00    +0.000 A 
ATOM     16  C   UNL     1       2.672   7.310  18.170  0.00  0.00    +0.000 A 
ATOM     17  C   UNL     1       2.092   8.111  19.178  0.00  0.00    +0.000 A 
ATOM     18  C   UNL     1       1.707   7.517  20.397  0.00  0.00    +0.000 A 
ATOM     19  C   UNL     1       1.911   6.143  20.594  0.00  0.00    +0.000 A 
BRANCH  16  20
ATOM     20  O   UNL     1       3.021   7.931  16.991  0.00  0.00    +0.000 OA
ATOM     21  C   UNL     1       4.222   7.475  16.375  0.00  0.00    +0.000 C 
ENDBRANCH  16  20
BRANCH  17  22
ATOM     22  O   UNL     1       1.979   9.449  18.875  0.00  0.00    +0.000 OA
ATOM     23  C   UNL     1       0.733   9.890  18.348  0.00  0.00    +0.000 C 
ENDBRANCH  17  22
BRANCH  18  24
ATOM     24  O   UNL     1       1.181   8.308  21.389  0.00  0.00    +0.000 OA
ATOM     25  C   UNL     1      -0.241   8.305  21.496  0.00  0.00    +0.000 C 
ENDBRANCH  18  24
ENDBRANCH   2  14
BRANCH   2  26
ATOM     26  C   UNL     1       1.400   3.251  20.557  0.00  0.00    +0.000 C 
ATOM     27  C   UNL     1       1.708   2.720  21.934  0.00  0.00    +0.000 C 
ATOM     28  O   UNL     1       0.244   3.175  20.126  0.00  0.00    +0.000 OA
ENDBRANCH   2  26
TORSDOF 8
ENDMDL
MODEL 3
REMARK VINA RESULT:      -6.4      1.079      2.463
REMARK  Name = 
REMARK  13 active torsions:
REMARK  status: ('A' for Active; 'I' for Inactive)
REMARK    1  A    between atoms: C_1  and  O_2
REMARK    2  A    between atoms: O_2  and  C_3
REMARK    3  A    between atoms: C_6  and  C_7
REMARK    4  A    between atoms: C_8  and  C_9
REMARK    5  A    between atoms: C_8  and  C_12
REMARK    6  A    between atoms: C_9  and  C_10
REMARK    7  A    between atoms: C_14  and  O_15
REMARK    8  A    between atoms: O_15  and  C_16
REMARK    9  A    between atoms: C_17  and  O_18
REMARK   10  A    between atoms: O_18  and  C_19
REMARK   11  A    between atoms: C_20  and  O_21
REMARK   12  A    between atoms: O_21  and  C_22
REMARK   13  A    between atoms: C_25  and  N_26
REMARK                            x       y       z     vdW  Elec       q    Type
REMARK                         _______ _______ _______ _____ _____    ______ ____
ROOT
ATOM      1  C   UNL     1       1.981   4.578  19.378  0.00  0.00    +0.000 C 
ATOM      2  C   UNL     1       2.793   3.727  18.725  0.00  0.00    +0.000 C 
ENDROOT
BRANCH   1   6
ATOM      3  C   UNL     1       1.704   8.844  19.376  0.00  0.00    +0.000 A 
ATOM      4  C   UNL     1       2.151   8.158  18.242  0.00  0.00    +0.000 A 
ATOM      5  C   UNL     1       2.304   6.767  18.261  0.00  0.00    +0.000 A 
ATOM      6  C   UNL     1       2.050   6.040  19.428  0.00  0.00    +0.000 A 
ATOM      7  C   UNL     1       1.680   6.712  20.590  0.00  0.00    +0.000 A 
ATOM      8  C   UNL     1       1.495   8.103  20.549  0.00  0.00    +0.000 A 
BRANCH   8   9
ATOM      9  N   UNL     1       0.911   8.731  21.724  0.00  0.00    +0.000 N 
ATOM     10  O   UNL     1      -0.317   8.728  21.839  0.00  0.00    +0.000 OA
ATOM     11  O   UNL     1       1.707   9.275  22.506  0.00  0.00    +0.000 OA
ENDBRANCH   8   9
BRANCH   3  13
ATOM     12  C   UNL     1       0.262  10.613  18.725  0.00  0.00    +0.000 C 
ATOM     13  O   UNL     1       1.448  10.188  19.391  0.00  0.00    +0.000 OA
ENDBRANCH   3  13
ENDBRANCH   1   6
BRANCH   2  14
ATOM     14  C   UNL     1       4.007   4.163  18.007  0.00  0.00    +0.000 A 
ATOM     15  C   UNL     1       5.206   4.308  18.708  0.00  0.00    +0.000 A 
ATOM     16  C   UNL     1       6.405   4.534  18.023  0.00  0.00    +0.000 A 
ATOM     17  C   UNL     1       6.407   4.637  16.614  0.00  0.00    +0.000 A 
ATOM     18  C   UNL     1       5.191   4.511  15.910  0.00  0.00    +0.000 A 
ATOM     19  C   UNL     1       4.000   4.294  16.618  0.00  0.00    +0.000 A 
BRANCH  16  20
ATOM     20  O   UNL     1       7.617   4.651  18.667  0.00  0.00    +0.000 OA
ATOM     21  C   UNL     1       7.814   5.846  19.418  0.00  0.00    +0.000 C 
ENDBRANCH  16  20
BRANCH  17  22
ATOM     22  O   UNL     1       7.635   4.886  16.043  0.00  0.00    +0.000 OA
ATOM     23  C   UNL     1       7.880   6.214  15.591  0.00  0.00    +0.000 C 
ENDBRANCH  17  22
BRANCH  18  24
ATOM     24  O   UNL     1       5.193   4.652  14.544  0.00  0.00    +0.000 OA
ATOM     25  C   UNL     1       5.875   3.633  13.817  0.00  0.00    +0.000 C 
ENDBRANCH  18  24
ENDBRANCH   2  14
BRANCH   2  26
ATOM     26  C   UNL     1       2.517   2.248  18.771  0.00  0.00    +0.000 C 
ATOM     27  C   UNL     1       1.113   1.728  18.945  0.00  0.00    +0.000 C 
ATOM     28  O   UNL     1       3.448   1.444  18.655  0.00  0.00    +0.000 OA
ENDBRANCH   2  26
TORSDOF 8
ENDMDL
MODEL 4
REMARK VINA RESULT:      -6.3      0.837      2.468
REMARK  Name = 
REMARK  13 active torsions:
REMARK  status: ('A' for Active; 'I' for Inactive)
REMARK    1  A    between atoms: C_1  and  O_2
REMARK    2  A    between atoms: O_2  and  C_3
REMARK    3  A    between atoms: C_6  and  C_7
REMARK    4  A    between atoms: C_8  and  C_9
REMARK    5  A    between atoms: C_8  and  C_12
REMARK    6  A    between atoms: C_9  and  C_10
REMARK    7  A    between atoms: C_14  and  O_15
REMARK    8  A    between atoms: O_15  and  C_16
REMARK    9  A    between atoms: C_17  and  O_18
REMARK   10  A    between atoms: O_18  and  C_19
REMARK   11  A    between atoms: C_20  and  O_21
REMARK   12  A    between atoms: O_21  and  C_22
REMARK   13  A    between atoms: C_25  and  N_26
REMARK                            x       y       z     vdW  Elec       q    Type
REMARK                         _______ _______ _______ _____ _____    ______ ____
ROOT
ATOM      1  C   UNL     1       2.131   5.189  19.790  0.00  0.00    +0.000 C 
ATOM      2  C   UNL     1       3.108   4.525  19.144  0.00  0.00    +0.000 C 
ENDROOT
BRANCH   1   6
ATOM      3  C   UNL     1       1.100   9.333  19.978  0.00  0.00    +0.000 A 
ATOM      4  C   UNL     1       1.656   8.789  18.816  0.00  0.00    +0.000 A 
ATOM      5  C   UNL     1       2.054   7.447  18.773  0.00  0.00    +0.000 A 
ATOM      6  C   UNL     1       1.940   6.636  19.906  0.00  0.00    +0.000 A 
ATOM      7  C   UNL     1       1.463   7.179  21.096  0.00  0.00    +0.000 A 
ATOM      8  C   UNL     1       1.034   8.515  21.117  0.00  0.00    +0.000 A 
BRANCH   8   9
ATOM      9  N   UNL     1       0.354   8.976  22.318  0.00  0.00    +0.000 N 
ATOM     10  O   UNL     1       0.991   9.654  23.127  0.00  0.00    +0.000 OA
ATOM     11  O   UNL     1      -0.820   8.599  22.459  0.00  0.00    +0.000 OA
ENDBRANCH   8   9
BRANCH   3  13
ATOM     12  C   UNL     1       1.082  11.525  19.071  0.00  0.00    +0.000 C 
ATOM     13  O   UNL     1       0.610  10.608  20.054  0.00  0.00    +0.000 OA
ENDBRANCH   3  13
ENDBRANCH   1   6
BRANCH   2  14
ATOM     14  C   UNL     1       4.255   5.202  18.507  0.00  0.00    +0.000 A 
ATOM     15  C   UNL     1       5.390   5.492  19.266  0.00  0.00    +0.000 A 
ATOM     16  C   UNL     1       6.556   5.958  18.649  0.00  0.00    +0.000 A 
ATOM     17  C   UNL     1       6.587   6.155  17.250  0.00  0.00    +0.000 A 
ATOM     18  C   UNL     1       5.432   5.881  16.488  0.00  0.00    +0.000 A 
ATOM     19  C   UNL     1       4.271   5.424  17.130  0.00  0.00    +0.000 A 
BRANCH  16  20
ATOM     20  O   UNL     1       7.711   6.226  19.351  0.00  0.00    +0.000 OA
ATOM     21  C   UNL     1       8.108   5.241  20.302  0.00  0.00    +0.000 C 
ENDBRANCH  16  20
BRANCH  17  22
ATOM     22  O   UNL     1       7.774   6.640  16.750  0.00  0.00    +0.000 OA
ATOM     23  C   UNL     1       8.117   7.981  17.083  0.00  0.00    +0.000 C 
ENDBRANCH  17  22
BRANCH  18  24
ATOM     24  O   UNL     1       5.454   6.114  15.135  0.00  0.00    +0.000 OA
ATOM     25  C   UNL     1       5.786   4.992  14.320  0.00  0.00    +0.000 C 
ENDBRANCH  18  24
ENDBRANCH   2  14
BRANCH   2  26
ATOM     26  C   UNL     1       3.094   3.021  19.113  0.00  0.00    +0.000 C 
ATOM     27  C   UNL     1       2.355   2.276  18.032  0.00  0.00    +0.000 C 
ATOM     28  O   UNL     1       3.704   2.382  19.976  0.00  0.00    +0.000 OA
ENDBRANCH   2  26
TORSDOF 8
ENDMDL
MODEL 5
REMARK VINA RESULT:      -6.2      2.264      6.173
REMARK  Name = 
REMARK  13 active torsions:
REMARK  status: ('A' for Active; 'I' for Inactive)
REMARK    1  A    between atoms: C_1  and  O_2
REMARK    2  A    between atoms: O_2  and  C_3
REMARK    3  A    between atoms: C_6  and  C_7
REMARK    4  A    between atoms: C_8  and  C_9
REMARK    5  A    between atoms: C_8  and  C_12
REMARK    6  A    between atoms: C_9  and  C_10
REMARK    7  A    between atoms: C_14  and  O_15
REMARK    8  A    between atoms: O_15  and  C_16
REMARK    9  A    between atoms: C_17  and  O_18
REMARK   10  A    between atoms: O_18  and  C_19
REMARK   11  A    between atoms: C_20  and  O_21
REMARK   12  A    between atoms: O_21  and  C_22
REMARK   13  A    between atoms: C_25  and  N_26
REMARK                            x       y       z     vdW  Elec       q    Type
REMARK                         _______ _______ _______ _____ _____    ______ ____
ROOT
ATOM      1  C   UNL     1       3.407   3.043  19.125  0.00  0.00    +0.000 C 
ATOM      2  C   UNL     1       2.423   3.784  19.669  0.00  0.00    +0.000 C 
ENDROOT
BRANCH   1   6
ATOM      3  C   UNL     1       6.397   4.774  16.609  0.00  0.00    +0.000 A 
ATOM      4  C   UNL     1       5.370   3.998  16.064  0.00  0.00    +0.000 A 
ATOM      5  C   UNL     1       4.426   3.377  16.892  0.00  0.00    +0.000 A 
ATOM      6  C   UNL     1       4.518   3.489  18.282  0.00  0.00    +0.000 A 
ATOM      7  C   UNL     1       5.578   4.191  18.847  0.00  0.00    +0.000 A 
ATOM      8  C   UNL     1       6.497   4.840  18.007  0.00  0.00    +0.000 A 
BRANCH   8   9
ATOM      9  N   UNL     1       7.462   5.729  18.637  0.00  0.00    +0.000 N 
ATOM     10  O   UNL     1       8.149   5.287  19.561  0.00  0.00    +0.000 OA
ATOM     11  O   UNL     1       7.480   6.898  18.220  0.00  0.00    +0.000 OA
ENDBRANCH   8   9
BRANCH   3  13
ATOM     12  C   UNL     1       7.328   5.165  14.461  0.00  0.00    +0.000 C 
ATOM     13  O   UNL     1       7.292   5.479  15.851  0.00  0.00    +0.000 OA
ENDBRANCH   3  13
ENDBRANCH   1   6
BRANCH   2  14
ATOM     14  C   UNL     1       2.254   5.224  19.394  0.00  0.00    +0.000 A 
ATOM     15  C   UNL     1       1.818   6.073  20.413  0.00  0.00    +0.000 A 
ATOM     16  C   UNL     1       1.831   7.460  20.234  0.00  0.00    +0.000 A 
ATOM     17  C   UNL     1       2.269   8.013  19.009  0.00  0.00    +0.000 A 
ATOM     18  C   UNL     1       2.688   7.152  17.974  0.00  0.00    +0.000 A 
ATOM     19  C   UNL     1       2.658   5.764  18.172  0.00  0.00    +0.000 A 
BRANCH  16  20
ATOM     20  O   UNL     1       1.443   8.339  21.221  0.00  0.00    +0.000 OA
ATOM     21  C   UNL     1       0.044   8.412  21.480  0.00  0.00    +0.000 C 
ENDBRANCH  16  20
BRANCH  17  22
ATOM     22  O   UNL     1       2.216   9.386  18.931  0.00  0.00    +0.000 OA
ATOM     23  C   UNL     1       1.101   9.953  18.251  0.00  0.00    +0.000 C 
ENDBRANCH  17  22
BRANCH  18  24
ATOM     24  O   UNL     1       3.074   7.693  16.772  0.00  0.00    +0.000 OA
ATOM     25  C   UNL     1       4.428   7.457  16.393  0.00  0.00    +0.000 C 
ENDBRANCH  18  24
ENDBRANCH   2  14
BRANCH   2  26
ATOM     26  C   UNL     1       1.393   3.127  20.547  0.00  0.00    +0.000 C 
ATOM     27  C   UNL     1       1.744   2.657  21.936  0.00  0.00    +0.000 C 
ATOM     28  O   UNL     1       0.238   2.976  20.135  0.00  0.00    +0.000 OA
ENDBRANCH   2  26
TORSDOF 8
ENDMDL
MODEL 6
REMARK VINA RESULT:      -6.0      1.548      3.136
REMARK  Name = 
REMARK  13 active torsions:
REMARK  status: ('A' for Active; 'I' for Inactive)
REMARK    1  A    between atoms: C_1  and  O_2
REMARK    2  A    between atoms: O_2  and  C_3
REMARK    3  A    between atoms: C_6  and  C_7
REMARK    4  A    between atoms: C_8  and  C_9
REMARK    5  A    between atoms: C_8  and  C_12
REMARK    6  A    between atoms: C_9  and  C_10
REMARK    7  A    between atoms: C_14  and  O_15
REMARK    8  A    between atoms: O_15  and  C_16
REMARK    9  A    between atoms: C_17  and  O_18
REMARK   10  A    between atoms: O_18  and  C_19
REMARK   11  A    between atoms: C_20  and  O_21
REMARK   12  A    between atoms: O_21  and  C_22
REMARK   13  A    between atoms: C_25  and  N_26
REMARK                            x       y       z     vdW  Elec       q    Type
REMARK                         _______ _______ _______ _____ _____    ______ ____
ROOT
ATOM      1  C   UNL     1       2.603   4.188  19.809  0.00  0.00    +0.000 C 
ATOM      2  C   UNL     1       3.742   3.761  19.235  0.00  0.00    +0.000 C 
ENDROOT
BRANCH   1   6
ATOM      3  C   UNL     1       1.465   8.300  20.081  0.00  0.00    +0.000 A 
ATOM      4  C   UNL     1       1.251   7.429  21.154  0.00  0.00    +0.000 A 
ATOM      5  C   UNL     1       1.563   6.068  21.045  0.00  0.00    +0.000 A 
ATOM      6  C   UNL     1       2.058   5.547  19.845  0.00  0.00    +0.000 A 
ATOM      7  C   UNL     1       2.204   6.382  18.741  0.00  0.00    +0.000 A 
ATOM      8  C   UNL     1       1.922   7.751  18.873  0.00  0.00    +0.000 A 
BRANCH   8   9
ATOM      9  N   UNL     1       2.285   8.615  17.761  0.00  0.00    +0.000 N 
ATOM     10  O   UNL     1       1.486   9.487  17.412  0.00  0.00    +0.000 OA
ATOM     11  O   UNL     1       3.369   8.367  17.208  0.00  0.00    +0.000 OA
ENDBRANCH   8   9
BRANCH   3  13
ATOM     12  C   UNL     1      -0.038  10.077  20.540  0.00  0.00    +0.000 C 
ATOM     13  O   UNL     1       1.266   9.651  20.157  0.00  0.00    +0.000 OA
ENDBRANCH   3  13
ENDBRANCH   1   6
BRANCH   2  14
ATOM     14  C   UNL     1       4.719   4.673  18.608  0.00  0.00    +0.000 A 
ATOM     15  C   UNL     1       5.826   5.104  19.341  0.00  0.00    +0.000 A 
ATOM     16  C   UNL     1       6.859   5.811  18.717  0.00  0.00    +0.000 A 
ATOM     17  C   UNL     1       6.779   6.111  17.338  0.00  0.00    +0.000 A 
ATOM     18  C   UNL     1       5.650   5.693  16.604  0.00  0.00    +0.000 A 
ATOM     19  C   UNL     1       4.621   4.994  17.254  0.00  0.00    +0.000 A 
BRANCH  16  20
ATOM     20  O   UNL     1       7.986   6.228  19.390  0.00  0.00    +0.000 OA
ATOM     21  C   UNL     1       8.462   5.356  20.412  0.00  0.00    +0.000 C 
ENDBRANCH  16  20
BRANCH  17  22
ATOM     22  O   UNL     1       7.836   6.833  16.830  0.00  0.00    +0.000 OA
ATOM     23  C   UNL     1       7.940   8.195  17.229  0.00  0.00    +0.000 C 
ENDBRANCH  17  22
BRANCH  18  24
ATOM     24  O   UNL     1       5.558   6.023  15.274  0.00  0.00    +0.000 OA
ATOM     25  C   UNL     1       5.831   4.968  14.355  0.00  0.00    +0.000 C 
ENDBRANCH  18  24
ENDBRANCH   2  14
BRANCH   2  26
ATOM     26  C   UNL     1       4.098   2.299  19.279  0.00  0.00    +0.000 C 
ATOM     27  C   UNL     1       3.569   1.342  18.243  0.00  0.00    +0.000 C 
ATOM     28  O   UNL     1       4.842   1.874  20.169  0.00  0.00    +0.000 OA
ENDBRANCH   2  26
TORSDOF 8
ENDMDL
MODEL 7
REMARK VINA RESULT:      -6.0      1.389      2.644
REMARK  Name = 
REMARK  13 active torsions:
REMARK  status: ('A' for Active; 'I' for Inactive)
REMARK    1  A    between atoms: C_1  and  O_2
REMARK    2  A    between atoms: O_2  and  C_3
REMARK    3  A    between atoms: C_6  and  C_7
REMARK    4  A    between atoms: C_8  and  C_9
REMARK    5  A    between atoms: C_8  and  C_12
REMARK    6  A    between atoms: C_9  and  C_10
REMARK    7  A    between atoms: C_14  and  O_15
REMARK    8  A    between atoms: O_15  and  C_16
REMARK    9  A    between atoms: C_17  and  O_18
REMARK   10  A    between atoms: O_18  and  C_19
REMARK   11  A    between atoms: C_20  and  O_21
REMARK   12  A    between atoms: O_21  and  C_22
REMARK   13  A    between atoms: C_25  and  N_26
REMARK                            x       y       z     vdW  Elec       q    Type
REMARK                         _______ _______ _______ _____ _____    ______ ____
ROOT
ATOM      1  C   UNL     1       2.053   5.309  20.031  0.00  0.00    +0.000 C 
ATOM      2  C   UNL     1       2.890   4.338  19.621  0.00  0.00    +0.000 C 
ENDROOT
BRANCH   1   6
ATOM      3  C   UNL     1       1.559   9.360  18.760  0.00  0.00    +0.000 A 
ATOM      4  C   UNL     1       2.091   8.401  17.893  0.00  0.00    +0.000 A 
ATOM      5  C   UNL     1       2.313   7.088  18.327  0.00  0.00    +0.000 A 
ATOM      6  C   UNL     1       2.046   6.723  19.649  0.00  0.00    +0.000 A 
ATOM      7  C   UNL     1       1.591   7.682  20.549  0.00  0.00    +0.000 A 
ATOM      8  C   UNL     1       1.337   8.986  20.094  0.00  0.00    +0.000 A 
BRANCH   8   9
ATOM      9  N   UNL     1       0.670   9.894  21.014  0.00  0.00    +0.000 N 
ATOM     10  O   UNL     1       1.364  10.545  21.798  0.00  0.00    +0.000 OA
ATOM     11  O   UNL     1      -0.570   9.901  20.971  0.00  0.00    +0.000 OA
ENDBRANCH   8   9
BRANCH   3  13
ATOM     12  C   UNL     1       2.326  11.507  18.101  0.00  0.00    +0.000 C 
ATOM     13  O   UNL     1       1.235  10.631  18.371  0.00  0.00    +0.000 OA
ENDBRANCH   3  13
ENDBRANCH   1   6
BRANCH   2  14
ATOM     14  C   UNL     1       4.056   4.595  18.753  0.00  0.00    +0.000 A 
ATOM     15  C   UNL     1       5.126   5.346  19.243  0.00  0.00    +0.000 A 
ATOM     16  C   UNL     1       6.316   5.444  18.515  0.00  0.00    +0.000 A 
ATOM     17  C   UNL     1       6.438   4.796  17.266  0.00  0.00    +0.000 A 
ATOM     18  C   UNL     1       5.349   4.054  16.763  0.00  0.00    +0.000 A 
ATOM     19  C   UNL     1       4.160   3.978  17.506  0.00  0.00    +0.000 A 
BRANCH  16  20
ATOM     20  O   UNL     1       7.410   6.145  18.972  0.00  0.00    +0.000 OA
ATOM     21  C   UNL     1       8.163   5.523  20.010  0.00  0.00    +0.000 C 
ENDBRANCH  16  20
BRANCH  17  22
ATOM     22  O   UNL     1       7.641   4.978  16.622  0.00  0.00    +0.000 OA
ATOM     23  C   UNL     1       7.702   6.013  15.647  0.00  0.00    +0.000 C 
ENDBRANCH  17  22
BRANCH  18  24
ATOM     24  O   UNL     1       5.457   3.460  15.530  0.00  0.00    +0.000 OA
ATOM     25  C   UNL     1       5.136   4.286  14.414  0.00  0.00    +0.000 C 
ENDBRANCH  18  24
ENDBRANCH   2  14
BRANCH   2  26
ATOM     26  C   UNL     1       2.694   2.928  20.110  0.00  0.00    +0.000 C 
ATOM     27  C   UNL     1       1.603   2.057  19.543  0.00  0.00    +0.000 C 
ATOM     28  O   UNL     1       3.442   2.469  20.979  0.00  0.00    +0.000 OA
ENDBRANCH   2  26
TORSDOF 8
ENDMDL
MODEL 8
REMARK VINA RESULT:      -5.9      2.685      7.722
REMARK  Name = 
REMARK  13 active torsions:
REMARK  status: ('A' for Active; 'I' for Inactive)
REMARK    1  A    between atoms: C_1  and  O_2
REMARK    2  A    between atoms: O_2  and  C_3
REMARK    3  A    between atoms: C_6  and  C_7
REMARK    4  A    between atoms: C_8  and  C_9
REMARK    5  A    between atoms: C_8  and  C_12
REMARK    6  A    between atoms: C_9  and  C_10
REMARK    7  A    between atoms: C_14  and  O_15
REMARK    8  A    between atoms: O_15  and  C_16
REMARK    9  A    between atoms: C_17  and  O_18
REMARK   10  A    between atoms: O_18  and  C_19
REMARK   11  A    between atoms: C_20  and  O_21
REMARK   12  A    between atoms: O_21  and  C_22
REMARK   13  A    between atoms: C_25  and  N_26
REMARK                            x       y       z     vdW  Elec       q    Type
REMARK                         _______ _______ _______ _____ _____    ______ ____
ROOT
ATOM      1  C   UNL     1       1.012   8.234  21.399  0.00  0.00    +0.000 C 
ATOM      2  C   UNL     1       0.575   9.479  21.663  0.00  0.00    +0.000 C 
ENDROOT
BRANCH   1   6
ATOM      3  C   UNL     1       3.221   6.895  17.993  0.00  0.00    +0.000 A 
ATOM      4  C   UNL     1       2.687   8.186  18.034  0.00  0.00    +0.000 A 
ATOM      5  C   UNL     1       1.909   8.606  19.120  0.00  0.00    +0.000 A 
ATOM      6  C   UNL     1       1.617   7.726  20.166  0.00  0.00    +0.000 A 
ATOM      7  C   UNL     1       2.073   6.412  20.107  0.00  0.00    +0.000 A 
ATOM      8  C   UNL     1       2.882   6.013  19.031  0.00  0.00    +0.000 A 
BRANCH   8   9
ATOM      9  N   UNL     1       3.502   4.700  19.117  0.00  0.00    +0.000 N 
ATOM     10  O   UNL     1       4.626   4.616  19.616  0.00  0.00    +0.000 OA
ATOM     11  O   UNL     1       2.859   3.760  18.623  0.00  0.00    +0.000 OA
ENDBRANCH   8   9
BRANCH   3  13
ATOM     12  C   UNL     1       5.410   6.914  17.076  0.00  0.00    +0.000 C 
ATOM     13  O   UNL     1       4.061   6.457  17.007  0.00  0.00    +0.000 OA
ENDBRANCH   3  13
ENDBRANCH   1   6
BRANCH   2  14
ATOM     14  C   UNL     1       0.546  10.553  20.650  0.00  0.00    +0.000 A 
ATOM     15  C   UNL     1      -0.554  10.666  19.798  0.00  0.00    +0.000 A 
ATOM     16  C   UNL     1      -0.694  11.779  18.963  0.00  0.00    +0.000 A 
ATOM     17  C   UNL     1       0.292  12.792  18.964  0.00  0.00    +0.000 A 
ATOM     18  C   UNL     1       1.412  12.666  19.810  0.00  0.00    +0.000 A 
ATOM     19  C   UNL     1       1.537  11.536  20.632  0.00  0.00    +0.000 A 
BRANCH  16  20
ATOM     20  O   UNL     1      -1.777  11.952  18.131  0.00  0.00    +0.000 OA
ATOM     21  C   UNL     1      -2.313  10.767  17.548  0.00  0.00    +0.000 C 
ENDBRANCH  16  20
BRANCH  17  22
ATOM     22  O   UNL     1       0.070  13.830  18.086  0.00  0.00    +0.000 OA
ATOM     23  C   UNL     1      -0.249  15.097  18.651  0.00  0.00    +0.000 C 
ENDBRANCH  17  22
BRANCH  18  24
ATOM     24  O   UNL     1       2.387  13.633  19.776  0.00  0.00    +0.000 OA
ATOM     25  C   UNL     1       2.753  14.187  21.038  0.00  0.00    +0.000 C 
ENDBRANCH  18  24
ENDBRANCH   2  14
BRANCH   2  26
ATOM     26  C   UNL     1       0.018   9.803  23.023  0.00  0.00    +0.000 C 
ATOM     27  C   UNL     1      -1.275  10.561  23.170  0.00  0.00    +0.000 C 
ATOM     28  O   UNL     1       0.620   9.435  24.037  0.00  0.00    +0.000 OA
ENDBRANCH   2  26
TORSDOF 8
ENDMDL
MODEL 9
REMARK VINA RESULT:      -5.9      1.073      2.541
REMARK  Name = 
REMARK  13 active torsions:
REMARK  status: ('A' for Active; 'I' for Inactive)
REMARK    1  A    between atoms: C_1  and  O_2
REMARK    2  A    between atoms: O_2  and  C_3
REMARK    3  A    between atoms: C_6  and  C_7
REMARK    4  A    between atoms: C_8  and  C_9
REMARK    5  A    between atoms: C_8  and  C_12
REMARK    6  A    between atoms: C_9  and  C_10
REMARK    7  A    between atoms: C_14  and  O_15
REMARK    8  A    between atoms: O_15  and  C_16
REMARK    9  A    between atoms: C_17  and  O_18
REMARK   10  A    between atoms: O_18  and  C_19
REMARK   11  A    between atoms: C_20  and  O_21
REMARK   12  A    between atoms: O_21  and  C_22
REMARK   13  A    between atoms: C_25  and  N_26
REMARK                            x       y       z     vdW  Elec       q    Type
REMARK                         _______ _______ _______ _____ _____    ______ ____
ROOT
ATOM      1  C   UNL     1       2.468   4.921  19.799  0.00  0.00    +0.000 C 
ATOM      2  C   UNL     1       3.354   4.183  19.106  0.00  0.00    +0.000 C 
ENDROOT
BRANCH   1   6
ATOM      3  C   UNL     1       1.406   9.054  19.555  0.00  0.00    +0.000 A 
ATOM      4  C   UNL     1       1.940   8.389  18.447  0.00  0.00    +0.000 A 
ATOM      5  C   UNL     1       2.348   7.053  18.542  0.00  0.00    +0.000 A 
ATOM      6  C   UNL     1       2.267   6.371  19.760  0.00  0.00    +0.000 A 
ATOM      7  C   UNL     1       1.814   7.039  20.893  0.00  0.00    +0.000 A 
ATOM      8  C   UNL     1       1.373   8.367  20.778  0.00  0.00    +0.000 A 
BRANCH   8   9
ATOM      9  N   UNL     1       0.717   8.954  21.937  0.00  0.00    +0.000 N 
ATOM     10  O   UNL     1      -0.495   8.775  22.076  0.00  0.00    +0.000 OA
ATOM     11  O   UNL     1       1.435   9.643  22.678  0.00  0.00    +0.000 OA
ENDBRANCH   8   9
BRANCH   3  13
ATOM     12  C   UNL     1       1.552  11.222  18.600  0.00  0.00    +0.000 C 
ATOM     13  O   UNL     1       0.907  10.327  19.501  0.00  0.00    +0.000 OA
ENDBRANCH   3  13
ENDBRANCH   1   6
BRANCH   2  14
ATOM     14  C   UNL     1       4.384   4.775  18.229  0.00  0.00    +0.000 A 
ATOM     15  C   UNL     1       5.595   5.197  18.779  0.00  0.00    +0.000 A 
ATOM     16  C   UNL     1       6.655   5.584  17.951  0.00  0.00    +0.000 A 
ATOM     17  C   UNL     1       6.498   5.567  16.547  0.00  0.00    +0.000 A 
ATOM     18  C   UNL     1       5.267   5.159  15.994  0.00  0.00    +0.000 A 
ATOM     19  C   UNL     1       4.215   4.785  16.844  0.00  0.00    +0.000 A 
BRANCH  16  20
ATOM     20  O   UNL     1       7.879   5.976  18.446  0.00  0.00    +0.000 OA
ATOM     21  C   UNL     1       8.112   7.381  18.497  0.00  0.00    +0.000 C 
ENDBRANCH  16  20
BRANCH  17  22
ATOM     22  O   UNL     1       7.592   5.991  15.827  0.00  0.00    +0.000 OA
ATOM     23  C   UNL     1       7.983   5.193  14.715  0.00  0.00    +0.000 C 
ENDBRANCH  17  22
BRANCH  18  24
ATOM     24  O   UNL     1       5.106   5.183  14.630  0.00  0.00    +0.000 OA
ATOM     25  C   UNL     1       5.208   3.923  13.973  0.00  0.00    +0.000 C 
ENDBRANCH  18  24
ENDBRANCH   2  14
BRANCH   2  26
ATOM     26  C   UNL     1       3.366   2.686  19.265  0.00  0.00    +0.000 C 
ATOM     27  C   UNL     1       4.434   2.003  20.080  0.00  0.00    +0.000 C 
ATOM     28  O   UNL     1       2.486   2.003  18.732  0.00  0.00    +0.000 OA
ENDBRANCH   2  26
TORSDOF 8
ENDMDL
