MODEL 1
REMARK VINA RESULT:      -6.9      0.000      0.000
REMARK  Name = 
REMARK  4 active torsions:
REMARK  status: ('A' for Active; 'I' for Inactive)
REMARK    1  A    between atoms: C_1  and  C_2
REMARK    2  A    between atoms: C_4  and  C_5
REMARK    3  A    between atoms: C_5  and  N_6
REMARK    4  A    between atoms: C_9  and  C_10
REMARK                            x       y       z     vdW  Elec       q    Type
REMARK                         _______ _______ _______ _____ _____    ______ ____
ROOT
ATOM      1  N   UNL     1       5.545   4.752  18.765  0.00  0.00    +0.000 N 
ATOM      2  N   UNL     1       4.580   5.678  18.590  0.00  0.00    +0.000 NA
ATOM      3  N   UNL     1       3.469   5.096  19.016  0.00  0.00    +0.000 NA
ATOM      4  C   UNL     1       3.821   3.838  19.428  0.00  0.00    +0.000 A 
ATOM      5  N   UNL     1       5.129   3.582  19.298  0.00  0.00    +0.000 NA
ENDROOT
BRANCH   4   6
ATOM      6  C   UNL     1       2.834   2.796  19.919  0.00  0.00    +0.000 C 
ATOM      7  C   UNL     1       1.366   3.154  20.029  0.00  0.00    +0.000 C 
ATOM      8  C   UNL     1       1.820   2.260  18.926  0.00  0.00    +0.000 C 
ENDBRANCH   4   6
BRANCH   1   9
ATOM      9  C   UNL     1       6.846   4.895  18.141  0.00  0.00    +0.000 C 
BRANCH   9  13
ATOM     10  C   UNL     1       6.161   3.766  13.210  0.00  0.00    +0.000 C 
ATOM     11  C   UNL     1       6.535   4.324  14.527  0.00  0.00    +0.000 A 
ATOM     12  C   UNL     1       6.092   3.930  15.810  0.00  0.00    +0.000 A 
ATOM     13  C   UNL     1       6.764   4.764  16.673  0.00  0.00    +0.000 A 
ATOM     14  O   UNL     1       7.553   5.606  15.953  0.00  0.00    +0.000 OA
ATOM     15  N   UNL     1       7.413   5.332  14.606  0.00  0.00    +0.000 NA
ENDBRANCH   9  13
ENDBRANCH   1   9
TORSDOF 3
ENDMDL
MODEL 2
REMARK VINA RESULT:      -6.9      0.929      1.135
REMARK  Name = 
REMARK  4 active torsions:
REMARK  status: ('A' for Active; 'I' for Inactive)
REMARK    1  A    between atoms: C_1  and  C_2
REMARK    2  A    between atoms: C_4  and  C_5
REMARK    3  A    between atoms: C_5  and  N_6
REMARK    4  A    between atoms: C_9  and  C_10
REMARK                            x       y       z     vdW  Elec       q    Type
REMARK                         _______ _______ _______ _____ _____    ______ ____
ROOT
ATOM      1  N   UNL     1       4.884   4.922  18.136  0.00  0.00    +0.000 N 
ATOM      2  N   UNL     1       4.275   6.124  18.076  0.00  0.00    +0.000 NA
ATOM      3  N   UNL     1       2.981   5.855  18.168  0.00  0.00    +0.000 NA
ATOM      4  C   UNL     1       2.874   4.493  18.277  0.00  0.00    +0.000 A 
ATOM      5  N   UNL     1       4.056   3.864  18.273  0.00  0.00    +0.000 NA
ENDROOT
BRANCH   4   6
ATOM      6  C   UNL     1       1.555   3.745  18.326  0.00  0.00    +0.000 C 
ATOM      7  C   UNL     1       1.514   2.347  18.908  0.00  0.00    +0.000 C 
ATOM      8  C   UNL     1       0.944   3.481  19.690  0.00  0.00    +0.000 C 
ENDBRANCH   4   6
BRANCH   1   9
ATOM      9  C   UNL     1       6.277   4.767  17.765  0.00  0.00    +0.000 C 
BRANCH   9  13
ATOM     10  C   UNL     1       6.471   3.801  12.757  0.00  0.00    +0.000 C 
ATOM     11  C   UNL     1       6.599   4.322  14.134  0.00  0.00    +0.000 A 
ATOM     12  C   UNL     1       5.961   3.867  15.311  0.00  0.00    +0.000 A 
ATOM     13  C   UNL     1       6.448   4.688  16.302  0.00  0.00    +0.000 A 
ATOM     14  O   UNL     1       7.315   5.581  15.752  0.00  0.00    +0.000 OA
ATOM     15  N   UNL     1       7.412   5.352  14.392  0.00  0.00    +0.000 NA
ENDBRANCH   9  13
ENDBRANCH   1   9
TORSDOF 3
ENDMDL
MODEL 3
REMARK VINA RESULT:      -6.8      0.846      1.351
REMARK  Name = 
REMARK  4 active torsions:
REMARK  status: ('A' for Active; 'I' for Inactive)
REMARK    1  A    between atoms: C_1  and  C_2
REMARK    2  A    between atoms: C_4  and  C_5
REMARK    3  A    between atoms: C_5  and  N_6
REMARK    4  A    between atoms: C_9  and  C_10
REMARK                            x       y       z     vdW  Elec       q    Type
REMARK                         _______ _______ _______ _____ _____    ______ ____
ROOT
ATOM      1  N   UNL     1       5.133   4.206  18.332  0.00  0.00    +0.000 N 
ATOM      2  N   UNL     1       5.195   3.383  19.400  0.00  0.00    +0.000 NA
ATOM      3  N   UNL     1       3.933   3.192  19.755  0.00  0.00    +0.000 NA
ATOM      4  C   UNL     1       3.167   3.916  18.880  0.00  0.00    +0.000 A 
ATOM      5  N   UNL     1       3.887   4.564  17.954  0.00  0.00    +0.000 NA
ENDROOT
BRANCH   4   6
ATOM      6  C   UNL     1       1.659   4.044  18.972  0.00  0.00    +0.000 C 
ATOM      7  C   UNL     1       0.822   2.810  19.240  0.00  0.00    +0.000 C 
ATOM      8  C   UNL     1       1.013   3.813  20.326  0.00  0.00    +0.000 C 
ENDBRANCH   4   6
BRANCH   1   9
ATOM      9  C   UNL     1       6.313   4.890  17.843  0.00  0.00    +0.000 C 
BRANCH   9  13
ATOM     10  C   UNL     1       6.416   3.719  12.876  0.00  0.00    +0.000 C 
ATOM     11  C   UNL     1       6.570   4.295  14.229  0.00  0.00    +0.000 A 
ATOM     12  C   UNL     1       5.951   3.892  15.434  0.00  0.00    +0.000 A 
ATOM     13  C   UNL     1       6.458   4.751  16.381  0.00  0.00    +0.000 A 
ATOM     14  O   UNL     1       7.321   5.614  15.781  0.00  0.00    +0.000 OA
ATOM     15  N   UNL     1       7.394   5.330  14.430  0.00  0.00    +0.000 NA
ENDBRANCH   9  13
ENDBRANCH   1   9
TORSDOF 3
ENDMDL
MODEL 4
REMARK VINA RESULT:      -6.7      0.893      1.411
REMARK  Name = 
REMARK  4 active torsions:
REMARK  status: ('A' for Active; 'I' for Inactive)
REMARK    1  A    between atoms: C_1  and  C_2
REMARK    2  A    between atoms: C_4  and  C_5
REMARK    3  A    between atoms: C_5  and  N_6
REMARK    4  A    between atoms: C_9  and  C_10
REMARK                            x       y       z     vdW  Elec       q    Type
REMARK                         _______ _______ _______ _____ _____    ______ ____
ROOT
ATOM      1  N   UNL     1       5.072   4.999  18.415  0.00  0.00    +0.000 N 
ATOM      2  N   UNL     1       5.570   3.857  18.933  0.00  0.00    +0.000 NA
ATOM      3  N   UNL     1       4.636   3.427  19.769  0.00  0.00    +0.000 NA
ATOM      4  C   UNL     1       3.615   4.339  19.714  0.00  0.00    +0.000 A 
ATOM      5  N   UNL     1       3.845   5.345  18.860  0.00  0.00    +0.000 NA
ENDROOT
BRANCH   4   6
ATOM      6  C   UNL     1       2.370   4.276  20.579  0.00  0.00    +0.000 C 
ATOM      7  C   UNL     1       1.368   3.161  20.360  0.00  0.00    +0.000 C 
ATOM      8  C   UNL     1       2.251   3.125  21.561  0.00  0.00    +0.000 C 
ENDBRANCH   4   6
BRANCH   1   9
ATOM      9  C   UNL     1       5.918   5.926  17.690  0.00  0.00    +0.000 C 
BRANCH   9  13
ATOM     10  C   UNL     1       6.311   3.767  13.082  0.00  0.00    +0.000 C 
ATOM     11  C   UNL     1       6.458   4.541  14.333  0.00  0.00    +0.000 A 
ATOM     12  C   UNL     1       5.582   4.601  15.441  0.00  0.00    +0.000 A 
ATOM     13  C   UNL     1       6.208   5.449  16.325  0.00  0.00    +0.000 A 
ATOM     14  O   UNL     1       7.380   5.873  15.780  0.00  0.00    +0.000 OA
ATOM     15  N   UNL     1       7.540   5.304  14.530  0.00  0.00    +0.000 NA
ENDBRANCH   9  13
ENDBRANCH   1   9
TORSDOF 3
ENDMDL
MODEL 5
REMARK VINA RESULT:      -6.5      1.764      2.255
REMARK  Name = 
REMARK  4 active torsions:
REMARK  status: ('A' for Active; 'I' for Inactive)
REMARK    1  A    between atoms: C_1  and  C_2
REMARK    2  A    between atoms: C_4  and  C_5
REMARK    3  A    between atoms: C_5  and  N_6
REMARK    4  A    between atoms: C_9  and  C_10
REMARK                            x       y       z     vdW  Elec       q    Type
REMARK                         _______ _______ _______ _____ _____    ______ ____
ROOT
ATOM      1  N   UNL     1       5.612   4.633  18.004  0.00  0.00    +0.000 N 
ATOM      2  N   UNL     1       5.375   4.005  19.175  0.00  0.00    +0.000 NA
ATOM      3  N   UNL     1       4.181   4.435  19.555  0.00  0.00    +0.000 NA
ATOM      4  C   UNL     1       3.756   5.308  18.590  0.00  0.00    +0.000 A 
ATOM      5  N   UNL     1       4.627   5.454  17.583  0.00  0.00    +0.000 NA
ENDROOT
BRANCH   4   6
ATOM      6  C   UNL     1       2.463   6.099  18.667  0.00  0.00    +0.000 C 
ATOM      7  C   UNL     1       2.189   6.960  19.882  0.00  0.00    +0.000 C 
ATOM      8  C   UNL     1       2.555   7.612  18.592  0.00  0.00    +0.000 C 
ENDBRANCH   4   6
BRANCH   1   9
ATOM      9  C   UNL     1       6.940   4.660  17.423  0.00  0.00    +0.000 C 
BRANCH   9  13
ATOM     10  C   UNL     1       6.414   3.739  12.430  0.00  0.00    +0.000 C 
ATOM     11  C   UNL     1       6.730   4.253  13.780  0.00  0.00    +0.000 A 
ATOM     12  C   UNL     1       6.288   3.769  15.033  0.00  0.00    +0.000 A 
ATOM     13  C   UNL     1       6.893   4.598  15.950  0.00  0.00    +0.000 A 
ATOM     14  O   UNL     1       7.642   5.521  15.288  0.00  0.00    +0.000 OA
ATOM     15  N   UNL     1       7.543   5.305  13.926  0.00  0.00    +0.000 NA
ENDBRANCH   9  13
ENDBRANCH   1   9
TORSDOF 3
ENDMDL
MODEL 6
REMARK VINA RESULT:      -6.4      1.007      1.107
REMARK  Name = 
REMARK  4 active torsions:
REMARK  status: ('A' for Active; 'I' for Inactive)
REMARK    1  A    between atoms: C_1  and  C_2
REMARK    2  A    between atoms: C_4  and  C_5
REMARK    3  A    between atoms: C_5  and  N_6
REMARK    4  A    between atoms: C_9  and  C_10
REMARK                            x       y       z     vdW  Elec       q    Type
REMARK                         _______ _______ _______ _____ _____    ______ ____
ROOT
ATOM      1  N   UNL     1       4.569   5.862  18.195  0.00  0.00    +0.000 N 
ATOM      2  N   UNL     1       3.413   6.449  17.819  0.00  0.00    +0.000 NA
ATOM      3  N   UNL     1       2.463   5.619  18.225  0.00  0.00    +0.000 NA
ATOM      4  C   UNL     1       3.098   4.565  18.827  0.00  0.00    +0.000 A 
ATOM      5  N   UNL     1       4.432   4.684  18.841  0.00  0.00    +0.000 NA
ENDROOT
BRANCH   4   6
ATOM      6  C   UNL     1       2.386   3.340  19.368  0.00  0.00    +0.000 C 
ATOM      7  C   UNL     1       0.969   3.471  19.887  0.00  0.00    +0.000 C 
ATOM      8  C   UNL     1       1.208   2.801  18.577  0.00  0.00    +0.000 C 
ENDBRANCH   4   6
BRANCH   1   9
ATOM      9  C   UNL     1       5.843   6.308  17.667  0.00  0.00    +0.000 C 
BRANCH   9  13
ATOM     10  C   UNL     1       6.192   3.754  13.262  0.00  0.00    +0.000 C 
ATOM     11  C   UNL     1       6.376   4.595  14.464  0.00  0.00    +0.000 A 
ATOM     12  C   UNL     1       5.451   4.872  15.496  0.00  0.00    +0.000 A 
ATOM     13  C   UNL     1       6.143   5.685  16.364  0.00  0.00    +0.000 A 
ATOM     14  O   UNL     1       7.398   5.886  15.880  0.00  0.00    +0.000 OA
ATOM     15  N   UNL     1       7.548   5.201  14.688  0.00  0.00    +0.000 NA
ENDBRANCH   9  13
ENDBRANCH   1   9
TORSDOF 3
ENDMDL
MODEL 7
REMARK VINA RESULT:      -6.3      1.774      5.651
REMARK  Name = 
REMARK  4 active torsions:
REMARK  status: ('A' for Active; 'I' for Inactive)
REMARK    1  A    between atoms: C_1  and  C_2
REMARK    2  A    between atoms: C_4  and  C_5
REMARK    3  A    between atoms: C_5  and  N_6
REMARK    4  A    between atoms: C_9  and  C_10
REMARK                            x       y       z     vdW  Elec       q    Type
REMARK                         _______ _______ _______ _____ _____    ______ ____
ROOT
ATOM      1  N   UNL     1       5.942   6.149  15.998  0.00  0.00    +0.000 N 
ATOM      2  N   UNL     1       7.288   6.069  16.031  0.00  0.00    +0.000 NA
ATOM      3  N   UNL     1       7.595   5.138  15.141  0.00  0.00    +0.000 NA
ATOM      4  C   UNL     1       6.410   4.698  14.613  0.00  0.00    +0.000 A 
ATOM      5  N   UNL     1       5.338   5.320  15.119  0.00  0.00    +0.000 NA
ENDROOT
BRANCH   4   6
ATOM      6  C   UNL     1       6.294   3.569  13.606  0.00  0.00    +0.000 C 
ATOM      7  C   UNL     1       5.254   3.655  12.507  0.00  0.00    +0.000 C 
ATOM      8  C   UNL     1       6.692   3.860  12.170  0.00  0.00    +0.000 C 
ENDBRANCH   4   6
BRANCH   1   9
ATOM      9  C   UNL     1       5.205   6.835  17.041  0.00  0.00    +0.000 C 
BRANCH   9  13
ATOM     10  C   UNL     1       2.584   4.109  20.469  0.00  0.00    +0.000 C 
ATOM     11  C   UNL     1       3.553   4.671  19.505  0.00  0.00    +0.000 A 
ATOM     12  C   UNL     1       3.421   5.817  18.688  0.00  0.00    +0.000 A 
ATOM     13  C   UNL     1       4.614   5.889  18.006  0.00  0.00    +0.000 A 
ATOM     14  O   UNL     1       5.406   4.850  18.386  0.00  0.00    +0.000 OA
ATOM     15  N   UNL     1       4.743   4.085  19.328  0.00  0.00    +0.000 NA
ENDBRANCH   9  13
ENDBRANCH   1   9
TORSDOF 3
ENDMDL
MODEL 8
REMARK VINA RESULT:      -6.3      2.207      3.233
REMARK  Name = 
REMARK  4 active torsions:
REMARK  status: ('A' for Active; 'I' for Inactive)
REMARK    1  A    between atoms: C_1  and  C_2
REMARK    2  A    between atoms: C_4  and  C_5
REMARK    3  A    between atoms: C_5  and  N_6
REMARK    4  A    between atoms: C_9  and  C_10
REMARK                            x       y       z     vdW  Elec       q    Type
REMARK                         _______ _______ _______ _____ _____    ______ ____
ROOT
ATOM      1  N   UNL     1       3.957   3.483  17.320  0.00  0.00    +0.000 N 
ATOM      2  N   UNL     1       3.848   2.217  17.775  0.00  0.00    +0.000 NA
ATOM      3  N   UNL     1       2.901   2.269  18.699  0.00  0.00    +0.000 NA
ATOM      4  C   UNL     1       2.484   3.572  18.758  0.00  0.00    +0.000 A 
ATOM      5  N   UNL     1       3.119   4.374  17.893  0.00  0.00    +0.000 NA
ENDROOT
BRANCH   4   6
ATOM      6  C   UNL     1       1.459   4.094  19.747  0.00  0.00    +0.000 C 
ATOM      7  C   UNL     1       1.247   3.361  21.056  0.00  0.00    +0.000 C 
ATOM      8  C   UNL     1       1.969   4.666  21.057  0.00  0.00    +0.000 C 
ENDBRANCH   4   6
BRANCH   1   9
ATOM      9  C   UNL     1       5.092   3.898  16.519  0.00  0.00    +0.000 C 
BRANCH   9  13
ATOM     10  C   UNL     1       8.195   7.459  18.453  0.00  0.00    +0.000 C 
ATOM     11  C   UNL     1       7.360   6.276  18.158  0.00  0.00    +0.000 A 
ATOM     12  C   UNL     1       6.502   6.055  17.056  0.00  0.00    +0.000 A 
ATOM     13  C   UNL     1       5.991   4.796  17.269  0.00  0.00    +0.000 A 
ATOM     14  O   UNL     1       6.505   4.298  18.426  0.00  0.00    +0.000 OA
ATOM     15  N   UNL     1       7.365   5.224  18.985  0.00  0.00    +0.000 NA
ENDBRANCH   9  13
ENDBRANCH   1   9
TORSDOF 3
ENDMDL
MODEL 9
REMARK VINA RESULT:      -6.3      1.381      1.704
REMARK  Name = 
REMARK  4 active torsions:
REMARK  status: ('A' for Active; 'I' for Inactive)
REMARK    1  A    between atoms: C_1  and  C_2
REMARK    2  A    between atoms: C_4  and  C_5
REMARK    3  A    between atoms: C_5  and  N_6
REMARK    4  A    between atoms: C_9  and  C_10
REMARK                            x       y       z     vdW  Elec       q    Type
REMARK                         _______ _______ _______ _____ _____    ______ ____
ROOT
ATOM      1  N   UNL     1       6.136   4.600  17.491  0.00  0.00    +0.000 N 
ATOM      2  N   UNL     1       6.561   4.340  18.745  0.00  0.00    +0.000 NA
ATOM      3  N   UNL     1       5.490   3.889  19.380  0.00  0.00    +0.000 NA
ATOM      4  C   UNL     1       4.464   3.902  18.473  0.00  0.00    +0.000 A 
ATOM      5  N   UNL     1       4.832   4.334  17.260  0.00  0.00    +0.000 NA
ENDROOT
BRANCH   4   6
ATOM      6  C   UNL     1       3.030   3.535  18.804  0.00  0.00    +0.000 C 
ATOM      7  C   UNL     1       2.198   2.786  17.783  0.00  0.00    +0.000 C 
ATOM      8  C   UNL     1       2.701   2.065  18.987  0.00  0.00    +0.000 C 
ENDBRANCH   4   6
BRANCH   1   9
ATOM      9  C   UNL     1       6.935   5.392  16.577  0.00  0.00    +0.000 C 
BRANCH   9  13
ATOM     10  C   UNL     1       6.033   3.161  12.075  0.00  0.00    +0.000 C 
ATOM     11  C   UNL     1       6.489   3.986  13.214  0.00  0.00    +0.000 A 
ATOM     12  C   UNL     1       6.039   3.965  14.554  0.00  0.00    +0.000 A 
ATOM     13  C   UNL     1       6.808   4.914  15.187  0.00  0.00    +0.000 A 
ATOM     14  O   UNL     1       7.659   5.470  14.283  0.00  0.00    +0.000 OA
ATOM     15  N   UNL     1       7.462   4.889  13.045  0.00  0.00    +0.000 NA
ENDBRANCH   9  13
ENDBRANCH   1   9
TORSDOF 3
ENDMDL
