MODEL 1
REMARK VINA RESULT:      -7.7      0.000      0.000
REMARK  Name = 
REMARK  12 active torsions:
REMARK  status: ('A' for Active; 'I' for Inactive)
REMARK    1  A    between atoms: C_1  and  C_2
REMARK    2  A    between atoms: C_7  and  N_8
REMARK    3  A    between atoms: C_9  and  C_11
REMARK    4  A    between atoms: C_11  and  C_12
REMARK    5  A    between atoms: C_14  and  C_15
REMARK    6  A    between atoms: C_15  and  O_16
REMARK    7  A    between atoms: O_16  and  C_17
REMARK    8  A    between atoms: C_17  and  C_19
REMARK    9  A    between atoms: C_19  and  O_20
REMARK   10  A    between atoms: O_20  and  C_21
REMARK   11  A    between atoms: C_25  and  C_26
REMARK   12  A    between atoms: C_27  and  C_28
REMARK                            x       y       z     vdW  Elec       q    Type
REMARK                         _______ _______ _______ _____ _____    ______ ____
ROOT
ATOM      1  C   UNL     1       4.459   4.355  18.923  0.00  0.00    +0.000 A 
ATOM      2  N   UNL     1       5.611   4.989  18.829  0.00  0.00    +0.000 NA
ATOM      3  C   UNL     1       6.210   4.695  17.614  0.00  0.00    +0.000 A 
ATOM      4  C   UNL     1       5.463   3.873  16.787  0.00  0.00    +0.000 A 
ATOM      5  S   UNL     1       3.997   3.436  17.549  0.00  0.00    +0.000 S 
ENDROOT
BRANCH   1   6
ATOM      6  C   UNL     1       3.618   4.372  20.148  0.00  0.00    +0.000 C 
BRANCH   6   8
ATOM      7  N   UNL     1       2.811   6.695  20.186  0.00  0.00    +0.000 N 
ATOM      8  C   UNL     1       2.482   5.354  19.969  0.00  0.00    +0.000 C 
ATOM      9  O   UNL     1       1.371   4.915  19.668  0.00  0.00    +0.000 OA
ATOM     10  H   UNL     1       3.801   6.915  20.221  0.00  0.00    +0.000 HD
BRANCH   7  17
ATOM     11  C   UNL     1       2.615   8.325  17.644  0.00  0.00    +0.000 C 
ATOM     12  C   UNL     1       1.783   8.535  18.885  0.00  0.00    +0.000 A 
ATOM     13  C   UNL     1       0.824   9.571  18.822  0.00  0.00    +0.000 A 
ATOM     14  C   UNL     1      -0.008   9.858  19.900  0.00  0.00    +0.000 A 
ATOM     15  C   UNL     1       0.131   9.146  21.078  0.00  0.00    +0.000 A 
ATOM     16  C   UNL     1       1.088   8.134  21.165  0.00  0.00    +0.000 A 
ATOM     17  C   UNL     1       1.903   7.790  20.076  0.00  0.00    +0.000 A 
ENDBRANCH   7  17
ENDBRANCH   6   8
ENDBRANCH   1   6
BRANCH   3  18
ATOM     18  C   UNL     1       7.574   5.247  17.326  0.00  0.00    +0.000 C 
BRANCH  18  19
ATOM     19  O   UNL     1       7.864   6.313  18.241  0.00  0.00    +0.000 OA
BRANCH  19  20
ATOM     20  C   UNL     1       7.604   7.563  17.778  0.00  0.00    +0.000 C 
ATOM     21  O   UNL     1       6.808   7.834  16.889  0.00  0.00    +0.000 OA
BRANCH  20  22
ATOM     22  C   UNL     1       8.543   8.564  18.428  0.00  0.00    +0.000 C 
BRANCH  22  23
ATOM     23  O   UNL     1       8.304   9.886  17.986  0.00  0.00    +0.000 OA
BRANCH  23  24
ATOM     24  C   UNL     1       9.091  10.872  18.543  0.00  0.00    +0.000 A 
ATOM     25  C   UNL     1      10.130  10.639  19.445  0.00  0.00    +0.000 A 
ATOM     26  C   UNL     1      10.879  11.699  19.955  0.00  0.00    +0.000 A 
ATOM     27  C   UNL     1      10.583  13.007  19.568  0.00  0.00    +0.000 A 
ATOM     28  C   UNL     1       9.541  13.270  18.666  0.00  0.00    +0.000 A 
ATOM     29  C   UNL     1       9.273  14.702  18.282  0.00  0.00    +0.000 C 
ATOM     30  C   UNL     1       8.783  12.196  18.145  0.00  0.00    +0.000 A 
ATOM     31  C   UNL     1       7.665  12.416  17.157  0.00  0.00    +0.000 C 
ENDBRANCH  23  24
ENDBRANCH  22  23
ENDBRANCH  20  22
ENDBRANCH  19  20
ENDBRANCH  18  19
ENDBRANCH   3  18
TORSDOF 9
ENDMDL
MODEL 2
REMARK VINA RESULT:      -7.4      3.062      4.401
REMARK  Name = 
REMARK  12 active torsions:
REMARK  status: ('A' for Active; 'I' for Inactive)
REMARK    1  A    between atoms: C_1  and  C_2
REMARK    2  A    between atoms: C_7  and  N_8
REMARK    3  A    between atoms: C_9  and  C_11
REMARK    4  A    between atoms: C_11  and  C_12
REMARK    5  A    between atoms: C_14  and  C_15
REMARK    6  A    between atoms: C_15  and  O_16
REMARK    7  A    between atoms: O_16  and  C_17
REMARK    8  A    between atoms: C_17  and  C_19
REMARK    9  A    between atoms: C_19  and  O_20
REMARK   10  A    between atoms: O_20  and  C_21
REMARK   11  A    between atoms: C_25  and  C_26
REMARK   12  A    between atoms: C_27  and  C_28
REMARK                            x       y       z     vdW  Elec       q    Type
REMARK                         _______ _______ _______ _____ _____    ______ ____
ROOT
ATOM      1  C   UNL     1       6.550   6.366  17.362  0.00  0.00    +0.000 A 
ATOM      2  N   UNL     1       6.871   7.602  17.036  0.00  0.00    +0.000 NA
ATOM      3  C   UNL     1       7.876   8.062  17.872  0.00  0.00    +0.000 A 
ATOM      4  C   UNL     1       8.332   7.131  18.791  0.00  0.00    +0.000 A 
ATOM      5  S   UNL     1       7.472   5.664  18.628  0.00  0.00    +0.000 S 
ENDROOT
BRANCH   1   6
ATOM      6  C   UNL     1       5.431   5.622  16.728  0.00  0.00    +0.000 C 
BRANCH   6   8
ATOM      7  N   UNL     1       4.120   4.132  18.180  0.00  0.00    +0.000 N 
ATOM      8  C   UNL     1       4.312   5.440  17.728  0.00  0.00    +0.000 C 
ATOM      9  O   UNL     1       3.653   6.428  18.055  0.00  0.00    +0.000 OA
ATOM     10  H   UNL     1       4.867   3.473  17.981  0.00  0.00    +0.000 HD
BRANCH   7  17
ATOM     11  C   UNL     1       1.189   4.063  17.434  0.00  0.00    +0.000 C 
ATOM     12  C   UNL     1       1.762   3.660  18.771  0.00  0.00    +0.000 A 
ATOM     13  C   UNL     1       0.833   3.194  19.729  0.00  0.00    +0.000 A 
ATOM     14  C   UNL     1       1.240   2.788  20.997  0.00  0.00    +0.000 A 
ATOM     15  C   UNL     1       2.575   2.881  21.348  0.00  0.00    +0.000 A 
ATOM     16  C   UNL     1       3.502   3.359  20.420  0.00  0.00    +0.000 A 
ATOM     17  C   UNL     1       3.127   3.726  19.119  0.00  0.00    +0.000 A 
ENDBRANCH   7  17
ENDBRANCH   6   8
ENDBRANCH   1   6
BRANCH   3  18
ATOM     18  C   UNL     1       8.343   9.480  17.734  0.00  0.00    +0.000 C 
BRANCH  18  19
ATOM     19  O   UNL     1       8.574  10.040  19.034  0.00  0.00    +0.000 OA
BRANCH  19  20
ATOM     20  C   UNL     1       9.732  10.738  19.169  0.00  0.00    +0.000 C 
ATOM     21  O   UNL     1      10.361  10.862  20.211  0.00  0.00    +0.000 OA
BRANCH  20  22
ATOM     22  C   UNL     1      10.060  11.456  17.873  0.00  0.00    +0.000 C 
BRANCH  22  23
ATOM     23  O   UNL     1      10.145  12.857  18.045  0.00  0.00    +0.000 OA
BRANCH  23  24
ATOM     24  C   UNL     1       8.957  13.524  18.255  0.00  0.00    +0.000 A 
ATOM     25  C   UNL     1       7.849  13.450  17.409  0.00  0.00    +0.000 A 
ATOM     26  C   UNL     1       6.683  14.157  17.701  0.00  0.00    +0.000 A 
ATOM     27  C   UNL     1       6.624  14.954  18.846  0.00  0.00    +0.000 A 
ATOM     28  C   UNL     1       7.724  15.050  19.711  0.00  0.00    +0.000 A 
ATOM     29  C   UNL     1       7.598  15.921  20.933  0.00  0.00    +0.000 C 
ATOM     30  C   UNL     1       8.905  14.331  19.418  0.00  0.00    +0.000 A 
ATOM     31  C   UNL     1      10.112  14.379  20.321  0.00  0.00    +0.000 C 
ENDBRANCH  23  24
ENDBRANCH  22  23
ENDBRANCH  20  22
ENDBRANCH  19  20
ENDBRANCH  18  19
ENDBRANCH   3  18
TORSDOF 9
ENDMDL
MODEL 3
REMARK VINA RESULT:      -7.3      3.256      4.892
REMARK  Name = 
REMARK  12 active torsions:
REMARK  status: ('A' for Active; 'I' for Inactive)
REMARK    1  A    between atoms: C_1  and  C_2
REMARK    2  A    between atoms: C_7  and  N_8
REMARK    3  A    between atoms: C_9  and  C_11
REMARK    4  A    between atoms: C_11  and  C_12
REMARK    5  A    between atoms: C_14  and  C_15
REMARK    6  A    between atoms: C_15  and  O_16
REMARK    7  A    between atoms: O_16  and  C_17
REMARK    8  A    between atoms: C_17  and  C_19
REMARK    9  A    between atoms: C_19  and  O_20
REMARK   10  A    between atoms: O_20  and  C_21
REMARK   11  A    between atoms: C_25  and  C_26
REMARK   12  A    between atoms: C_27  and  C_28
REMARK                            x       y       z     vdW  Elec       q    Type
REMARK                         _______ _______ _______ _____ _____    ______ ____
ROOT
ATOM      1  C   UNL     1       6.822   6.328  17.277  0.00  0.00    +0.000 A 
ATOM      2  N   UNL     1       7.099   7.583  16.986  0.00  0.00    +0.000 NA
ATOM      3  C   UNL     1       7.972   8.103  17.928  0.00  0.00    +0.000 A 
ATOM      4  C   UNL     1       8.380   7.200  18.895  0.00  0.00    +0.000 A 
ATOM      5  S   UNL     1       7.639   5.681  18.641  0.00  0.00    +0.000 S 
ENDROOT
BRANCH   1   6
ATOM      6  C   UNL     1       5.832   5.516  16.524  0.00  0.00    +0.000 C 
BRANCH   6   8
ATOM      7  N   UNL     1       4.358   4.378  18.131  0.00  0.00    +0.000 N 
ATOM      8  C   UNL     1       4.526   5.477  17.285  0.00  0.00    +0.000 C 
ATOM      9  O   UNL     1       3.713   6.383  17.099  0.00  0.00    +0.000 OA
ATOM     10  H   UNL     1       5.193   3.834  18.332  0.00  0.00    +0.000 HD
BRANCH   7  17
ATOM     11  C   UNL     1       2.521   2.037  17.583  0.00  0.00    +0.000 C 
ATOM     12  C   UNL     1       2.366   3.026  18.712  0.00  0.00    +0.000 A 
ATOM     13  C   UNL     1       1.277   2.806  19.586  0.00  0.00    +0.000 A 
ATOM     14  C   UNL     1       1.032   3.647  20.668  0.00  0.00    +0.000 A 
ATOM     15  C   UNL     1       1.843   4.748  20.874  0.00  0.00    +0.000 A 
ATOM     16  C   UNL     1       2.910   4.993  20.007  0.00  0.00    +0.000 A 
ATOM     17  C   UNL     1       3.210   4.133  18.941  0.00  0.00    +0.000 A 
ENDBRANCH   7  17
ENDBRANCH   6   8
ENDBRANCH   1   6
BRANCH   3  18
ATOM     18  C   UNL     1       8.361   9.548  17.837  0.00  0.00    +0.000 C 
BRANCH  18  19
ATOM     19  O   UNL     1       9.354   9.842  18.830  0.00  0.00    +0.000 OA
BRANCH  19  20
ATOM     20  C   UNL     1       9.450  11.149  19.187  0.00  0.00    +0.000 C 
ATOM     21  O   UNL     1       9.596  12.083  18.409  0.00  0.00    +0.000 OA
BRANCH  20  22
ATOM     22  C   UNL     1       9.488  11.273  20.699  0.00  0.00    +0.000 C 
BRANCH  22  23
ATOM     23  O   UNL     1       9.054  12.544  21.142  0.00  0.00    +0.000 OA
BRANCH  23  24
ATOM     24  C   UNL     1       8.607  12.622  22.444  0.00  0.00    +0.000 A 
ATOM     25  C   UNL     1       7.926  11.601  23.109  0.00  0.00    +0.000 A 
ATOM     26  C   UNL     1       7.514  11.765  24.430  0.00  0.00    +0.000 A 
ATOM     27  C   UNL     1       7.776  12.964  25.095  0.00  0.00    +0.000 A 
ATOM     28  C   UNL     1       8.455  14.008  24.450  0.00  0.00    +0.000 A 
ATOM     29  C   UNL     1       8.713  15.276  25.221  0.00  0.00    +0.000 C 
ATOM     30  C   UNL     1       8.877  13.842  23.111  0.00  0.00    +0.000 A 
ATOM     31  C   UNL     1       9.628  14.921  22.373  0.00  0.00    +0.000 C 
ENDBRANCH  23  24
ENDBRANCH  22  23
ENDBRANCH  20  22
ENDBRANCH  19  20
ENDBRANCH  18  19
ENDBRANCH   3  18
TORSDOF 9
ENDMDL
MODEL 4
REMARK VINA RESULT:      -7.3      1.990      2.826
REMARK  Name = 
REMARK  12 active torsions:
REMARK  status: ('A' for Active; 'I' for Inactive)
REMARK    1  A    between atoms: C_1  and  C_2
REMARK    2  A    between atoms: C_7  and  N_8
REMARK    3  A    between atoms: C_9  and  C_11
REMARK    4  A    between atoms: C_11  and  C_12
REMARK    5  A    between atoms: C_14  and  C_15
REMARK    6  A    between atoms: C_15  and  O_16
REMARK    7  A    between atoms: O_16  and  C_17
REMARK    8  A    between atoms: C_17  and  C_19
REMARK    9  A    between atoms: C_19  and  O_20
REMARK   10  A    between atoms: O_20  and  C_21
REMARK   11  A    between atoms: C_25  and  C_26
REMARK   12  A    between atoms: C_27  and  C_28
REMARK                            x       y       z     vdW  Elec       q    Type
REMARK                         _______ _______ _______ _____ _____    ______ ____
ROOT
ATOM      1  C   UNL     1       3.451   6.161  18.155  0.00  0.00    +0.000 A 
ATOM      2  N   UNL     1       4.364   6.544  17.285  0.00  0.00    +0.000 NA
ATOM      3  C   UNL     1       5.605   6.056  17.661  0.00  0.00    +0.000 A 
ATOM      4  C   UNL     1       5.593   5.263  18.795  0.00  0.00    +0.000 A 
ATOM      5  S   UNL     1       4.007   5.144  19.422  0.00  0.00    +0.000 S 
ENDROOT
BRANCH   1   6
ATOM      6  C   UNL     1       2.035   6.606  18.100  0.00  0.00    +0.000 C 
BRANCH   6   8
ATOM      7  N   UNL     1       1.544   8.998  17.808  0.00  0.00    +0.000 N 
ATOM      8  C   UNL     1       1.914   7.988  18.700  0.00  0.00    +0.000 C 
ATOM      9  O   UNL     1       2.160   8.130  19.899  0.00  0.00    +0.000 OA
ATOM     10  H   UNL     1       1.178   8.693  16.911  0.00  0.00    +0.000 HD
BRANCH   7  17
ATOM     11  C   UNL     1      -1.098  10.040  18.851  0.00  0.00    +0.000 C 
ATOM     12  C   UNL     1       0.155  10.860  18.666  0.00  0.00    +0.000 A 
ATOM     13  C   UNL     1       0.068  12.221  19.039  0.00  0.00    +0.000 A 
ATOM     14  C   UNL     1       1.158  13.079  18.920  0.00  0.00    +0.000 A 
ATOM     15  C   UNL     1       2.343  12.606  18.386  0.00  0.00    +0.000 A 
ATOM     16  C   UNL     1       2.440  11.270  17.992  0.00  0.00    +0.000 A 
ATOM     17  C   UNL     1       1.373  10.372  18.149  0.00  0.00    +0.000 A 
ENDBRANCH   7  17
ENDBRANCH   6   8
ENDBRANCH   1   6
BRANCH   3  18
ATOM     18  C   UNL     1       6.809   6.440  16.854  0.00  0.00    +0.000 C 
BRANCH  18  19
ATOM     19  O   UNL     1       7.101   7.830  17.056  0.00  0.00    +0.000 OA
BRANCH  19  20
ATOM     20  C   UNL     1       8.014   8.098  18.025  0.00  0.00    +0.000 C 
ATOM     21  O   UNL     1       8.467   7.277  18.812  0.00  0.00    +0.000 OA
BRANCH  20  22
ATOM     22  C   UNL     1       8.290   9.589  18.082  0.00  0.00    +0.000 C 
BRANCH  22  23
ATOM     23  O   UNL     1       9.242   9.919  19.075  0.00  0.00    +0.000 OA
BRANCH  23  24
ATOM     24  C   UNL     1       9.903  11.119  18.919  0.00  0.00    +0.000 A 
ATOM     25  C   UNL     1      10.577  11.505  17.759  0.00  0.00    +0.000 A 
ATOM     26  C   UNL     1      11.217  12.742  17.686  0.00  0.00    +0.000 A 
ATOM     27  C   UNL     1      11.191  13.601  18.786  0.00  0.00    +0.000 A 
ATOM     28  C   UNL     1      10.525  13.237  19.966  0.00  0.00    +0.000 A 
ATOM     29  C   UNL     1      10.527  14.209  21.117  0.00  0.00    +0.000 C 
ATOM     30  C   UNL     1       9.872  11.985  20.039  0.00  0.00    +0.000 A 
ATOM     31  C   UNL     1       9.123  11.548  21.273  0.00  0.00    +0.000 C 
ENDBRANCH  23  24
ENDBRANCH  22  23
ENDBRANCH  20  22
ENDBRANCH  19  20
ENDBRANCH  18  19
ENDBRANCH   3  18
TORSDOF 9
ENDMDL
MODEL 5
REMARK VINA RESULT:      -7.3      4.558      7.244
REMARK  Name = 
REMARK  12 active torsions:
REMARK  status: ('A' for Active; 'I' for Inactive)
REMARK    1  A    between atoms: C_1  and  C_2
REMARK    2  A    between atoms: C_7  and  N_8
REMARK    3  A    between atoms: C_9  and  C_11
REMARK    4  A    between atoms: C_11  and  C_12
REMARK    5  A    between atoms: C_14  and  C_15
REMARK    6  A    between atoms: C_15  and  O_16
REMARK    7  A    between atoms: O_16  and  C_17
REMARK    8  A    between atoms: C_17  and  C_19
REMARK    9  A    between atoms: C_19  and  O_20
REMARK   10  A    between atoms: O_20  and  C_21
REMARK   11  A    between atoms: C_25  and  C_26
REMARK   12  A    between atoms: C_27  and  C_28
REMARK                            x       y       z     vdW  Elec       q    Type
REMARK                         _______ _______ _______ _____ _____    ______ ____
ROOT
ATOM      1  C   UNL     1       1.948   8.431  18.120  0.00  0.00    +0.000 A 
ATOM      2  N   UNL     1       2.947   8.138  17.313  0.00  0.00    +0.000 NA
ATOM      3  C   UNL     1       3.819   7.265  17.943  0.00  0.00    +0.000 A 
ATOM      4  C   UNL     1       3.426   6.874  19.212  0.00  0.00    +0.000 A 
ATOM      5  S   UNL     1       1.954   7.630  19.638  0.00  0.00    +0.000 S 
ENDROOT
BRANCH   1   6
ATOM      6  C   UNL     1       0.896   9.426  17.786  0.00  0.00    +0.000 C 
BRANCH   6   8
ATOM      7  N   UNL     1      -0.510  10.248  19.629  0.00  0.00    +0.000 N 
ATOM      8  C   UNL     1       0.705  10.372  18.950  0.00  0.00    +0.000 C 
ATOM      9  O   UNL     1       1.602  11.176  19.204  0.00  0.00    +0.000 OA
ATOM     10  H   UNL     1      -1.050   9.410  19.434  0.00  0.00    +0.000 HD
BRANCH   7  17
ATOM     11  C   UNL     1      -0.284   9.181  22.450  0.00  0.00    +0.000 C 
ATOM     12  C   UNL     1      -0.775  10.556  22.072  0.00  0.00    +0.000 A 
ATOM     13  C   UNL     1      -1.132  11.405  23.143  0.00  0.00    +0.000 A 
ATOM     14  C   UNL     1      -1.595  12.700  22.922  0.00  0.00    +0.000 A 
ATOM     15  C   UNL     1      -1.751  13.156  21.626  0.00  0.00    +0.000 A 
ATOM     16  C   UNL     1      -1.424  12.322  20.555  0.00  0.00    +0.000 A 
ATOM     17  C   UNL     1      -0.907  11.033  20.751  0.00  0.00    +0.000 A 
ENDBRANCH   7  17
ENDBRANCH   6   8
ENDBRANCH   1   6
BRANCH   3  18
ATOM     18  C   UNL     1       5.077   6.860  17.235  0.00  0.00    +0.000 C 
BRANCH  18  19
ATOM     19  O   UNL     1       4.746   6.177  16.018  0.00  0.00    +0.000 OA
BRANCH  19  20
ATOM     20  C   UNL     1       5.647   5.246  15.609  0.00  0.00    +0.000 C 
ATOM     21  O   UNL     1       6.482   5.413  14.730  0.00  0.00    +0.000 OA
BRANCH  20  22
ATOM     22  C   UNL     1       5.378   3.924  16.304  0.00  0.00    +0.000 C 
BRANCH  22  23
ATOM     23  O   UNL     1       4.017   3.773  16.658  0.00  0.00    +0.000 OA
BRANCH  23  24
ATOM     24  C   UNL     1       3.758   3.408  17.962  0.00  0.00    +0.000 A 
ATOM     25  C   UNL     1       4.685   2.806  18.814  0.00  0.00    +0.000 A 
ATOM     26  C   UNL     1       4.337   2.474  20.123  0.00  0.00    +0.000 A 
ATOM     27  C   UNL     1       3.047   2.739  20.586  0.00  0.00    +0.000 A 
ATOM     28  C   UNL     1       2.094   3.340  19.750  0.00  0.00    +0.000 A 
ATOM     29  C   UNL     1       0.720   3.605  20.308  0.00  0.00    +0.000 C 
ATOM     30  C   UNL     1       2.446   3.681  18.424  0.00  0.00    +0.000 A 
ATOM     31  C   UNL     1       1.472   4.346  17.486  0.00  0.00    +0.000 C 
ENDBRANCH  23  24
ENDBRANCH  22  23
ENDBRANCH  20  22
ENDBRANCH  19  20
ENDBRANCH  18  19
ENDBRANCH   3  18
TORSDOF 9
ENDMDL
MODEL 6
REMARK VINA RESULT:      -7.3      4.724      7.372
REMARK  Name = 
REMARK  12 active torsions:
REMARK  status: ('A' for Active; 'I' for Inactive)
REMARK    1  A    between atoms: C_1  and  C_2
REMARK    2  A    between atoms: C_7  and  N_8
REMARK    3  A    between atoms: C_9  and  C_11
REMARK    4  A    between atoms: C_11  and  C_12
REMARK    5  A    between atoms: C_14  and  C_15
REMARK    6  A    between atoms: C_15  and  O_16
REMARK    7  A    between atoms: O_16  and  C_17
REMARK    8  A    between atoms: C_17  and  C_19
REMARK    9  A    between atoms: C_19  and  O_20
REMARK   10  A    between atoms: O_20  and  C_21
REMARK   11  A    between atoms: C_25  and  C_26
REMARK   12  A    between atoms: C_27  and  C_28
REMARK                            x       y       z     vdW  Elec       q    Type
REMARK                         _______ _______ _______ _____ _____    ______ ____
ROOT
ATOM      1  C   UNL     1       0.688  10.762  20.340  0.00  0.00    +0.000 A 
ATOM      2  N   UNL     1       1.135   9.587  19.947  0.00  0.00    +0.000 NA
ATOM      3  C   UNL     1       0.967   8.658  20.962  0.00  0.00    +0.000 A 
ATOM      4  C   UNL     1       0.344   9.150  22.096  0.00  0.00    +0.000 A 
ATOM      5  S   UNL     1      -0.017  10.809  21.905  0.00  0.00    +0.000 S 
ENDROOT
BRANCH   1   6
ATOM      6  C   UNL     1       0.819  11.998  19.525  0.00  0.00    +0.000 C 
BRANCH   6   8
ATOM      7  N   UNL     1      -1.520  11.378  19.087  0.00  0.00    +0.000 N 
ATOM      8  C   UNL     1      -0.502  12.308  18.859  0.00  0.00    +0.000 C 
ATOM      9  O   UNL     1      -0.584  13.323  18.165  0.00  0.00    +0.000 OA
ATOM     10  H   UNL     1      -1.362  10.715  19.839  0.00  0.00    +0.000 HD
BRANCH   7  17
ATOM     11  C   UNL     1      -2.237  10.113  16.433  0.00  0.00    +0.000 C 
ATOM     12  C   UNL     1      -3.193  10.850  17.339  0.00  0.00    +0.000 A 
ATOM     13  C   UNL     1      -4.534  10.922  16.899  0.00  0.00    +0.000 A 
ATOM     14  C   UNL     1      -5.511  11.570  17.650  0.00  0.00    +0.000 A 
ATOM     15  C   UNL     1      -5.160  12.197  18.832  0.00  0.00    +0.000 A 
ATOM     16  C   UNL     1      -3.835  12.154  19.270  0.00  0.00    +0.000 A 
ATOM     17  C   UNL     1      -2.842  11.464  18.559  0.00  0.00    +0.000 A 
ENDBRANCH   7  17
ENDBRANCH   6   8
ENDBRANCH   1   6
BRANCH   3  18
ATOM     18  C   UNL     1       1.483   7.264  20.762  0.00  0.00    +0.000 C 
BRANCH  18  19
ATOM     19  O   UNL     1       2.358   7.234  19.625  0.00  0.00    +0.000 OA
BRANCH  19  20
ATOM     20  C   UNL     1       2.488   6.023  19.024  0.00  0.00    +0.000 C 
ATOM     21  O   UNL     1       1.965   5.703  17.964  0.00  0.00    +0.000 OA
BRANCH  20  22
ATOM     22  C   UNL     1       3.262   5.076  19.923  0.00  0.00    +0.000 C 
BRANCH  22  23
ATOM     23  O   UNL     1       4.074   4.183  19.185  0.00  0.00    +0.000 OA
BRANCH  23  24
ATOM     24  C   UNL     1       5.245   4.698  18.672  0.00  0.00    +0.000 A 
ATOM     25  C   UNL     1       6.194   5.399  19.417  0.00  0.00    +0.000 A 
ATOM     26  C   UNL     1       7.356   5.882  18.816  0.00  0.00    +0.000 A 
ATOM     27  C   UNL     1       7.570   5.670  17.453  0.00  0.00    +0.000 A 
ATOM     28  C   UNL     1       6.631   4.972  16.678  0.00  0.00    +0.000 A 
ATOM     29  C   UNL     1       6.921   4.770  15.214  0.00  0.00    +0.000 C 
ATOM     30  C   UNL     1       5.455   4.478  17.288  0.00  0.00    +0.000 A 
ATOM     31  C   UNL     1       4.420   3.704  16.512  0.00  0.00    +0.000 C 
ENDBRANCH  23  24
ENDBRANCH  22  23
ENDBRANCH  20  22
ENDBRANCH  19  20
ENDBRANCH  18  19
ENDBRANCH   3  18
TORSDOF 9
ENDMDL
MODEL 7
REMARK VINA RESULT:      -7.3      3.950      6.227
REMARK  Name = 
REMARK  12 active torsions:
REMARK  status: ('A' for Active; 'I' for Inactive)
REMARK    1  A    between atoms: C_1  and  C_2
REMARK    2  A    between atoms: C_7  and  N_8
REMARK    3  A    between atoms: C_9  and  C_11
REMARK    4  A    between atoms: C_11  and  C_12
REMARK    5  A    between atoms: C_14  and  C_15
REMARK    6  A    between atoms: C_15  and  O_16
REMARK    7  A    between atoms: O_16  and  C_17
REMARK    8  A    between atoms: C_17  and  C_19
REMARK    9  A    between atoms: C_19  and  O_20
REMARK   10  A    between atoms: O_20  and  C_21
REMARK   11  A    between atoms: C_25  and  C_26
REMARK   12  A    between atoms: C_27  and  C_28
REMARK                            x       y       z     vdW  Elec       q    Type
REMARK                         _______ _______ _______ _____ _____    ______ ____
ROOT
ATOM      1  C   UNL     1       1.877   6.789  20.385  0.00  0.00    +0.000 A 
ATOM      2  N   UNL     1       1.499   5.602  20.815  0.00  0.00    +0.000 NA
ATOM      3  C   UNL     1       1.585   4.681  19.784  0.00  0.00    +0.000 A 
ATOM      4  C   UNL     1       2.079   5.190  18.595  0.00  0.00    +0.000 A 
ATOM      5  S   UNL     1       2.419   6.857  18.758  0.00  0.00    +0.000 S 
ENDROOT
BRANCH   1   6
ATOM      6  C   UNL     1       1.800   8.019  21.216  0.00  0.00    +0.000 C 
BRANCH   6   8
ATOM      7  N   UNL     1       0.777   9.596  19.630  0.00  0.00    +0.000 N 
ATOM      8  C   UNL     1       0.604   8.842  20.793  0.00  0.00    +0.000 C 
ATOM      9  O   UNL     1      -0.409   8.805  21.493  0.00  0.00    +0.000 OA
ATOM     10  H   UNL     1       1.584   9.362  19.059  0.00  0.00    +0.000 HD
BRANCH   7  17
ATOM     11  C   UNL     1       1.089  12.605  19.642  0.00  0.00    +0.000 C 
ATOM     12  C   UNL     1      -0.057  11.847  19.020  0.00  0.00    +0.000 A 
ATOM     13  C   UNL     1      -1.043  12.629  18.377  0.00  0.00    +0.000 A 
ATOM     14  C   UNL     1      -2.147  12.044  17.761  0.00  0.00    +0.000 A 
ATOM     15  C   UNL     1      -2.310  10.672  17.813  0.00  0.00    +0.000 A 
ATOM     16  C   UNL     1      -1.356   9.886  18.464  0.00  0.00    +0.000 A 
ATOM     17  C   UNL     1      -0.209  10.445  19.047  0.00  0.00    +0.000 A 
ENDBRANCH   7  17
ENDBRANCH   6   8
ENDBRANCH   1   6
BRANCH   3  18
ATOM     18  C   UNL     1       1.124   3.275  20.028  0.00  0.00    +0.000 C 
BRANCH  18  19
ATOM     19  O   UNL     1       2.129   2.355  19.577  0.00  0.00    +0.000 OA
BRANCH  19  20
ATOM     20  C   UNL     1       3.270   2.334  20.314  0.00  0.00    +0.000 C 
ATOM     21  O   UNL     1       3.325   2.448  21.531  0.00  0.00    +0.000 OA
BRANCH  20  22
ATOM     22  C   UNL     1       4.479   2.286  19.397  0.00  0.00    +0.000 C 
BRANCH  22  23
ATOM     23  O   UNL     1       5.255   3.466  19.475  0.00  0.00    +0.000 OA
BRANCH  23  24
ATOM     24  C   UNL     1       5.435   4.164  18.300  0.00  0.00    +0.000 A 
ATOM     25  C   UNL     1       4.794   3.863  17.097  0.00  0.00    +0.000 A 
ATOM     26  C   UNL     1       5.033   4.626  15.954  0.00  0.00    +0.000 A 
ATOM     27  C   UNL     1       5.928   5.696  16.010  0.00  0.00    +0.000 A 
ATOM     28  C   UNL     1       6.589   6.018  17.204  0.00  0.00    +0.000 A 
ATOM     29  C   UNL     1       7.538   7.187  17.203  0.00  0.00    +0.000 C 
ATOM     30  C   UNL     1       6.345   5.247  18.365  0.00  0.00    +0.000 A 
ATOM     31  C   UNL     1       7.010   5.558  19.681  0.00  0.00    +0.000 C 
ENDBRANCH  23  24
ENDBRANCH  22  23
ENDBRANCH  20  22
ENDBRANCH  19  20
ENDBRANCH  18  19
ENDBRANCH   3  18
TORSDOF 9
ENDMDL
MODEL 8
REMARK VINA RESULT:      -7.3      3.193      4.432
REMARK  Name = 
REMARK  12 active torsions:
REMARK  status: ('A' for Active; 'I' for Inactive)
REMARK    1  A    between atoms: C_1  and  C_2
REMARK    2  A    between atoms: C_7  and  N_8
REMARK    3  A    between atoms: C_9  and  C_11
REMARK    4  A    between atoms: C_11  and  C_12
REMARK    5  A    between atoms: C_14  and  C_15
REMARK    6  A    between atoms: C_15  and  O_16
REMARK    7  A    between atoms: O_16  and  C_17
REMARK    8  A    between atoms: C_17  and  C_19
REMARK    9  A    between atoms: C_19  and  O_20
REMARK   10  A    between atoms: O_20  and  C_21
REMARK   11  A    between atoms: C_25  and  C_26
REMARK   12  A    between atoms: C_27  and  C_28
REMARK                            x       y       z     vdW  Elec       q    Type
REMARK                         _______ _______ _______ _____ _____    ______ ____
ROOT
ATOM      1  C   UNL     1       6.421   6.536  17.159  0.00  0.00    +0.000 A 
ATOM      2  N   UNL     1       6.796   7.795  17.054  0.00  0.00    +0.000 NA
ATOM      3  C   UNL     1       7.828   8.053  17.942  0.00  0.00    +0.000 A 
ATOM      4  C   UNL     1       8.248   6.953  18.672  0.00  0.00    +0.000 A 
ATOM      5  S   UNL     1       7.320   5.578  18.263  0.00  0.00    +0.000 S 
ENDROOT
BRANCH   1   6
ATOM      6  C   UNL     1       5.264   5.967  16.420  0.00  0.00    +0.000 C 
BRANCH   6   8
ATOM      7  N   UNL     1       3.821   4.214  17.364  0.00  0.00    +0.000 N 
ATOM      8  C   UNL     1       4.187   5.562  17.400  0.00  0.00    +0.000 C 
ATOM      9  O   UNL     1       3.706   6.428  18.132  0.00  0.00    +0.000 OA
ATOM     10  H   UNL     1       4.446   3.592  16.861  0.00  0.00    +0.000 HD
BRANCH   7  17
ATOM     11  C   UNL     1       4.576   2.732  19.892  0.00  0.00    +0.000 C 
ATOM     12  C   UNL     1       3.169   2.945  19.389  0.00  0.00    +0.000 A 
ATOM     13  C   UNL     1       2.135   2.418  20.195  0.00  0.00    +0.000 A 
ATOM     14  C   UNL     1       0.796   2.555  19.841  0.00  0.00    +0.000 A 
ATOM     15  C   UNL     1       0.465   3.182  18.653  0.00  0.00    +0.000 A 
ATOM     16  C   UNL     1       1.476   3.689  17.834  0.00  0.00    +0.000 A 
ATOM     17  C   UNL     1       2.830   3.610  18.193  0.00  0.00    +0.000 A 
ENDBRANCH   7  17
ENDBRANCH   6   8
ENDBRANCH   1   6
BRANCH   3  18
ATOM     18  C   UNL     1       8.359   9.451  18.052  0.00  0.00    +0.000 C 
BRANCH  18  19
ATOM     19  O   UNL     1       9.351   9.509  19.086  0.00  0.00    +0.000 OA
BRANCH  19  20
ATOM     20  C   UNL     1       9.609  10.749  19.575  0.00  0.00    +0.000 C 
ATOM     21  O   UNL     1       8.977  11.300  20.467  0.00  0.00    +0.000 OA
BRANCH  20  22
ATOM     22  C   UNL     1      10.708  11.410  18.763  0.00  0.00    +0.000 C 
BRANCH  22  23
ATOM     23  O   UNL     1      10.252  12.567  18.089  0.00  0.00    +0.000 OA
BRANCH  23  24
ATOM     24  C   UNL     1      10.640  13.780  18.619  0.00  0.00    +0.000 A 
ATOM     25  C   UNL     1      11.926  14.066  19.081  0.00  0.00    +0.000 A 
ATOM     26  C   UNL     1      12.231  15.324  19.599  0.00  0.00    +0.000 A 
ATOM     27  C   UNL     1      11.241  16.306  19.664  0.00  0.00    +0.000 A 
ATOM     28  C   UNL     1       9.940  16.045  19.210  0.00  0.00    +0.000 A 
ATOM     29  C   UNL     1       8.917  17.146  19.301  0.00  0.00    +0.000 C 
ATOM     30  C   UNL     1       9.629  14.771  18.681  0.00  0.00    +0.000 A 
ATOM     31  C   UNL     1       8.255  14.438  18.160  0.00  0.00    +0.000 C 
ENDBRANCH  23  24
ENDBRANCH  22  23
ENDBRANCH  20  22
ENDBRANCH  19  20
ENDBRANCH  18  19
ENDBRANCH   3  18
TORSDOF 9
ENDMDL
MODEL 9
REMARK VINA RESULT:      -7.3      2.691      4.336
REMARK  Name = 
REMARK  12 active torsions:
REMARK  status: ('A' for Active; 'I' for Inactive)
REMARK    1  A    between atoms: C_1  and  C_2
REMARK    2  A    between atoms: C_7  and  N_8
REMARK    3  A    between atoms: C_9  and  C_11
REMARK    4  A    between atoms: C_11  and  C_12
REMARK    5  A    between atoms: C_14  and  C_15
REMARK    6  A    between atoms: C_15  and  O_16
REMARK    7  A    between atoms: O_16  and  C_17
REMARK    8  A    between atoms: C_17  and  C_19
REMARK    9  A    between atoms: C_19  and  O_20
REMARK   10  A    between atoms: O_20  and  C_21
REMARK   11  A    between atoms: C_25  and  C_26
REMARK   12  A    between atoms: C_27  and  C_28
REMARK                            x       y       z     vdW  Elec       q    Type
REMARK                         _______ _______ _______ _____ _____    ______ ____
ROOT
ATOM      1  C   UNL     1       6.578   5.891  16.903  0.00  0.00    +0.000 A 
ATOM      2  N   UNL     1       6.781   7.184  16.752  0.00  0.00    +0.000 NA
ATOM      3  C   UNL     1       7.653   7.639  17.729  0.00  0.00    +0.000 A 
ATOM      4  C   UNL     1       8.135   6.655  18.575  0.00  0.00    +0.000 A 
ATOM      5  S   UNL     1       7.466   5.137  18.164  0.00  0.00    +0.000 S 
ENDROOT
BRANCH   1   6
ATOM      6  C   UNL     1       5.610   5.118  16.083  0.00  0.00    +0.000 C 
BRANCH   6   8
ATOM      7  N   UNL     1       4.458   5.096  18.256  0.00  0.00    +0.000 N 
ATOM      8  C   UNL     1       4.540   4.535  16.978  0.00  0.00    +0.000 C 
ATOM      9  O   UNL     1       3.844   3.618  16.539  0.00  0.00    +0.000 OA
ATOM     10  H   UNL     1       4.952   5.972  18.394  0.00  0.00    +0.000 HD
BRANCH   7  17
ATOM     11  C   UNL     1       2.397   7.032  19.331  0.00  0.00    +0.000 C 
ATOM     12  C   UNL     1       2.546   5.590  19.750  0.00  0.00    +0.000 A 
ATOM     13  C   UNL     1       1.620   5.123  20.710  0.00  0.00    +0.000 A 
ATOM     14  C   UNL     1       1.652   3.810  21.172  0.00  0.00    +0.000 A 
ATOM     15  C   UNL     1       2.636   2.950  20.718  0.00  0.00    +0.000 A 
ATOM     16  C   UNL     1       3.572   3.402  19.786  0.00  0.00    +0.000 A 
ATOM     17  C   UNL     1       3.530   4.704  19.266  0.00  0.00    +0.000 A 
ENDBRANCH   7  17
ENDBRANCH   6   8
ENDBRANCH   1   6
BRANCH   3  18
ATOM     18  C   UNL     1       7.964   9.104  17.798  0.00  0.00    +0.000 C 
BRANCH  18  19
ATOM     19  O   UNL     1       8.683   9.387  19.006  0.00  0.00    +0.000 OA
BRANCH  19  20
ATOM     20  C   UNL     1       9.414  10.532  18.994  0.00  0.00    +0.000 C 
ATOM     21  O   UNL     1       9.865  11.069  17.991  0.00  0.00    +0.000 OA
BRANCH  20  22
ATOM     22  C   UNL     1       9.706  10.978  20.416  0.00  0.00    +0.000 C 
BRANCH  22  23
ATOM     23  O   UNL     1       9.727  12.387  20.540  0.00  0.00    +0.000 OA
BRANCH  23  24
ATOM     24  C   UNL     1       9.296  12.904  21.743  0.00  0.00    +0.000 A 
ATOM     25  C   UNL     1       8.538  12.200  22.680  0.00  0.00    +0.000 A 
ATOM     26  C   UNL     1       8.147  12.803  23.875  0.00  0.00    +0.000 A 
ATOM     27  C   UNL     1       8.510  14.125  24.136  0.00  0.00    +0.000 A 
ATOM     28  C   UNL     1       9.268  14.858  23.210  0.00  0.00    +0.000 A 
ATOM     29  C   UNL     1       9.633  16.278  23.551  0.00  0.00    +0.000 C 
ATOM     30  C   UNL     1       9.668  14.247  21.999  0.00  0.00    +0.000 A 
ATOM     31  C   UNL     1      10.500  14.977  20.976  0.00  0.00    +0.000 C 
ENDBRANCH  23  24
ENDBRANCH  22  23
ENDBRANCH  20  22
ENDBRANCH  19  20
ENDBRANCH  18  19
ENDBRANCH   3  18
TORSDOF 9
ENDMDL
