MODEL 1
REMARK VINA RESULT:      -6.8      0.000      0.000
REMARK  Name = 
REMARK  4 active torsions:
REMARK  status: ('A' for Active; 'I' for Inactive)
REMARK    1  A    between atoms: C_1  and  C_2
REMARK    2  A    between atoms: C_2  and  C_4
REMARK    3  A    between atoms: C_9  and  C_10
REMARK    4  A    between atoms: C_11  and  S_12
REMARK                            x       y       z     vdW  Elec       q    Type
REMARK                         _______ _______ _______ _____ _____    ______ ____
ROOT
ATOM      1  C   UNL     1       3.373   3.540  19.868  0.00  0.00    +0.000 A 
ATOM      2  C   UNL     1       2.078   3.508  20.422  0.00  0.00    +0.000 A 
ATOM      3  C   UNL     1       1.347   4.683  20.598  0.00  0.00    +0.000 A 
ATOM      4  C   UNL     1       1.901   5.904  20.231  0.00  0.00    +0.000 A 
ATOM      5  C   UNL     1       3.194   5.950  19.710  0.00  0.00    +0.000 A 
ATOM      6  C   UNL     1       3.950   4.778  19.531  0.00  0.00    +0.000 A 
ENDROOT
BRANCH   1   8
ATOM      7  C   UNL     1       3.685   1.402  18.467  0.00  0.00    +0.000 C 
ATOM      8  C   UNL     1       4.087   2.249  19.658  0.00  0.00    +0.000 C 
ATOM      9  O   UNL     1       4.960   1.874  20.434  0.00  0.00    +0.000 OA
ENDBRANCH   1   8
BRANCH   6  10
ATOM     10  C   UNL     1       5.293   4.978  18.979  0.00  0.00    +0.000 C 
ATOM     11  C   UNL     1       5.490   5.052  17.652  0.00  0.00    +0.000 C 
BRANCH  11  12
ATOM     12  S   UNL     1       7.101   5.014  17.026  0.00  0.00    +0.000 S 
ATOM     13  O   UNL     1       7.445   6.314  16.480  0.00  0.00    +0.000 OA
ATOM     14  O   UNL     1       7.965   4.366  17.995  0.00  0.00    +0.000 OA
ATOM     15  F   UNL     1       7.070   4.037  15.777  0.00  0.00    +0.000 F 
ENDBRANCH  11  12
ENDBRANCH   6  10
TORSDOF 3
ENDMDL
MODEL 2
REMARK VINA RESULT:      -6.7      0.990      1.331
REMARK  Name = 
REMARK  4 active torsions:
REMARK  status: ('A' for Active; 'I' for Inactive)
REMARK    1  A    between atoms: C_1  and  C_2
REMARK    2  A    between atoms: C_2  and  C_4
REMARK    3  A    between atoms: C_9  and  C_10
REMARK    4  A    between atoms: C_11  and  S_12
REMARK                            x       y       z     vdW  Elec       q    Type
REMARK                         _______ _______ _______ _____ _____    ______ ____
ROOT
ATOM      1  C   UNL     1       3.423   3.563  19.839  0.00  0.00    +0.000 A 
ATOM      2  C   UNL     1       2.146   3.561  20.434  0.00  0.00    +0.000 A 
ATOM      3  C   UNL     1       1.432   4.748  20.599  0.00  0.00    +0.000 A 
ATOM      4  C   UNL     1       1.986   5.952  20.180  0.00  0.00    +0.000 A 
ATOM      5  C   UNL     1       3.262   5.970  19.617  0.00  0.00    +0.000 A 
ATOM      6  C   UNL     1       4.001   4.785  19.448  0.00  0.00    +0.000 A 
ENDROOT
BRANCH   1   8
ATOM      7  C   UNL     1       3.700   1.403  18.465  0.00  0.00    +0.000 C 
ATOM      8  C   UNL     1       4.117   2.259  19.644  0.00  0.00    +0.000 C 
ATOM      9  O   UNL     1       4.987   1.881  20.423  0.00  0.00    +0.000 OA
ENDBRANCH   1   8
BRANCH   6  10
ATOM     10  C   UNL     1       5.327   4.955  18.849  0.00  0.00    +0.000 C 
ATOM     11  C   UNL     1       5.497   5.710  17.751  0.00  0.00    +0.000 C 
BRANCH  11  12
ATOM     12  S   UNL     1       7.010   5.672  16.915  0.00  0.00    +0.000 S 
ATOM     13  O   UNL     1       7.805   4.556  17.393  0.00  0.00    +0.000 OA
ATOM     14  O   UNL     1       6.766   5.854  15.496  0.00  0.00    +0.000 OA
ATOM     15  F   UNL     1       7.802   6.968  17.371  0.00  0.00    +0.000 F 
ENDBRANCH  11  12
ENDBRANCH   6  10
TORSDOF 3
ENDMDL
MODEL 3
REMARK VINA RESULT:      -6.5      1.750      2.008
REMARK  Name = 
REMARK  4 active torsions:
REMARK  status: ('A' for Active; 'I' for Inactive)
REMARK    1  A    between atoms: C_1  and  C_2
REMARK    2  A    between atoms: C_2  and  C_4
REMARK    3  A    between atoms: C_9  and  C_10
REMARK    4  A    between atoms: C_11  and  S_12
REMARK                            x       y       z     vdW  Elec       q    Type
REMARK                         _______ _______ _______ _____ _____    ______ ____
ROOT
ATOM      1  C   UNL     1       2.559   3.814  18.765  0.00  0.00    +0.000 A 
ATOM      2  C   UNL     1       1.468   3.732  19.652  0.00  0.00    +0.000 A 
ATOM      3  C   UNL     1       1.173   4.782  20.522  0.00  0.00    +0.000 A 
ATOM      4  C   UNL     1       1.966   5.922  20.523  0.00  0.00    +0.000 A 
ATOM      5  C   UNL     1       3.067   6.002  19.671  0.00  0.00    +0.000 A 
ATOM      6  C   UNL     1       3.386   4.952  18.791  0.00  0.00    +0.000 A 
ENDROOT
BRANCH   1   8
ATOM      7  C   UNL     1       3.592   1.496  18.329  0.00  0.00    +0.000 C 
ATOM      8  C   UNL     1       2.797   2.683  17.824  0.00  0.00    +0.000 C 
ATOM      9  O   UNL     1       2.377   2.718  16.672  0.00  0.00    +0.000 OA
ENDBRANCH   1   8
BRANCH   6  10
ATOM     10  C   UNL     1       4.572   5.172  17.958  0.00  0.00    +0.000 C 
ATOM     11  C   UNL     1       5.808   5.028  18.465  0.00  0.00    +0.000 C 
BRANCH  11  12
ATOM     12  S   UNL     1       7.174   5.554  17.546  0.00  0.00    +0.000 S 
ATOM     13  O   UNL     1       7.960   4.405  17.135  0.00  0.00    +0.000 OA
ATOM     14  O   UNL     1       6.733   6.535  16.572  0.00  0.00    +0.000 OA
ATOM     15  F   UNL     1       8.105   6.353  18.551  0.00  0.00    +0.000 F 
ENDBRANCH  11  12
ENDBRANCH   6  10
TORSDOF 3
ENDMDL
MODEL 4
REMARK VINA RESULT:      -6.5      1.977      3.013
REMARK  Name = 
REMARK  4 active torsions:
REMARK  status: ('A' for Active; 'I' for Inactive)
REMARK    1  A    between atoms: C_1  and  C_2
REMARK    2  A    between atoms: C_2  and  C_4
REMARK    3  A    between atoms: C_9  and  C_10
REMARK    4  A    between atoms: C_11  and  S_12
REMARK                            x       y       z     vdW  Elec       q    Type
REMARK                         _______ _______ _______ _____ _____    ______ ____
ROOT
ATOM      1  C   UNL     1       2.539   4.614  18.754  0.00  0.00    +0.000 A 
ATOM      2  C   UNL     1       1.509   4.215  19.629  0.00  0.00    +0.000 A 
ATOM      3  C   UNL     1       0.951   2.940  19.542  0.00  0.00    +0.000 A 
ATOM      4  C   UNL     1       1.407   2.050  18.577  0.00  0.00    +0.000 A 
ATOM      5  C   UNL     1       2.404   2.444  17.686  0.00  0.00    +0.000 A 
ATOM      6  C   UNL     1       2.976   3.728  17.753  0.00  0.00    +0.000 A 
ENDROOT
BRANCH   1   8
ATOM      7  C   UNL     1       2.448   7.135  18.235  0.00  0.00    +0.000 C 
ATOM      8  C   UNL     1       3.131   5.971  18.925  0.00  0.00    +0.000 C 
ATOM      9  O   UNL     1       4.148   6.139  19.590  0.00  0.00    +0.000 OA
ENDBRANCH   1   8
BRANCH   6  10
ATOM     10  C   UNL     1       4.008   4.006  16.750  0.00  0.00    +0.000 C 
ATOM     11  C   UNL     1       5.312   3.980  17.076  0.00  0.00    +0.000 C 
BRANCH  11  12
ATOM     12  S   UNL     1       6.483   4.574  15.953  0.00  0.00    +0.000 S 
ATOM     13  O   UNL     1       6.058   5.861  15.435  0.00  0.00    +0.000 OA
ATOM     14  O   UNL     1       7.807   4.407  16.524  0.00  0.00    +0.000 OA
ATOM     15  F   UNL     1       6.440   3.594  14.707  0.00  0.00    +0.000 F 
ENDBRANCH  11  12
ENDBRANCH   6  10
TORSDOF 3
ENDMDL
MODEL 5
REMARK VINA RESULT:      -6.5      3.458      5.544
REMARK  Name = 
REMARK  4 active torsions:
REMARK  status: ('A' for Active; 'I' for Inactive)
REMARK    1  A    between atoms: C_1  and  C_2
REMARK    2  A    between atoms: C_2  and  C_4
REMARK    3  A    between atoms: C_9  and  C_10
REMARK    4  A    between atoms: C_11  and  S_12
REMARK                            x       y       z     vdW  Elec       q    Type
REMARK                         _______ _______ _______ _____ _____    ______ ____
ROOT
ATOM      1  C   UNL     1       5.972   5.762  16.932  0.00  0.00    +0.000 A 
ATOM      2  C   UNL     1       7.283   6.183  17.232  0.00  0.00    +0.000 A 
ATOM      3  C   UNL     1       7.790   6.072  18.527  0.00  0.00    +0.000 A 
ATOM      4  C   UNL     1       6.995   5.548  19.538  0.00  0.00    +0.000 A 
ATOM      5  C   UNL     1       5.686   5.156  19.259  0.00  0.00    +0.000 A 
ATOM      6  C   UNL     1       5.153   5.265  17.961  0.00  0.00    +0.000 A 
ENDROOT
BRANCH   1   8
ATOM      7  C   UNL     1       5.629   4.628  14.645  0.00  0.00    +0.000 C 
ATOM      8  C   UNL     1       5.502   5.858  15.521  0.00  0.00    +0.000 C 
ATOM      9  O   UNL     1       5.042   6.905  15.076  0.00  0.00    +0.000 OA
ENDBRANCH   1   8
BRANCH   6  10
ATOM     10  C   UNL     1       3.765   4.821  17.816  0.00  0.00    +0.000 C 
ATOM     11  C   UNL     1       3.120   4.223  18.833  0.00  0.00    +0.000 C 
BRANCH  11  12
ATOM     12  S   UNL     1       1.590   3.471  18.548  0.00  0.00    +0.000 S 
ATOM     13  O   UNL     1       0.992   4.017  17.344  0.00  0.00    +0.000 OA
ATOM     14  O   UNL     1       1.734   2.037  18.719  0.00  0.00    +0.000 OA
ATOM     15  F   UNL     1       0.640   3.937  19.729  0.00  0.00    +0.000 F 
ENDBRANCH  11  12
ENDBRANCH   6  10
TORSDOF 3
ENDMDL
MODEL 6
REMARK VINA RESULT:      -6.5      1.659      1.766
REMARK  Name = 
REMARK  4 active torsions:
REMARK  status: ('A' for Active; 'I' for Inactive)
REMARK    1  A    between atoms: C_1  and  C_2
REMARK    2  A    between atoms: C_2  and  C_4
REMARK    3  A    between atoms: C_9  and  C_10
REMARK    4  A    between atoms: C_11  and  S_12
REMARK                            x       y       z     vdW  Elec       q    Type
REMARK                         _______ _______ _______ _____ _____    ______ ____
ROOT
ATOM      1  C   UNL     1       2.548   4.092  18.899  0.00  0.00    +0.000 A 
ATOM      2  C   UNL     1       1.765   4.425  20.023  0.00  0.00    +0.000 A 
ATOM      3  C   UNL     1       1.679   5.744  20.467  0.00  0.00    +0.000 A 
ATOM      4  C   UNL     1       2.378   6.745  19.803  0.00  0.00    +0.000 A 
ATOM      5  C   UNL     1       3.180   6.423  18.709  0.00  0.00    +0.000 A 
ATOM      6  C   UNL     1       3.285   5.097  18.248  0.00  0.00    +0.000 A 
ENDROOT
BRANCH   1   8
ATOM      7  C   UNL     1       3.661   1.771  18.961  0.00  0.00    +0.000 C 
ATOM      8  C   UNL     1       2.562   2.674  18.439  0.00  0.00    +0.000 C 
ATOM      9  O   UNL     1       1.721   2.256  17.650  0.00  0.00    +0.000 OA
ENDBRANCH   1   8
BRANCH   6  10
ATOM     10  C   UNL     1       4.166   4.905  17.093  0.00  0.00    +0.000 C 
ATOM     11  C   UNL     1       5.473   4.640  17.258  0.00  0.00    +0.000 C 
BRANCH  11  12
ATOM     12  S   UNL     1       6.532   4.689  15.893  0.00  0.00    +0.000 S 
ATOM     13  O   UNL     1       6.190   5.818  15.047  0.00  0.00    +0.000 OA
ATOM     14  O   UNL     1       7.896   4.494  16.350  0.00  0.00    +0.000 OA
ATOM     15  F   UNL     1       6.196   3.406  15.024  0.00  0.00    +0.000 F 
ENDBRANCH  11  12
ENDBRANCH   6  10
TORSDOF 3
ENDMDL
MODEL 7
REMARK VINA RESULT:      -6.4      2.072      3.241
REMARK  Name = 
REMARK  4 active torsions:
REMARK  status: ('A' for Active; 'I' for Inactive)
REMARK    1  A    between atoms: C_1  and  C_2
REMARK    2  A    between atoms: C_2  and  C_4
REMARK    3  A    between atoms: C_9  and  C_10
REMARK    4  A    between atoms: C_11  and  S_12
REMARK                            x       y       z     vdW  Elec       q    Type
REMARK                         _______ _______ _______ _____ _____    ______ ____
ROOT
ATOM      1  C   UNL     1       2.546   4.651  18.802  0.00  0.00    +0.000 A 
ATOM      2  C   UNL     1       1.330   3.943  18.740  0.00  0.00    +0.000 A 
ATOM      3  C   UNL     1       1.314   2.572  18.482  0.00  0.00    +0.000 A 
ATOM      4  C   UNL     1       2.509   1.894  18.274  0.00  0.00    +0.000 A 
ATOM      5  C   UNL     1       3.716   2.591  18.302  0.00  0.00    +0.000 A 
ATOM      6  C   UNL     1       3.754   3.974  18.555  0.00  0.00    +0.000 A 
ENDROOT
BRANCH   1   8
ATOM      7  C   UNL     1       2.635   7.094  17.990  0.00  0.00    +0.000 C 
ATOM      8  C   UNL     1       2.505   6.105  19.131  0.00  0.00    +0.000 C 
ATOM      9  O   UNL     1       2.387   6.489  20.290  0.00  0.00    +0.000 OA
ENDBRANCH   1   8
BRANCH   6  10
ATOM     10  C   UNL     1       5.090   4.575  18.549  0.00  0.00    +0.000 C 
ATOM     11  C   UNL     1       5.669   4.963  17.400  0.00  0.00    +0.000 C 
BRANCH  11  12
ATOM     12  S   UNL     1       7.338   5.411  17.394  0.00  0.00    +0.000 S 
ATOM     13  O   UNL     1       8.165   4.219  17.362  0.00  0.00    +0.000 OA
ATOM     14  O   UNL     1       7.534   6.475  16.427  0.00  0.00    +0.000 OA
ATOM     15  F   UNL     1       7.625   6.074  18.806  0.00  0.00    +0.000 F 
ENDBRANCH  11  12
ENDBRANCH   6  10
TORSDOF 3
ENDMDL
MODEL 8
REMARK VINA RESULT:      -6.4      1.032      1.087
REMARK  Name = 
REMARK  4 active torsions:
REMARK  status: ('A' for Active; 'I' for Inactive)
REMARK    1  A    between atoms: C_1  and  C_2
REMARK    2  A    between atoms: C_2  and  C_4
REMARK    3  A    between atoms: C_9  and  C_10
REMARK    4  A    between atoms: C_11  and  S_12
REMARK                            x       y       z     vdW  Elec       q    Type
REMARK                         _______ _______ _______ _____ _____    ______ ____
ROOT
ATOM      1  C   UNL     1       3.319   3.454  19.873  0.00  0.00    +0.000 A 
ATOM      2  C   UNL     1       2.158   3.400  20.670  0.00  0.00    +0.000 A 
ATOM      3  C   UNL     1       1.399   4.546  20.904  0.00  0.00    +0.000 A 
ATOM      4  C   UNL     1       1.791   5.761  20.354  0.00  0.00    +0.000 A 
ATOM      5  C   UNL     1       2.954   5.832  19.589  0.00  0.00    +0.000 A 
ATOM      6  C   UNL     1       3.738   4.689  19.346  0.00  0.00    +0.000 A 
ENDROOT
BRANCH   1   8
ATOM      7  C   UNL     1       3.665   1.365  18.408  0.00  0.00    +0.000 C 
ATOM      8  C   UNL     1       4.063   2.189  19.616  0.00  0.00    +0.000 C 
ATOM      9  O   UNL     1       4.958   1.816  20.368  0.00  0.00    +0.000 OA
ENDBRANCH   1   8
BRANCH   6  10
ATOM     10  C   UNL     1       4.935   4.913  18.530  0.00  0.00    +0.000 C 
ATOM     11  C   UNL     1       6.099   5.274  19.097  0.00  0.00    +0.000 C 
BRANCH  11  12
ATOM     12  S   UNL     1       7.409   5.793  18.096  0.00  0.00    +0.000 S 
ATOM     13  O   UNL     1       6.906   6.181  16.792  0.00  0.00    +0.000 OA
ATOM     14  O   UNL     1       8.255   6.691  18.860  0.00  0.00    +0.000 OA
ATOM     15  F   UNL     1       8.300   4.508  17.829  0.00  0.00    +0.000 F 
ENDBRANCH  11  12
ENDBRANCH   6  10
TORSDOF 3
ENDMDL
MODEL 9
REMARK VINA RESULT:      -6.4      2.081      3.153
REMARK  Name = 
REMARK  4 active torsions:
REMARK  status: ('A' for Active; 'I' for Inactive)
REMARK    1  A    between atoms: C_1  and  C_2
REMARK    2  A    between atoms: C_2  and  C_4
REMARK    3  A    between atoms: C_9  and  C_10
REMARK    4  A    between atoms: C_11  and  S_12
REMARK                            x       y       z     vdW  Elec       q    Type
REMARK                         _______ _______ _______ _____ _____    ______ ____
ROOT
ATOM      1  C   UNL     1       2.511   5.294  19.705  0.00  0.00    +0.000 A 
ATOM      2  C   UNL     1       1.319   4.609  20.014  0.00  0.00    +0.000 A 
ATOM      3  C   UNL     1       1.334   3.244  20.301  0.00  0.00    +0.000 A 
ATOM      4  C   UNL     1       2.535   2.544  20.275  0.00  0.00    +0.000 A 
ATOM      5  C   UNL     1       3.716   3.206  19.940  0.00  0.00    +0.000 A 
ATOM      6  C   UNL     1       3.722   4.581  19.642  0.00  0.00    +0.000 A 
ENDROOT
BRANCH   1   8
ATOM      7  C   UNL     1       2.711   7.257  18.050  0.00  0.00    +0.000 C 
ATOM      8  C   UNL     1       2.441   6.762  19.456  0.00  0.00    +0.000 C 
ATOM      9  O   UNL     1       2.190   7.548  20.365  0.00  0.00    +0.000 OA
ENDBRANCH   1   8
BRANCH   6  10
ATOM     10  C   UNL     1       5.032   5.142  19.303  0.00  0.00    +0.000 C 
ATOM     11  C   UNL     1       5.758   4.639  18.290  0.00  0.00    +0.000 C 
BRANCH  11  12
ATOM     12  S   UNL     1       7.401   5.136  18.089  0.00  0.00    +0.000 S 
ATOM     13  O   UNL     1       8.053   5.207  19.384  0.00  0.00    +0.000 OA
ATOM     14  O   UNL     1       7.992   4.374  17.004  0.00  0.00    +0.000 OA
ATOM     15  F   UNL     1       7.352   6.633  17.568  0.00  0.00    +0.000 F 
ENDBRANCH  11  12
ENDBRANCH   6  10
TORSDOF 3
ENDMDL
