MODEL 1
REMARK VINA RESULT:      -7.6      0.000      0.000
REMARK  Name = 
REMARK  9 active torsions:
REMARK  status: ('A' for Active; 'I' for Inactive)
REMARK    1  A    between atoms: C_2  and  C_13
REMARK    2  A    between atoms: N_3  and  C_4
REMARK    3  A    between atoms: C_4  and  C_5
REMARK    4  A    between atoms: C_5  and  C_6
REMARK    5  A    between atoms: C_6  and  C_7
REMARK    6  A    between atoms: C_16  and  S_17
REMARK    7  A    between atoms: S_17  and  C_18
REMARK    8  A    between atoms: C_18  and  C_19
REMARK    9  A    between atoms: C_19  and  N_20
REMARK                            x       y       z     vdW  Elec       q    Type
REMARK                         _______ _______ _______ _____ _____    ______ ____
ROOT
ATOM      1  C   UNL     1       6.009   5.051  17.268  0.00  0.00    +0.000 A 
ATOM      2  C   UNL     1       5.085   4.541  16.427  0.00  0.00    +0.000 A 
ATOM      3  N   UNL     1       4.121   3.602  16.758  0.00  0.00    +0.000 NA
ATOM      4  C   UNL     1       4.150   3.153  17.962  0.00  0.00    +0.000 A 
ATOM      5  N   UNL     1       5.056   3.561  18.899  0.00  0.00    +0.000 N 
ATOM      6  C   UNL     1       5.973   4.528  18.644  0.00  0.00    +0.000 A 
ATOM      7  O   UNL     1       6.740   4.929  19.531  0.00  0.00    +0.000 OA
ATOM      8  H   UNL     1       5.013   3.184  19.829  0.00  0.00    +0.000 HD
ENDROOT
BRANCH   1  10
ATOM      9  O   UNL     1       7.513   5.982  15.672  0.00  0.00    +0.000 OA
ATOM     10  C   UNL     1       7.014   6.052  16.798  0.00  0.00    +0.000 C 
ATOM     11  N   UNL     1       7.372   7.019  17.709  0.00  0.00    +0.000 N 
ATOM     12  H   UNL     1       7.053   6.932  18.674  0.00  0.00    +0.000 HD
BRANCH  11  13
ATOM     13  C   UNL     1       8.351   8.043  17.396  0.00  0.00    +0.000 C 
BRANCH  13  14
ATOM     14  C   UNL     1       7.970   9.413  17.965  0.00  0.00    +0.000 C 
BRANCH  14  15
ATOM     15  C   UNL     1       9.010   9.905  18.981  0.00  0.00    +0.000 C 
BRANCH  15  16
ATOM     16  C   UNL     1       9.726  11.158  18.533  0.00  0.00    +0.000 A 
ATOM     17  C   UNL     1       9.003  12.271  18.081  0.00  0.00    +0.000 A 
ATOM     18  C   UNL     1       9.667  13.404  17.602  0.00  0.00    +0.000 A 
ATOM     19  C   UNL     1      11.059  13.442  17.584  0.00  0.00    +0.000 A 
ATOM     20  C   UNL     1      11.789  12.353  18.057  0.00  0.00    +0.000 A 
ATOM     21  C   UNL     1      11.127  11.215  18.524  0.00  0.00    +0.000 A 
ENDBRANCH  15  16
ENDBRANCH  14  15
ENDBRANCH  13  14
ENDBRANCH  11  13
ENDBRANCH   1  10
BRANCH   4  22
ATOM     22  S   UNL     1       3.040   1.968  18.616  0.00  0.00    +0.000 S 
BRANCH  22  23
ATOM     23  C   UNL     1       1.620   3.032  19.072  0.00  0.00    +0.000 C 
BRANCH  23  24
ATOM     24  C   UNL     1       1.795   4.523  18.650  0.00  0.00    +0.000 C 
BRANCH  24  25
ATOM     25  N   UNL     1       2.672   5.342  19.520  0.00  0.00    +0.000 NA
ATOM     26  C   UNL     1       2.122   5.663  20.857  0.00  0.00    +0.000 C 
ATOM     27  C   UNL     1       1.142   6.853  20.914  0.00  0.00    +0.000 C 
ATOM     28  O   UNL     1       1.706   8.029  20.319  0.00  0.00    +0.000 OA
ATOM     29  C   UNL     1       2.087   7.769  18.962  0.00  0.00    +0.000 C 
ATOM     30  C   UNL     1       3.107   6.614  18.885  0.00  0.00    +0.000 C 
ENDBRANCH  24  25
ENDBRANCH  23  24
ENDBRANCH  22  23
ENDBRANCH   4  22
TORSDOF 9
ENDMDL
MODEL 2
REMARK VINA RESULT:      -7.6      3.661      8.201
REMARK  Name = 
REMARK  9 active torsions:
REMARK  status: ('A' for Active; 'I' for Inactive)
REMARK    1  A    between atoms: C_2  and  C_13
REMARK    2  A    between atoms: N_3  and  C_4
REMARK    3  A    between atoms: C_4  and  C_5
REMARK    4  A    between atoms: C_5  and  C_6
REMARK    5  A    between atoms: C_6  and  C_7
REMARK    6  A    between atoms: C_16  and  S_17
REMARK    7  A    between atoms: S_17  and  C_18
REMARK    8  A    between atoms: C_18  and  C_19
REMARK    9  A    between atoms: C_19  and  N_20
REMARK                            x       y       z     vdW  Elec       q    Type
REMARK                         _______ _______ _______ _____ _____    ______ ____
ROOT
ATOM      1  C   UNL     1       2.098   7.861  18.713  0.00  0.00    +0.000 A 
ATOM      2  C   UNL     1       2.401   6.948  17.766  0.00  0.00    +0.000 A 
ATOM      3  N   UNL     1       2.611   5.595  17.985  0.00  0.00    +0.000 NA
ATOM      4  C   UNL     1       2.555   5.198  19.206  0.00  0.00    +0.000 A 
ATOM      5  N   UNL     1       2.292   6.027  20.259  0.00  0.00    +0.000 N 
ATOM      6  C   UNL     1       2.010   7.343  20.089  0.00  0.00    +0.000 A 
ATOM      7  O   UNL     1       1.709   8.061  21.054  0.00  0.00    +0.000 OA
ATOM      8  H   UNL     1       2.244   5.650  21.189  0.00  0.00    +0.000 HD
ENDROOT
BRANCH   1  10
ATOM      9  O   UNL     1       2.376   9.780  17.331  0.00  0.00    +0.000 OA
ATOM     10  C   UNL     1       1.906   9.300  18.365  0.00  0.00    +0.000 C 
ATOM     11  N   UNL     1       1.215  10.055  19.286  0.00  0.00    +0.000 N 
ATOM     12  H   UNL     1       0.994   9.647  20.193  0.00  0.00    +0.000 HD
BRANCH  11  13
ATOM     13  C   UNL     1       0.972  11.472  19.088  0.00  0.00    +0.000 C 
BRANCH  13  14
ATOM     14  C   UNL     1      -0.497  11.850  19.297  0.00  0.00    +0.000 C 
BRANCH  14  15
ATOM     15  C   UNL     1      -1.409  10.617  19.211  0.00  0.00    +0.000 C 
BRANCH  15  16
ATOM     16  C   UNL     1      -2.274  10.609  17.973  0.00  0.00    +0.000 A 
ATOM     17  C   UNL     1      -1.907   9.854  16.849  0.00  0.00    +0.000 A 
ATOM     18  C   UNL     1      -2.671   9.901  15.680  0.00  0.00    +0.000 A 
ATOM     19  C   UNL     1      -3.818  10.689  15.627  0.00  0.00    +0.000 A 
ATOM     20  C   UNL     1      -4.210  11.421  16.746  0.00  0.00    +0.000 A 
ATOM     21  C   UNL     1      -3.440  11.386  17.911  0.00  0.00    +0.000 A 
ENDBRANCH  15  16
ENDBRANCH  14  15
ENDBRANCH  13  14
ENDBRANCH  11  13
ENDBRANCH   1  10
BRANCH   4  22
ATOM     22  S   UNL     1       2.783   3.545  19.733  0.00  0.00    +0.000 S 
BRANCH  22  23
ATOM     23  C   UNL     1       4.611   3.420  19.715  0.00  0.00    +0.000 C 
BRANCH  23  24
ATOM     24  C   UNL     1       5.322   4.724  19.236  0.00  0.00    +0.000 C 
BRANCH  24  25
ATOM     25  N   UNL     1       6.460   4.533  18.307  0.00  0.00    +0.000 NA
ATOM     26  C   UNL     1       7.612   5.439  18.518  0.00  0.00    +0.000 C 
ATOM     27  C   UNL     1       7.486   6.846  17.898  0.00  0.00    +0.000 C 
ATOM     28  O   UNL     1       7.161   6.780  16.503  0.00  0.00    +0.000 OA
ATOM     29  C   UNL     1       5.947   6.044  16.307  0.00  0.00    +0.000 C 
ATOM     30  C   UNL     1       6.068   4.615  16.875  0.00  0.00    +0.000 C 
ENDBRANCH  24  25
ENDBRANCH  23  24
ENDBRANCH  22  23
ENDBRANCH   4  22
TORSDOF 9
ENDMDL
MODEL 3
REMARK VINA RESULT:      -7.4      1.273      1.795
REMARK  Name = 
REMARK  9 active torsions:
REMARK  status: ('A' for Active; 'I' for Inactive)
REMARK    1  A    between atoms: C_2  and  C_13
REMARK    2  A    between atoms: N_3  and  C_4
REMARK    3  A    between atoms: C_4  and  C_5
REMARK    4  A    between atoms: C_5  and  C_6
REMARK    5  A    between atoms: C_6  and  C_7
REMARK    6  A    between atoms: C_16  and  S_17
REMARK    7  A    between atoms: S_17  and  C_18
REMARK    8  A    between atoms: C_18  and  C_19
REMARK    9  A    between atoms: C_19  and  N_20
REMARK                            x       y       z     vdW  Elec       q    Type
REMARK                         _______ _______ _______ _____ _____    ______ ____
ROOT
ATOM      1  C   UNL     1       6.373   5.387  17.441  0.00  0.00    +0.000 A 
ATOM      2  C   UNL     1       5.698   4.710  16.488  0.00  0.00    +0.000 A 
ATOM      3  N   UNL     1       4.954   3.558  16.688  0.00  0.00    +0.000 NA
ATOM      4  C   UNL     1       4.952   3.078  17.880  0.00  0.00    +0.000 A 
ATOM      5  N   UNL     1       5.622   3.648  18.925  0.00  0.00    +0.000 N 
ATOM      6  C   UNL     1       6.305   4.812  18.795  0.00  0.00    +0.000 A 
ATOM      7  O   UNL     1       6.849   5.345  19.774  0.00  0.00    +0.000 OA
ATOM      8  H   UNL     1       5.565   3.232  19.838  0.00  0.00    +0.000 HD
ENDROOT
BRANCH   1  10
ATOM      9  O   UNL     1       7.952   6.634  16.167  0.00  0.00    +0.000 OA
ATOM     10  C   UNL     1       7.157   6.614  17.110  0.00  0.00    +0.000 C 
ATOM     11  N   UNL     1       6.967   7.693  17.942  0.00  0.00    +0.000 N 
ATOM     12  H   UNL     1       6.426   7.569  18.797  0.00  0.00    +0.000 HD
BRANCH  11  13
ATOM     13  C   UNL     1       7.678   8.944  17.751  0.00  0.00    +0.000 C 
BRANCH  13  14
ATOM     14  C   UNL     1       8.983   9.005  18.550  0.00  0.00    +0.000 C 
BRANCH  14  15
ATOM     15  C   UNL     1       9.013  10.227  19.479  0.00  0.00    +0.000 C 
BRANCH  15  16
ATOM     16  C   UNL     1      10.124  11.195  19.144  0.00  0.00    +0.000 A 
ATOM     17  C   UNL     1      10.448  11.476  17.809  0.00  0.00    +0.000 A 
ATOM     18  C   UNL     1      11.520  12.318  17.500  0.00  0.00    +0.000 A 
ATOM     19  C   UNL     1      12.268  12.900  18.521  0.00  0.00    +0.000 A 
ATOM     20  C   UNL     1      11.937  12.650  19.852  0.00  0.00    +0.000 A 
ATOM     21  C   UNL     1      10.875  11.799  20.162  0.00  0.00    +0.000 A 
ENDBRANCH  15  16
ENDBRANCH  14  15
ENDBRANCH  13  14
ENDBRANCH  11  13
ENDBRANCH   1  10
BRANCH   4  22
ATOM     22  S   UNL     1       4.089   1.640  18.380  0.00  0.00    +0.000 S 
BRANCH  22  23
ATOM     23  C   UNL     1       2.381   2.059  17.865  0.00  0.00    +0.000 C 
BRANCH  23  24
ATOM     24  C   UNL     1       1.408   2.296  19.062  0.00  0.00    +0.000 C 
BRANCH  24  25
ATOM     25  N   UNL     1       0.778   3.636  19.124  0.00  0.00    +0.000 NA
ATOM     26  C   UNL     1       1.276   4.620  18.137  0.00  0.00    +0.000 C 
ATOM     27  C   UNL     1       2.587   5.342  18.507  0.00  0.00    +0.000 C 
ATOM     28  O   UNL     1       2.508   5.946  19.806  0.00  0.00    +0.000 OA
ATOM     29  C   UNL     1       2.192   4.960  20.796  0.00  0.00    +0.000 C 
ATOM     30  C   UNL     1       0.856   4.258  20.472  0.00  0.00    +0.000 C 
ENDBRANCH  24  25
ENDBRANCH  23  24
ENDBRANCH  22  23
ENDBRANCH   4  22
TORSDOF 9
ENDMDL
MODEL 4
REMARK VINA RESULT:      -7.3      3.162      9.036
REMARK  Name = 
REMARK  9 active torsions:
REMARK  status: ('A' for Active; 'I' for Inactive)
REMARK    1  A    between atoms: C_2  and  C_13
REMARK    2  A    between atoms: N_3  and  C_4
REMARK    3  A    between atoms: C_4  and  C_5
REMARK    4  A    between atoms: C_5  and  C_6
REMARK    5  A    between atoms: C_6  and  C_7
REMARK    6  A    between atoms: C_16  and  S_17
REMARK    7  A    between atoms: S_17  and  C_18
REMARK    8  A    between atoms: C_18  and  C_19
REMARK    9  A    between atoms: C_19  and  N_20
REMARK                            x       y       z     vdW  Elec       q    Type
REMARK                         _______ _______ _______ _____ _____    ______ ____
ROOT
ATOM      1  C   UNL     1       6.567   5.982  18.117  0.00  0.00    +0.000 A 
ATOM      2  C   UNL     1       6.166   6.979  17.300  0.00  0.00    +0.000 A 
ATOM      3  N   UNL     1       6.823   8.186  17.116  0.00  0.00    +0.000 NA
ATOM      4  C   UNL     1       7.878   8.377  17.824  0.00  0.00    +0.000 A 
ATOM      5  N   UNL     1       8.368   7.462  18.711  0.00  0.00    +0.000 N 
ATOM      6  C   UNL     1       7.802   6.240  18.875  0.00  0.00    +0.000 A 
ATOM      7  O   UNL     1       8.305   5.402  19.638  0.00  0.00    +0.000 OA
ATOM      8  H   UNL     1       9.209   7.666  19.221  0.00  0.00    +0.000 HD
ENDROOT
BRANCH   1  10
ATOM      9  O   UNL     1       5.823   4.036  19.272  0.00  0.00    +0.000 OA
ATOM     10  C   UNL     1       5.771   4.725  18.250  0.00  0.00    +0.000 C 
ATOM     11  N   UNL     1       5.020   4.368  17.153  0.00  0.00    +0.000 N 
ATOM     12  H   UNL     1       5.143   4.883  16.281  0.00  0.00    +0.000 HD
BRANCH  11  13
ATOM     13  C   UNL     1       4.215   3.162  17.134  0.00  0.00    +0.000 C 
BRANCH  13  14
ATOM     14  C   UNL     1       2.746   3.443  16.807  0.00  0.00    +0.000 C 
BRANCH  14  15
ATOM     15  C   UNL     1       2.171   4.540  17.714  0.00  0.00    +0.000 C 
BRANCH  15  16
ATOM     16  C   UNL     1       1.988   4.089  19.144  0.00  0.00    +0.000 A 
ATOM     17  C   UNL     1       2.490   4.856  20.205  0.00  0.00    +0.000 A 
ATOM     18  C   UNL     1       2.381   4.404  21.523  0.00  0.00    +0.000 A 
ATOM     19  C   UNL     1       1.756   3.190  21.796  0.00  0.00    +0.000 A 
ATOM     20  C   UNL     1       1.229   2.431  20.752  0.00  0.00    +0.000 A 
ATOM     21  C   UNL     1       1.348   2.875  19.433  0.00  0.00    +0.000 A 
ENDBRANCH  15  16
ENDBRANCH  14  15
ENDBRANCH  13  14
ENDBRANCH  11  13
ENDBRANCH   1  10
BRANCH   4  22
ATOM     22  S   UNL     1       8.875   9.814  17.768  0.00  0.00    +0.000 S 
BRANCH  22  23
ATOM     23  C   UNL     1       9.117  10.144  19.554  0.00  0.00    +0.000 C 
BRANCH  23  24
ATOM     24  C   UNL     1      10.364  11.030  19.863  0.00  0.00    +0.000 C 
BRANCH  24  25
ATOM     25  N   UNL     1      10.076  12.413  20.310  0.00  0.00    +0.000 NA
ATOM     26  C   UNL     1       8.870  13.035  19.719  0.00  0.00    +0.000 C 
ATOM     27  C   UNL     1       9.045  13.645  18.312  0.00  0.00    +0.000 C 
ATOM     28  O   UNL     1      10.144  14.566  18.271  0.00  0.00    +0.000 OA
ATOM     29  C   UNL     1      11.354  13.918  18.683  0.00  0.00    +0.000 C 
ATOM     30  C   UNL     1      11.218  13.344  20.108  0.00  0.00    +0.000 C 
ENDBRANCH  24  25
ENDBRANCH  23  24
ENDBRANCH  22  23
ENDBRANCH   4  22
TORSDOF 9
ENDMDL
MODEL 5
REMARK VINA RESULT:      -7.3      4.032      8.482
REMARK  Name = 
REMARK  9 active torsions:
REMARK  status: ('A' for Active; 'I' for Inactive)
REMARK    1  A    between atoms: C_2  and  C_13
REMARK    2  A    between atoms: N_3  and  C_4
REMARK    3  A    between atoms: C_4  and  C_5
REMARK    4  A    between atoms: C_5  and  C_6
REMARK    5  A    between atoms: C_6  and  C_7
REMARK    6  A    between atoms: C_16  and  S_17
REMARK    7  A    between atoms: S_17  and  C_18
REMARK    8  A    between atoms: C_18  and  C_19
REMARK    9  A    between atoms: C_19  and  N_20
REMARK                            x       y       z     vdW  Elec       q    Type
REMARK                         _______ _______ _______ _____ _____    ______ ____
ROOT
ATOM      1  C   UNL     1       1.775   7.549  20.187  0.00  0.00    +0.000 A 
ATOM      2  C   UNL     1       1.448   6.525  21.004  0.00  0.00    +0.000 A 
ATOM      3  N   UNL     1       1.710   5.185  20.766  0.00  0.00    +0.000 NA
ATOM      4  C   UNL     1       2.271   4.903  19.644  0.00  0.00    +0.000 A 
ATOM      5  N   UNL     1       2.619   5.842  18.716  0.00  0.00    +0.000 N 
ATOM      6  C   UNL     1       2.449   7.170  18.934  0.00  0.00    +0.000 A 
ATOM      7  O   UNL     1       2.835   8.007  18.104  0.00  0.00    +0.000 OA
ATOM      8  H   UNL     1       3.072   5.556  17.866  0.00  0.00    +0.000 HD
ENDROOT
BRANCH   1  10
ATOM      9  O   UNL     1       1.486   9.363  21.703  0.00  0.00    +0.000 OA
ATOM     10  C   UNL     1       1.431   8.959  20.539  0.00  0.00    +0.000 C 
ATOM     11  N   UNL     1       1.011   9.754  19.497  0.00  0.00    +0.000 N 
ATOM     12  H   UNL     1       0.828   9.325  18.590  0.00  0.00    +0.000 HD
BRANCH  11  13
ATOM     13  C   UNL     1       0.626  11.139  19.696  0.00  0.00    +0.000 C 
BRANCH  13  14
ATOM     14  C   UNL     1      -0.894  11.322  19.751  0.00  0.00    +0.000 C 
BRANCH  14  15
ATOM     15  C   UNL     1      -1.626  10.088  19.208  0.00  0.00    +0.000 C 
BRANCH  15  16
ATOM     16  C   UNL     1      -2.374  10.362  17.924  0.00  0.00    +0.000 A 
ATOM     17  C   UNL     1      -3.531  11.154  17.927  0.00  0.00    +0.000 A 
ATOM     18  C   UNL     1      -4.261  11.350  16.750  0.00  0.00    +0.000 A 
ATOM     19  C   UNL     1      -3.832  10.772  15.558  0.00  0.00    +0.000 A 
ATOM     20  C   UNL     1      -2.668  10.007  15.537  0.00  0.00    +0.000 A 
ATOM     21  C   UNL     1      -1.945   9.799  16.714  0.00  0.00    +0.000 A 
ENDBRANCH  15  16
ENDBRANCH  14  15
ENDBRANCH  13  14
ENDBRANCH  11  13
ENDBRANCH   1  10
BRANCH   4  22
ATOM     22  S   UNL     1       2.701   3.290  19.118  0.00  0.00    +0.000 S 
BRANCH  22  23
ATOM     23  C   UNL     1       4.438   3.544  18.592  0.00  0.00    +0.000 C 
BRANCH  23  24
ATOM     24  C   UNL     1       4.621   3.593  17.043  0.00  0.00    +0.000 C 
BRANCH  24  25
ATOM     25  N   UNL     1       4.755   4.945  16.452  0.00  0.00    +0.000 NA
ATOM     26  C   UNL     1       5.213   4.981  15.044  0.00  0.00    +0.000 C 
ATOM     27  C   UNL     1       6.735   4.856  14.826  0.00  0.00    +0.000 C 
ATOM     28  O   UNL     1       7.459   5.820  15.603  0.00  0.00    +0.000 OA
ATOM     29  C   UNL     1       7.147   5.675  16.995  0.00  0.00    +0.000 C 
ATOM     30  C   UNL     1       5.633   5.847  17.243  0.00  0.00    +0.000 C 
ENDBRANCH  24  25
ENDBRANCH  23  24
ENDBRANCH  22  23
ENDBRANCH   4  22
TORSDOF 9
ENDMDL
MODEL 6
REMARK VINA RESULT:      -7.3      3.324      9.087
REMARK  Name = 
REMARK  9 active torsions:
REMARK  status: ('A' for Active; 'I' for Inactive)
REMARK    1  A    between atoms: C_2  and  C_13
REMARK    2  A    between atoms: N_3  and  C_4
REMARK    3  A    between atoms: C_4  and  C_5
REMARK    4  A    between atoms: C_5  and  C_6
REMARK    5  A    between atoms: C_6  and  C_7
REMARK    6  A    between atoms: C_16  and  S_17
REMARK    7  A    between atoms: S_17  and  C_18
REMARK    8  A    between atoms: C_18  and  C_19
REMARK    9  A    between atoms: C_19  and  N_20
REMARK                            x       y       z     vdW  Elec       q    Type
REMARK                         _______ _______ _______ _____ _____    ______ ____
ROOT
ATOM      1  C   UNL     1       7.267   6.336  17.539  0.00  0.00    +0.000 A 
ATOM      2  C   UNL     1       7.215   7.532  16.914  0.00  0.00    +0.000 A 
ATOM      3  N   UNL     1       7.817   8.701  17.354  0.00  0.00    +0.000 NA
ATOM      4  C   UNL     1       8.436   8.637  18.478  0.00  0.00    +0.000 A 
ATOM      5  N   UNL     1       8.532   7.498  19.225  0.00  0.00    +0.000 N 
ATOM      6  C   UNL     1       8.021   6.314  18.804  0.00  0.00    +0.000 A 
ATOM      7  O   UNL     1       8.179   5.279  19.468  0.00  0.00    +0.000 OA
ATOM      8  H   UNL     1       9.047   7.511  20.087  0.00  0.00    +0.000 HD
ENDROOT
BRANCH   1  10
ATOM      9  O   UNL     1       6.929   4.619  15.924  0.00  0.00    +0.000 OA
ATOM     10  C   UNL     1       6.567   5.141  16.981  0.00  0.00    +0.000 C 
ATOM     11  N   UNL     1       5.477   4.694  17.693  0.00  0.00    +0.000 N 
ATOM     12  H   UNL     1       5.126   5.259  18.465  0.00  0.00    +0.000 HD
BRANCH  11  13
ATOM     13  C   UNL     1       4.691   3.555  17.258  0.00  0.00    +0.000 C 
BRANCH  13  14
ATOM     14  C   UNL     1       3.293   3.957  16.778  0.00  0.00    +0.000 C 
BRANCH  14  15
ATOM     15  C   UNL     1       2.603   4.887  17.786  0.00  0.00    +0.000 C 
BRANCH  15  16
ATOM     16  C   UNL     1       2.207   4.183  19.063  0.00  0.00    +0.000 A 
ATOM     17  C   UNL     1       1.345   3.077  19.032  0.00  0.00    +0.000 A 
ATOM     18  C   UNL     1       0.924   2.470  20.219  0.00  0.00    +0.000 A 
ATOM     19  C   UNL     1       1.373   2.950  21.446  0.00  0.00    +0.000 A 
ATOM     20  C   UNL     1       2.252   4.031  21.489  0.00  0.00    +0.000 A 
ATOM     21  C   UNL     1       2.663   4.647  20.305  0.00  0.00    +0.000 A 
ENDBRANCH  15  16
ENDBRANCH  14  15
ENDBRANCH  13  14
ENDBRANCH  11  13
ENDBRANCH   1  10
BRANCH   4  22
ATOM     22  S   UNL     1       9.273   9.974  19.238  0.00  0.00    +0.000 S 
BRANCH  22  23
ATOM     23  C   UNL     1       9.136  11.258  17.938  0.00  0.00    +0.000 C 
BRANCH  23  24
ATOM     24  C   UNL     1      10.482  11.984  17.633  0.00  0.00    +0.000 C 
BRANCH  24  25
ATOM     25  N   UNL     1      10.556  13.405  18.047  0.00  0.00    +0.000 NA
ATOM     26  C   UNL     1      11.339  13.670  19.275  0.00  0.00    +0.000 C 
ATOM     27  C   UNL     1      10.600  13.436  20.609  0.00  0.00    +0.000 C 
ATOM     28  O   UNL     1       9.357  14.149  20.654  0.00  0.00    +0.000 OA
ATOM     29  C   UNL     1       8.521  13.768  19.554  0.00  0.00    +0.000 C 
ATOM     30  C   UNL     1       9.222  14.040  18.207  0.00  0.00    +0.000 C 
ENDBRANCH  24  25
ENDBRANCH  23  24
ENDBRANCH  22  23
ENDBRANCH   4  22
TORSDOF 9
ENDMDL
MODEL 7
REMARK VINA RESULT:      -7.2      4.508      7.152
REMARK  Name = 
REMARK  9 active torsions:
REMARK  status: ('A' for Active; 'I' for Inactive)
REMARK    1  A    between atoms: C_2  and  C_13
REMARK    2  A    between atoms: N_3  and  C_4
REMARK    3  A    between atoms: C_4  and  C_5
REMARK    4  A    between atoms: C_5  and  C_6
REMARK    5  A    between atoms: C_6  and  C_7
REMARK    6  A    between atoms: C_16  and  S_17
REMARK    7  A    between atoms: S_17  and  C_18
REMARK    8  A    between atoms: C_18  and  C_19
REMARK    9  A    between atoms: C_19  and  N_20
REMARK                            x       y       z     vdW  Elec       q    Type
REMARK                         _______ _______ _______ _____ _____    ______ ____
ROOT
ATOM      1  C   UNL     1       1.948   8.224  18.754  0.00  0.00    +0.000 A 
ATOM      2  C   UNL     1       2.414   7.362  17.826  0.00  0.00    +0.000 A 
ATOM      3  N   UNL     1       2.814   6.056  18.064  0.00  0.00    +0.000 NA
ATOM      4  C   UNL     1       2.776   5.661  19.287  0.00  0.00    +0.000 A 
ATOM      5  N   UNL     1       2.359   6.447  20.323  0.00  0.00    +0.000 N 
ATOM      6  C   UNL     1       1.892   7.706  20.131  0.00  0.00    +0.000 A 
ATOM      7  O   UNL     1       1.456   8.376  21.079  0.00  0.00    +0.000 OA
ATOM      8  H   UNL     1       2.337   6.071  21.254  0.00  0.00    +0.000 HD
ENDROOT
BRANCH   1  10
ATOM      9  O   UNL     1       2.187  10.262  17.544  0.00  0.00    +0.000 OA
ATOM     10  C   UNL     1       1.557   9.618  18.387  0.00  0.00    +0.000 C 
ATOM     11  N   UNL     1       0.486  10.144  19.073  0.00  0.00    +0.000 N 
ATOM     12  H   UNL     1       0.109   9.631  19.869  0.00  0.00    +0.000 HD
BRANCH  11  13
ATOM     13  C   UNL     1       0.010  11.493  18.834  0.00  0.00    +0.000 C 
BRANCH  13  14
ATOM     14  C   UNL     1       0.634  12.514  19.789  0.00  0.00    +0.000 C 
BRANCH  14  15
ATOM     15  C   UNL     1       1.729  13.334  19.092  0.00  0.00    +0.000 C 
BRANCH  15  16
ATOM     16  C   UNL     1       1.301  14.751  18.787  0.00  0.00    +0.000 A 
ATOM     17  C   UNL     1       2.254  15.739  18.500  0.00  0.00    +0.000 A 
ATOM     18  C   UNL     1       1.862  17.064  18.286  0.00  0.00    +0.000 A 
ATOM     19  C   UNL     1       0.515  17.411  18.340  0.00  0.00    +0.000 A 
ATOM     20  C   UNL     1      -0.444  16.433  18.596  0.00  0.00    +0.000 A 
ATOM     21  C   UNL     1      -0.054  15.112  18.823  0.00  0.00    +0.000 A 
ENDBRANCH  15  16
ENDBRANCH  14  15
ENDBRANCH  13  14
ENDBRANCH  11  13
ENDBRANCH   1  10
BRANCH   4  22
ATOM     22  S   UNL     1       3.229   4.062  19.837  0.00  0.00    +0.000 S 
BRANCH  22  23
ATOM     23  C   UNL     1       4.904   3.903  19.112  0.00  0.00    +0.000 C 
BRANCH  23  24
ATOM     24  C   UNL     1       5.815   5.144  19.365  0.00  0.00    +0.000 C 
BRANCH  24  25
ATOM     25  N   UNL     1       7.171   5.081  18.772  0.00  0.00    +0.000 NA
ATOM     26  C   UNL     1       7.919   6.358  18.756  0.00  0.00    +0.000 C 
ATOM     27  C   UNL     1       7.580   7.323  17.600  0.00  0.00    +0.000 C 
ATOM     28  O   UNL     1       7.686   6.675  16.325  0.00  0.00    +0.000 OA
ATOM     29  C   UNL     1       6.829   5.527  16.276  0.00  0.00    +0.000 C 
ATOM     30  C   UNL     1       7.183   4.524  17.394  0.00  0.00    +0.000 C 
ENDBRANCH  24  25
ENDBRANCH  23  24
ENDBRANCH  22  23
ENDBRANCH   4  22
TORSDOF 9
ENDMDL
MODEL 8
REMARK VINA RESULT:      -7.2      3.822      7.247
REMARK  Name = 
REMARK  9 active torsions:
REMARK  status: ('A' for Active; 'I' for Inactive)
REMARK    1  A    between atoms: C_2  and  C_13
REMARK    2  A    between atoms: N_3  and  C_4
REMARK    3  A    between atoms: C_4  and  C_5
REMARK    4  A    between atoms: C_5  and  C_6
REMARK    5  A    between atoms: C_6  and  C_7
REMARK    6  A    between atoms: C_16  and  S_17
REMARK    7  A    between atoms: S_17  and  C_18
REMARK    8  A    between atoms: C_18  and  C_19
REMARK    9  A    between atoms: C_19  and  N_20
REMARK                            x       y       z     vdW  Elec       q    Type
REMARK                         _______ _______ _______ _____ _____    ______ ____
ROOT
ATOM      1  C   UNL     1       1.634   8.082  20.189  0.00  0.00    +0.000 A 
ATOM      2  C   UNL     1       1.741   6.852  20.735  0.00  0.00    +0.000 A 
ATOM      3  N   UNL     1       2.249   5.728  20.101  0.00  0.00    +0.000 NA
ATOM      4  C   UNL     1       2.602   5.874  18.874  0.00  0.00    +0.000 A 
ATOM      5  N   UNL     1       2.510   7.056  18.197  0.00  0.00    +0.000 N 
ATOM      6  C   UNL     1       2.087   8.199  18.793  0.00  0.00    +0.000 A 
ATOM      7  O   UNL     1       2.076   9.274  18.176  0.00  0.00    +0.000 OA
ATOM      8  H   UNL     1       2.820   7.108  17.243  0.00  0.00    +0.000 HD
ENDROOT
BRANCH   1  10
ATOM      9  O   UNL     1       1.453   9.496  22.097  0.00  0.00    +0.000 OA
ATOM     10  C   UNL     1       1.056   9.222  20.962  0.00  0.00    +0.000 C 
ATOM     11  N   UNL     1       0.034   9.910  20.348  0.00  0.00    +0.000 N 
ATOM     12  H   UNL     1      -0.362   9.539  19.485  0.00  0.00    +0.000 HD
BRANCH  11  13
ATOM     13  C   UNL     1      -0.633  11.026  20.990  0.00  0.00    +0.000 C 
BRANCH  13  14
ATOM     14  C   UNL     1      -1.199  12.030  19.981  0.00  0.00    +0.000 C 
BRANCH  14  15
ATOM     15  C   UNL     1      -0.389  12.029  18.677  0.00  0.00    +0.000 C 
BRANCH  15  16
ATOM     16  C   UNL     1       0.628  13.146  18.614  0.00  0.00    +0.000 A 
ATOM     17  C   UNL     1       1.971  12.873  18.318  0.00  0.00    +0.000 A 
ATOM     18  C   UNL     1       2.923  13.896  18.327  0.00  0.00    +0.000 A 
ATOM     19  C   UNL     1       2.540  15.204  18.615  0.00  0.00    +0.000 A 
ATOM     20  C   UNL     1       1.203  15.492  18.882  0.00  0.00    +0.000 A 
ATOM     21  C   UNL     1       0.253  14.469  18.887  0.00  0.00    +0.000 A 
ENDBRANCH  15  16
ENDBRANCH  14  15
ENDBRANCH  13  14
ENDBRANCH  11  13
ENDBRANCH   1  10
BRANCH   4  22
ATOM     22  S   UNL     1       3.270   4.609  17.866  0.00  0.00    +0.000 S 
BRANCH  22  23
ATOM     23  C   UNL     1       4.680   4.050  18.894  0.00  0.00    +0.000 C 
BRANCH  23  24
ATOM     24  C   UNL     1       5.661   5.198  19.288  0.00  0.00    +0.000 C 
BRANCH  24  25
ATOM     25  N   UNL     1       7.036   5.085  18.747  0.00  0.00    +0.000 NA
ATOM     26  C   UNL     1       7.828   6.336  18.756  0.00  0.00    +0.000 C 
ATOM     27  C   UNL     1       7.567   7.307  17.586  0.00  0.00    +0.000 C 
ATOM     28  O   UNL     1       7.699   6.650  16.318  0.00  0.00    +0.000 OA
ATOM     29  C   UNL     1       6.806   5.532  16.239  0.00  0.00    +0.000 C 
ATOM     30  C   UNL     1       7.082   4.522  17.372  0.00  0.00    +0.000 C 
ENDBRANCH  24  25
ENDBRANCH  23  24
ENDBRANCH  22  23
ENDBRANCH   4  22
TORSDOF 9
ENDMDL
MODEL 9
REMARK VINA RESULT:      -7.2      5.223      8.703
REMARK  Name = 
REMARK  9 active torsions:
REMARK  status: ('A' for Active; 'I' for Inactive)
REMARK    1  A    between atoms: C_2  and  C_13
REMARK    2  A    between atoms: N_3  and  C_4
REMARK    3  A    between atoms: C_4  and  C_5
REMARK    4  A    between atoms: C_5  and  C_6
REMARK    5  A    between atoms: C_6  and  C_7
REMARK    6  A    between atoms: C_16  and  S_17
REMARK    7  A    between atoms: S_17  and  C_18
REMARK    8  A    between atoms: C_18  and  C_19
REMARK    9  A    between atoms: C_19  and  N_20
REMARK                            x       y       z     vdW  Elec       q    Type
REMARK                         _______ _______ _______ _____ _____    ______ ____
ROOT
ATOM      1  C   UNL     1       2.752   7.095  19.106  0.00  0.00    +0.000 A 
ATOM      2  C   UNL     1       2.154   6.985  20.311  0.00  0.00    +0.000 A 
ATOM      3  N   UNL     1       1.211   7.860  20.828  0.00  0.00    +0.000 NA
ATOM      4  C   UNL     1       0.925   8.885  20.107  0.00  0.00    +0.000 A 
ATOM      5  N   UNL     1       1.486   9.129  18.886  0.00  0.00    +0.000 N 
ATOM      6  C   UNL     1       2.359   8.267  18.307  0.00  0.00    +0.000 A 
ATOM      7  O   UNL     1       2.803   8.479  17.169  0.00  0.00    +0.000 OA
ATOM      8  H   UNL     1       1.205   9.940  18.364  0.00  0.00    +0.000 HD
ENDROOT
BRANCH   1  10
ATOM      9  O   UNL     1       4.681   5.728  19.397  0.00  0.00    +0.000 OA
ATOM     10  C   UNL     1       3.768   6.098  18.655  0.00  0.00    +0.000 C 
ATOM     11  N   UNL     1       3.645   5.658  17.356  0.00  0.00    +0.000 N 
ATOM     12  H   UNL     1       2.975   6.118  16.740  0.00  0.00    +0.000 HD
BRANCH  11  13
ATOM     13  C   UNL     1       4.573   4.705  16.778  0.00  0.00    +0.000 C 
BRANCH  13  14
ATOM     14  C   UNL     1       4.202   3.255  17.100  0.00  0.00    +0.000 C 
BRANCH  14  15
ATOM     15  C   UNL     1       2.691   3.101  17.322  0.00  0.00    +0.000 C 
BRANCH  15  16
ATOM     16  C   UNL     1       2.315   3.022  18.784  0.00  0.00    +0.000 A 
ATOM     17  C   UNL     1       1.069   3.489  19.227  0.00  0.00    +0.000 A 
ATOM     18  C   UNL     1       0.749   3.479  20.587  0.00  0.00    +0.000 A 
ATOM     19  C   UNL     1       1.663   2.988  21.516  0.00  0.00    +0.000 A 
ATOM     20  C   UNL     1       2.893   2.495  21.085  0.00  0.00    +0.000 A 
ATOM     21  C   UNL     1       3.220   2.516  19.728  0.00  0.00    +0.000 A 
ENDBRANCH  15  16
ENDBRANCH  14  15
ENDBRANCH  13  14
ENDBRANCH  11  13
ENDBRANCH   1  10
BRANCH   4  22
ATOM     22  S   UNL     1      -0.231  10.125  20.542  0.00  0.00    +0.000 S 
BRANCH  22  23
ATOM     23  C   UNL     1      -0.126  10.077  22.370  0.00  0.00    +0.000 C 
BRANCH  23  24
ATOM     24  C   UNL     1      -1.185  10.976  23.081  0.00  0.00    +0.000 C 
BRANCH  24  25
ATOM     25  N   UNL     1      -1.661  12.146  22.306  0.00  0.00    +0.000 NA
ATOM     26  C   UNL     1      -0.914  13.404  22.529  0.00  0.00    +0.000 C 
ATOM     27  C   UNL     1      -1.312  14.212  23.782  0.00  0.00    +0.000 C 
ATOM     28  O   UNL     1      -2.723  14.465  23.818  0.00  0.00    +0.000 OA
ATOM     29  C   UNL     1      -3.453  13.232  23.774  0.00  0.00    +0.000 C 
ATOM     30  C   UNL     1      -3.107  12.430  22.502  0.00  0.00    +0.000 C 
ENDBRANCH  24  25
ENDBRANCH  23  24
ENDBRANCH  22  23
ENDBRANCH   4  22
TORSDOF 9
ENDMDL
