MODEL 1
REMARK VINA RESULT:      -8.4      0.000      0.000
REMARK  Name = 
REMARK  2 active torsions:
REMARK  status: ('A' for Active; 'I' for Inactive)
REMARK    1  A    between atoms: C_6  and  C_7
REMARK    2  A    between atoms: N_9  and  C_10
REMARK                            x       y       z     vdW  Elec       q    Type
REMARK                         _______ _______ _______ _____ _____    ______ ____
ROOT
ATOM      1  C   UNL     1       5.784   5.320  18.676  0.00  0.00    +0.000 C 
ATOM      2  O   UNL     1       6.080   4.827  19.766  0.00  0.00    +0.000 OA
ATOM      3  N   UNL     1       4.498   5.411  18.168  0.00  0.00    +0.000 N 
ATOM      4  H   UNL     1       4.388   5.513  17.161  0.00  0.00    +0.000 HD
ENDROOT
BRANCH   1  10
ATOM      5  O   UNL     1       6.768   4.561  13.852  0.00  0.00    +0.000 OA
ATOM      6  C   UNL     1       6.801   4.931  15.021  0.00  0.00    +0.000 C 
ATOM      7  N   UNL     1       6.242   6.107  15.413  0.00  0.00    +0.000 N 
ATOM      8  C   UNL     1       6.279   6.636  16.670  0.00  0.00    +0.000 C 
ATOM      9  O   UNL     1       5.805   7.747  16.900  0.00  0.00    +0.000 OA
ATOM     10  C   UNL     1       6.880   5.804  17.760  0.00  0.00    +0.000 C 
ATOM     11  C   UNL     1       7.679   4.630  17.262  0.00  0.00    +0.000 C 
ATOM     12  O   UNL     1       8.495   4.043  17.971  0.00  0.00    +0.000 OA
ATOM     13  N   UNL     1       7.449   4.218  15.980  0.00  0.00    +0.000 N 
ATOM     14  H   UNL     1       5.800   6.658  14.690  0.00  0.00    +0.000 HD
ATOM     15  H   UNL     1       7.939   3.390  15.670  0.00  0.00    +0.000 HD
ENDBRANCH   1  10
BRANCH   3  16
ATOM     16  C   UNL     1       3.313   5.061  18.875  0.00  0.00    +0.000 A 
ATOM     17  C   UNL     1       2.851   5.832  19.949  0.00  0.00    +0.000 A 
ATOM     18  C   UNL     1       1.730   5.448  20.683  0.00  0.00    +0.000 A 
ATOM     19  C   UNL     1       1.037   4.294  20.338  0.00  0.00    +0.000 A 
ATOM     20  C   UNL     1       1.447   3.537  19.238  0.00  0.00    +0.000 A 
ATOM     21 CL   UNL     1       0.517   2.127  18.864  0.00  0.00    +0.000 Cl
ATOM     22  C   UNL     1       2.577   3.920  18.495  0.00  0.00    +0.000 A 
ATOM     23 CL   UNL     1       3.099   2.990  17.123  0.00  0.00    +0.000 Cl
ENDBRANCH   3  16
TORSDOF 2
ENDMDL
MODEL 2
REMARK VINA RESULT:      -8.2      1.505      2.532
REMARK  Name = 
REMARK  2 active torsions:
REMARK  status: ('A' for Active; 'I' for Inactive)
REMARK    1  A    between atoms: C_6  and  C_7
REMARK    2  A    between atoms: N_9  and  C_10
REMARK                            x       y       z     vdW  Elec       q    Type
REMARK                         _______ _______ _______ _____ _____    ______ ____
ROOT
ATOM      1  C   UNL     1       5.826   4.598  18.633  0.00  0.00    +0.000 C 
ATOM      2  O   UNL     1       5.877   3.625  19.389  0.00  0.00    +0.000 OA
ATOM      3  N   UNL     1       4.677   5.310  18.330  0.00  0.00    +0.000 N 
ATOM      4  H   UNL     1       4.665   5.856  17.471  0.00  0.00    +0.000 HD
ENDROOT
BRANCH   1  10
ATOM      5  O   UNL     1       7.843   9.056  17.699  0.00  0.00    +0.000 OA
ATOM      6  C   UNL     1       7.610   7.853  17.760  0.00  0.00    +0.000 C 
ATOM      7  N   UNL     1       8.136   7.074  18.742  0.00  0.00    +0.000 N 
ATOM      8  C   UNL     1       7.990   5.722  18.861  0.00  0.00    +0.000 C 
ATOM      9  O   UNL     1       8.573   5.101  19.748  0.00  0.00    +0.000 OA
ATOM     10  C   UNL     1       7.071   5.032  17.901  0.00  0.00    +0.000 C 
ATOM     11  C   UNL     1       6.692   5.869  16.710  0.00  0.00    +0.000 C 
ATOM     12  O   UNL     1       6.229   5.376  15.682  0.00  0.00    +0.000 OA
ATOM     13  N   UNL     1       6.865   7.220  16.816  0.00  0.00    +0.000 N 
ATOM     14  H   UNL     1       8.727   7.538  19.417  0.00  0.00    +0.000 HD
ATOM     15  H   UNL     1       6.549   7.785  16.039  0.00  0.00    +0.000 HD
ENDBRANCH   1  10
BRANCH   3  16
ATOM     16  C   UNL     1       3.404   5.105  18.937  0.00  0.00    +0.000 A 
ATOM     17  C   UNL     1       2.913   5.984  19.911  0.00  0.00    +0.000 A 
ATOM     18  C   UNL     1       1.699   5.742  20.553  0.00  0.00    +0.000 A 
ATOM     19  C   UNL     1       0.944   4.627  20.212  0.00  0.00    +0.000 A 
ATOM     20  C   UNL     1       1.388   3.764  19.206  0.00  0.00    +0.000 A 
ATOM     21 CL   UNL     1       0.380   2.410  18.830  0.00  0.00    +0.000 Cl
ATOM     22  C   UNL     1       2.612   4.003  18.556  0.00  0.00    +0.000 A 
ATOM     23 CL   UNL     1       3.177   2.941  17.303  0.00  0.00    +0.000 Cl
ENDBRANCH   3  16
TORSDOF 2
ENDMDL
MODEL 3
REMARK VINA RESULT:      -8.2      1.753      2.715
REMARK  Name = 
REMARK  2 active torsions:
REMARK  status: ('A' for Active; 'I' for Inactive)
REMARK    1  A    between atoms: C_6  and  C_7
REMARK    2  A    between atoms: N_9  and  C_10
REMARK                            x       y       z     vdW  Elec       q    Type
REMARK                         _______ _______ _______ _____ _____    ______ ____
ROOT
ATOM      1  C   UNL     1       5.393   5.381  18.077  0.00  0.00    +0.000 C 
ATOM      2  O   UNL     1       4.681   6.071  17.345  0.00  0.00    +0.000 OA
ATOM      3  N   UNL     1       4.936   4.618  19.140  0.00  0.00    +0.000 N 
ATOM      4  H   UNL     1       5.602   4.366  19.869  0.00  0.00    +0.000 HD
ENDROOT
BRANCH   1  10
ATOM      5  O   UNL     1       8.764   9.048  17.995  0.00  0.00    +0.000 OA
ATOM      6  C   UNL     1       8.202   7.958  17.962  0.00  0.00    +0.000 C 
ATOM      7  N   UNL     1       8.084   7.182  19.072  0.00  0.00    +0.000 N 
ATOM      8  C   UNL     1       7.535   5.934  19.128  0.00  0.00    +0.000 C 
ATOM      9  O   UNL     1       7.548   5.286  20.173  0.00  0.00    +0.000 OA
ATOM     10  C   UNL     1       6.889   5.400  17.887  0.00  0.00    +0.000 C 
ATOM     11  C   UNL     1       7.230   6.171  16.640  0.00  0.00    +0.000 C 
ATOM     12  O   UNL     1       7.067   5.703  15.515  0.00  0.00    +0.000 OA
ATOM     13  N   UNL     1       7.718   7.437  16.803  0.00  0.00    +0.000 N 
ATOM     14  H   UNL     1       8.484   7.552  19.924  0.00  0.00    +0.000 HD
ATOM     15  H   UNL     1       7.885   7.975  15.964  0.00  0.00    +0.000 HD
ENDBRANCH   1  10
BRANCH   3  16
ATOM     16  C   UNL     1       3.566   4.416  19.473  0.00  0.00    +0.000 A 
ATOM     17  C   UNL     1       2.896   5.276  20.352  0.00  0.00    +0.000 A 
ATOM     18  C   UNL     1       1.576   5.035  20.730  0.00  0.00    +0.000 A 
ATOM     19  C   UNL     1       0.896   3.939  20.214  0.00  0.00    +0.000 A 
ATOM     20  C   UNL     1       1.526   3.097  19.295  0.00  0.00    +0.000 A 
ATOM     21 CL   UNL     1       0.602   1.767  18.686  0.00  0.00    +0.000 Cl
ATOM     22  C   UNL     1       2.858   3.335  18.911  0.00  0.00    +0.000 A 
ATOM     23 CL   UNL     1       3.654   2.297  17.767  0.00  0.00    +0.000 Cl
ENDBRANCH   3  16
TORSDOF 2
ENDMDL
MODEL 4
REMARK VINA RESULT:      -8.1      2.208      3.246
REMARK  Name = 
REMARK  2 active torsions:
REMARK  status: ('A' for Active; 'I' for Inactive)
REMARK    1  A    between atoms: C_6  and  C_7
REMARK    2  A    between atoms: N_9  and  C_10
REMARK                            x       y       z     vdW  Elec       q    Type
REMARK                         _______ _______ _______ _____ _____    ______ ____
ROOT
ATOM      1  C   UNL     1       5.765   4.728  17.803  0.00  0.00    +0.000 C 
ATOM      2  O   UNL     1       4.963   5.389  17.141  0.00  0.00    +0.000 OA
ATOM      3  N   UNL     1       5.423   3.712  18.681  0.00  0.00    +0.000 N 
ATOM      4  H   UNL     1       6.090   3.464  19.410  0.00  0.00    +0.000 HD
ENDROOT
BRANCH   1  10
ATOM      5  O   UNL     1       8.264   9.037  17.857  0.00  0.00    +0.000 OA
ATOM      6  C   UNL     1       7.955   7.851  17.822  0.00  0.00    +0.000 C 
ATOM      7  N   UNL     1       7.901   7.094  18.951  0.00  0.00    +0.000 N 
ATOM      8  C   UNL     1       7.630   5.758  19.012  0.00  0.00    +0.000 C 
ATOM      9  O   UNL     1       7.682   5.152  20.081  0.00  0.00    +0.000 OA
ATOM     10  C   UNL     1       7.233   5.068  17.743  0.00  0.00    +0.000 C 
ATOM     11  C   UNL     1       7.518   5.865  16.499  0.00  0.00    +0.000 C 
ATOM     12  O   UNL     1       7.566   5.347  15.385  0.00  0.00    +0.000 OA
ATOM     13  N   UNL     1       7.706   7.210  16.649  0.00  0.00    +0.000 N 
ATOM     14  H   UNL     1       8.130   7.561  19.817  0.00  0.00    +0.000 HD
ATOM     15  H   UNL     1       7.832   7.752  15.806  0.00  0.00    +0.000 HD
ENDBRANCH   1  10
BRANCH   3  16
ATOM     16  C   UNL     1       4.108   3.194  18.861  0.00  0.00    +0.000 A 
ATOM     17  C   UNL     1       3.754   1.924  18.389  0.00  0.00    +0.000 A 
ATOM     18  C   UNL     1       2.449   1.450  18.505  0.00  0.00    +0.000 A 
ATOM     19  C   UNL     1       1.478   2.233  19.117  0.00  0.00    +0.000 A 
ATOM     20  C   UNL     1       1.818   3.482  19.643  0.00  0.00    +0.000 A 
ATOM     21 CL   UNL     1       0.556   4.384  20.406  0.00  0.00    +0.000 Cl
ATOM     22  C   UNL     1       3.134   3.965  19.528  0.00  0.00    +0.000 A 
ATOM     23 CL   UNL     1       3.574   5.515  20.177  0.00  0.00    +0.000 Cl
ENDBRANCH   3  16
TORSDOF 2
ENDMDL
MODEL 5
REMARK VINA RESULT:      -8.0      2.121      3.035
REMARK  Name = 
REMARK  2 active torsions:
REMARK  status: ('A' for Active; 'I' for Inactive)
REMARK    1  A    between atoms: C_6  and  C_7
REMARK    2  A    between atoms: N_9  and  C_10
REMARK                            x       y       z     vdW  Elec       q    Type
REMARK                         _______ _______ _______ _____ _____    ______ ____
ROOT
ATOM      1  C   UNL     1       5.619   4.893  18.710  0.00  0.00    +0.000 C 
ATOM      2  O   UNL     1       5.279   5.606  19.657  0.00  0.00    +0.000 OA
ATOM      3  N   UNL     1       4.865   3.855  18.187  0.00  0.00    +0.000 N 
ATOM      4  H   UNL     1       5.349   3.132  17.657  0.00  0.00    +0.000 HD
ENDROOT
BRANCH   1  10
ATOM      5  O   UNL     1       8.342   8.923  17.634  0.00  0.00    +0.000 OA
ATOM      6  C   UNL     1       7.934   7.774  17.771  0.00  0.00    +0.000 C 
ATOM      7  N   UNL     1       8.236   7.038  18.873  0.00  0.00    +0.000 N 
ATOM      8  C   UNL     1       7.886   5.737  19.093  0.00  0.00    +0.000 C 
ATOM      9  O   UNL     1       8.278   5.140  20.094  0.00  0.00    +0.000 OA
ATOM     10  C   UNL     1       6.983   5.080  18.095  0.00  0.00    +0.000 C 
ATOM     11  C   UNL     1       6.855   5.832  16.799  0.00  0.00    +0.000 C 
ATOM     12  O   UNL     1       6.437   5.302  15.771  0.00  0.00    +0.000 OA
ATOM     13  N   UNL     1       7.208   7.152  16.805  0.00  0.00    +0.000 N 
ATOM     14  H   UNL     1       8.814   7.487  19.571  0.00  0.00    +0.000 HD
ATOM     15  H   UNL     1       7.060   7.670  15.950  0.00  0.00    +0.000 HD
ENDBRANCH   1  10
BRANCH   3  16
ATOM     16  C   UNL     1       3.535   3.530  18.580  0.00  0.00    +0.000 A 
ATOM     17  C   UNL     1       2.439   3.840  17.765  0.00  0.00    +0.000 A 
ATOM     18  C   UNL     1       1.134   3.585  18.183  0.00  0.00    +0.000 A 
ATOM     19  C   UNL     1       0.905   2.992  19.419  0.00  0.00    +0.000 A 
ATOM     20  C   UNL     1       1.985   2.625  20.227  0.00  0.00    +0.000 A 
ATOM     21 CL   UNL     1       1.615   1.874  21.740  0.00  0.00    +0.000 Cl
ATOM     22  C   UNL     1       3.303   2.881  19.809  0.00  0.00    +0.000 A 
ATOM     23 CL   UNL     1       4.656   2.430  20.802  0.00  0.00    +0.000 Cl
ENDBRANCH   3  16
TORSDOF 2
ENDMDL
MODEL 6
REMARK VINA RESULT:      -8.0      1.979      2.708
REMARK  Name = 
REMARK  2 active torsions:
REMARK  status: ('A' for Active; 'I' for Inactive)
REMARK    1  A    between atoms: C_6  and  C_7
REMARK    2  A    between atoms: N_9  and  C_10
REMARK                            x       y       z     vdW  Elec       q    Type
REMARK                         _______ _______ _______ _____ _____    ______ ____
ROOT
ATOM      1  C   UNL     1       5.659   4.524  18.149  0.00  0.00    +0.000 C 
ATOM      2  O   UNL     1       5.033   3.841  17.336  0.00  0.00    +0.000 OA
ATOM      3  N   UNL     1       5.108   5.138  19.262  0.00  0.00    +0.000 N 
ATOM      4  H   UNL     1       5.606   5.928  19.668  0.00  0.00    +0.000 HD
ENDROOT
BRANCH   1  10
ATOM      5  O   UNL     1       8.240   8.705  17.331  0.00  0.00    +0.000 OA
ATOM      6  C   UNL     1       7.904   7.539  17.504  0.00  0.00    +0.000 C 
ATOM      7  N   UNL     1       7.938   6.961  18.734  0.00  0.00    +0.000 N 
ATOM      8  C   UNL     1       7.646   5.659  19.021  0.00  0.00    +0.000 C 
ATOM      9  O   UNL     1       7.783   5.220  20.161  0.00  0.00    +0.000 OA
ATOM     10  C   UNL     1       7.122   4.801  17.911  0.00  0.00    +0.000 C 
ATOM     11  C   UNL     1       7.309   5.393  16.541  0.00  0.00    +0.000 C 
ATOM     12  O   UNL     1       7.246   4.713  15.518  0.00  0.00    +0.000 OA
ATOM     13  N   UNL     1       7.537   6.738  16.468  0.00  0.00    +0.000 N 
ATOM     14  H   UNL     1       8.254   7.545  19.497  0.00  0.00    +0.000 HD
ATOM     15  H   UNL     1       7.598   7.143  15.544  0.00  0.00    +0.000 HD
ENDBRANCH   1  10
BRANCH   3  16
ATOM     16  C   UNL     1       3.764   4.976  19.704  0.00  0.00    +0.000 A 
ATOM     17  C   UNL     1       2.825   6.006  19.572  0.00  0.00    +0.000 A 
ATOM     18  C   UNL     1       1.529   5.870  20.069  0.00  0.00    +0.000 A 
ATOM     19  C   UNL     1       1.145   4.686  20.687  0.00  0.00    +0.000 A 
ATOM     20  C   UNL     1       2.048   3.625  20.784  0.00  0.00    +0.000 A 
ATOM     21 CL   UNL     1       1.485   2.181  21.551  0.00  0.00    +0.000 Cl
ATOM     22  C   UNL     1       3.356   3.758  20.285  0.00  0.00    +0.000 A 
ATOM     23 CL   UNL     1       4.491   2.447  20.396  0.00  0.00    +0.000 Cl
ENDBRANCH   3  16
TORSDOF 2
ENDMDL
MODEL 7
REMARK VINA RESULT:      -8.0      3.049      4.039
REMARK  Name = 
REMARK  2 active torsions:
REMARK  status: ('A' for Active; 'I' for Inactive)
REMARK    1  A    between atoms: C_6  and  C_7
REMARK    2  A    between atoms: N_9  and  C_10
REMARK                            x       y       z     vdW  Elec       q    Type
REMARK                         _______ _______ _______ _____ _____    ______ ____
ROOT
ATOM      1  C   UNL     1       4.292   6.526  17.439  0.00  0.00    +0.000 C 
ATOM      2  O   UNL     1       5.048   7.499  17.471  0.00  0.00    +0.000 OA
ATOM      3  N   UNL     1       3.003   6.505  17.949  0.00  0.00    +0.000 N 
ATOM      4  H   UNL     1       2.595   5.600  18.179  0.00  0.00    +0.000 HD
ENDROOT
BRANCH   1  10
ATOM      5  O   UNL     1       8.616   4.088  17.843  0.00  0.00    +0.000 OA
ATOM      6  C   UNL     1       7.474   4.427  17.556  0.00  0.00    +0.000 C 
ATOM      7  N   UNL     1       6.402   4.015  18.285  0.00  0.00    +0.000 N 
ATOM      8  C   UNL     1       5.092   4.284  18.013  0.00  0.00    +0.000 C 
ATOM      9  O   UNL     1       4.194   3.797  18.698  0.00  0.00    +0.000 OA
ATOM     10  C   UNL     1       4.792   5.217  16.881  0.00  0.00    +0.000 C 
ATOM     11  C   UNL     1       5.962   5.470  15.970  0.00  0.00    +0.000 C 
ATOM     12  O   UNL     1       5.825   5.929  14.838  0.00  0.00    +0.000 OA
ATOM     13  N   UNL     1       7.206   5.184  16.458  0.00  0.00    +0.000 N 
ATOM     14  H   UNL     1       6.599   3.415  19.074  0.00  0.00    +0.000 HD
ATOM     15  H   UNL     1       7.994   5.415  15.869  0.00  0.00    +0.000 HD
ENDBRANCH   1  10
BRANCH   3  16
ATOM     16  C   UNL     1       2.314   7.633  18.477  0.00  0.00    +0.000 A 
ATOM     17  C   UNL     1       2.123   8.792  17.714  0.00  0.00    +0.000 A 
ATOM     18  C   UNL     1       1.510   9.920  18.257  0.00  0.00    +0.000 A 
ATOM     19  C   UNL     1       1.054   9.898  19.570  0.00  0.00    +0.000 A 
ATOM     20  C   UNL     1       1.185   8.735  20.334  0.00  0.00    +0.000 A 
ATOM     21 CL   UNL     1       0.573   8.784  21.951  0.00  0.00    +0.000 Cl
ATOM     22  C   UNL     1       1.804   7.595  19.791  0.00  0.00    +0.000 A 
ATOM     23 CL   UNL     1       1.972   6.141  20.727  0.00  0.00    +0.000 Cl
ENDBRANCH   3  16
TORSDOF 2
ENDMDL
MODEL 8
REMARK VINA RESULT:      -8.0      2.051      2.940
REMARK  Name = 
REMARK  2 active torsions:
REMARK  status: ('A' for Active; 'I' for Inactive)
REMARK    1  A    between atoms: C_6  and  C_7
REMARK    2  A    between atoms: N_9  and  C_10
REMARK                            x       y       z     vdW  Elec       q    Type
REMARK                         _______ _______ _______ _____ _____    ______ ____
ROOT
ATOM      1  C   UNL     1       5.605   5.048  18.639  0.00  0.00    +0.000 C 
ATOM      2  O   UNL     1       4.896   6.022  18.900  0.00  0.00    +0.000 OA
ATOM      3  N   UNL     1       5.304   3.736  18.967  0.00  0.00    +0.000 N 
ATOM      4  H   UNL     1       6.071   3.068  19.018  0.00  0.00    +0.000 HD
ENDROOT
BRANCH   1  10
ATOM      5  O   UNL     1       8.395   9.099  17.852  0.00  0.00    +0.000 OA
ATOM      6  C   UNL     1       7.960   7.953  17.892  0.00  0.00    +0.000 C 
ATOM      7  N   UNL     1       8.288   7.100  18.899  0.00  0.00    +0.000 N 
ATOM      8  C   UNL     1       7.910   5.793  19.001  0.00  0.00    +0.000 C 
ATOM      9  O   UNL     1       8.327   5.087  19.918  0.00  0.00    +0.000 OA
ATOM     10  C   UNL     1       6.946   5.263  17.985  0.00  0.00    +0.000 C 
ATOM     11  C   UNL     1       6.785   6.147  16.778  0.00  0.00    +0.000 C 
ATOM     12  O   UNL     1       6.307   5.735  15.722  0.00  0.00    +0.000 OA
ATOM     13  N   UNL     1       7.176   7.450  16.902  0.00  0.00    +0.000 N 
ATOM     14  H   UNL     1       8.908   7.461  19.611  0.00  0.00    +0.000 HD
ATOM     15  H   UNL     1       7.006   8.057  16.111  0.00  0.00    +0.000 HD
ENDBRANCH   1  10
BRANCH   3  16
ATOM     16  C   UNL     1       4.078   3.297  19.543  0.00  0.00    +0.000 A 
ATOM     17  C   UNL     1       3.959   3.072  20.920  0.00  0.00    +0.000 A 
ATOM     18  C   UNL     1       2.779   2.576  21.471  0.00  0.00    +0.000 A 
ATOM     19  C   UNL     1       1.686   2.318  20.652  0.00  0.00    +0.000 A 
ATOM     20  C   UNL     1       1.762   2.585  19.282  0.00  0.00    +0.000 A 
ATOM     21 CL   UNL     1       0.351   2.256  18.337  0.00  0.00    +0.000 Cl
ATOM     22  C   UNL     1       2.951   3.085  18.722  0.00  0.00    +0.000 A 
ATOM     23 CL   UNL     1       3.061   3.423  17.021  0.00  0.00    +0.000 Cl
ENDBRANCH   3  16
TORSDOF 2
ENDMDL
MODEL 9
REMARK VINA RESULT:      -7.9      3.529      4.904
REMARK  Name = 
REMARK  2 active torsions:
REMARK  status: ('A' for Active; 'I' for Inactive)
REMARK    1  A    between atoms: C_6  and  C_7
REMARK    2  A    between atoms: N_9  and  C_10
REMARK                            x       y       z     vdW  Elec       q    Type
REMARK                         _______ _______ _______ _____ _____    ______ ____
ROOT
ATOM      1  C   UNL     1       2.702   4.917  17.783  0.00  0.00    +0.000 C 
ATOM      2  O   UNL     1       1.502   4.755  17.552  0.00  0.00    +0.000 OA
ATOM      3  N   UNL     1       3.275   6.104  18.211  0.00  0.00    +0.000 N 
ATOM      4  H   UNL     1       4.272   6.239  18.052  0.00  0.00    +0.000 HD
ENDROOT
BRANCH   1  10
ATOM      5  O   UNL     1       5.074   1.704  20.760  0.00  0.00    +0.000 OA
ATOM      6  C   UNL     1       4.653   2.329  19.793  0.00  0.00    +0.000 C 
ATOM      7  N   UNL     1       3.560   1.915  19.097  0.00  0.00    +0.000 N 
ATOM      8  C   UNL     1       3.052   2.501  17.974  0.00  0.00    +0.000 C 
ATOM      9  O   UNL     1       2.100   1.998  17.378  0.00  0.00    +0.000 OA
ATOM     10  C   UNL     1       3.666   3.788  17.519  0.00  0.00    +0.000 C 
ATOM     11  C   UNL     1       4.991   4.094  18.163  0.00  0.00    +0.000 C 
ATOM     12  O   UNL     1       5.779   4.911  17.689  0.00  0.00    +0.000 OA
ATOM     13  N   UNL     1       5.288   3.435  19.323  0.00  0.00    +0.000 N 
ATOM     14  H   UNL     1       3.116   1.067  19.420  0.00  0.00    +0.000 HD
ATOM     15  H   UNL     1       6.149   3.690  19.787  0.00  0.00    +0.000 HD
ENDBRANCH   1  10
BRANCH   3  16
ATOM     16  C   UNL     1       2.553   7.279  18.566  0.00  0.00    +0.000 A 
ATOM     17  C   UNL     1       2.443   8.361  17.684  0.00  0.00    +0.000 A 
ATOM     18  C   UNL     1       1.796   9.537  18.061  0.00  0.00    +0.000 A 
ATOM     19  C   UNL     1       1.225   9.640  19.324  0.00  0.00    +0.000 A 
ATOM     20  C   UNL     1       1.276   8.555  20.203  0.00  0.00    +0.000 A 
ATOM     21 CL   UNL     1       0.525   8.759  21.747  0.00  0.00    +0.000 Cl
ATOM     22  C   UNL     1       1.928   7.367  19.827  0.00  0.00    +0.000 A 
ATOM     23 CL   UNL     1       1.998   6.008  20.908  0.00  0.00    +0.000 Cl
ENDBRANCH   3  16
TORSDOF 2
ENDMDL
