MODEL 1
REMARK VINA RESULT:      -7.3      0.000      0.000
REMARK  Name = 
REMARK  14 active torsions:
REMARK  status: ('A' for Active; 'I' for Inactive)
REMARK    1  A    between atoms: C_1  and  O_2
REMARK    2  A    between atoms: O_2  and  C_3
REMARK    3  A    between atoms: C_6  and  C_7
REMARK    4  A    between atoms: C_7  and  C_8
REMARK    5  A    between atoms: C_8  and  N_9
REMARK    6  A    between atoms: N_9  and  C_10
REMARK    7  A    between atoms: C_10  and  C_11
REMARK    8  A    between atoms: C_14  and  O_15
REMARK    9  A    between atoms: O_15  and  C_16
REMARK   10  A    between atoms: C_16  and  C_17
REMARK   11  A    between atoms: C_24  and  O_25
REMARK   12  A    between atoms: O_25  and  C_26
REMARK   13  A    between atoms: C_29  and  O_30
REMARK   14  A    between atoms: O_30  and  C_31
REMARK                            x       y       z     vdW  Elec       q    Type
REMARK                         _______ _______ _______ _____ _____    ______ ____
ROOT
ATOM      1  C   UNL     1       1.819   7.248  20.334  0.00  0.00    +0.000 A 
ATOM      2  C   UNL     1       2.463   7.559  19.133  0.00  0.00    +0.000 A 
ATOM      3  C   UNL     1       2.963   6.541  18.324  0.00  0.00    +0.000 A 
ATOM      4  C   UNL     1       2.838   5.197  18.700  0.00  0.00    +0.000 A 
ATOM      5  C   UNL     1       2.158   4.867  19.903  0.00  0.00    +0.000 A 
ATOM      6  C   UNL     1       1.653   5.909  20.702  0.00  0.00    +0.000 A 
ENDROOT
BRANCH   5   7
ATOM      7  O   UNL     1       1.998   3.567  20.267  0.00  0.00    +0.000 OA
ATOM      8  C   UNL     1       2.609   2.942  21.338  0.00  0.00    +0.000 C 
ENDBRANCH   5   7
BRANCH   1   9
ATOM      9  C   UNL     1       1.302   8.334  21.232  0.00  0.00    +0.000 C 
BRANCH   9  10
ATOM     10  N   UNL     1       0.122   8.975  20.637  0.00  0.00    +0.000 NA
ATOM     11  H   UNL     1      -0.113   8.505  19.730  0.00  0.00    +0.000 HD
BRANCH  10  12
ATOM     12  C   UNL     1       0.433  10.372  20.341  0.00  0.00    +0.000 C 
BRANCH  12  13
ATOM     13  C   UNL     1       0.204  10.692  18.859  0.00  0.00    +0.000 C 
BRANCH  13  17
ATOM     14  C   UNL     1      -3.996  11.616  18.343  0.00  0.00    +0.000 A 
ATOM     15  C   UNL     1      -3.293  10.846  17.380  0.00  0.00    +0.000 A 
ATOM     16  C   UNL     1      -1.939  10.556  17.535  0.00  0.00    +0.000 A 
ATOM     17  C   UNL     1      -1.246  11.029  18.648  0.00  0.00    +0.000 A 
ATOM     18  C   UNL     1      -1.921  11.806  19.596  0.00  0.00    +0.000 A 
ATOM     19  C   UNL     1      -3.278  12.100  19.476  0.00  0.00    +0.000 A 
BRANCH  14  21
ATOM     20  C   UNL     1      -6.333  10.939  18.351  0.00  0.00    +0.000 C 
ATOM     21  O   UNL     1      -5.322  11.876  18.189  0.00  0.00    +0.000 OA
ENDBRANCH  14  21
BRANCH  19  22
ATOM     22  O   UNL     1      -3.792  12.832  20.501  0.00  0.00    +0.000 OA
ATOM     23  C   UNL     1      -3.775  14.185  20.729  0.00  0.00    +0.000 C 
ENDBRANCH  19  22
ENDBRANCH  13  17
ENDBRANCH  12  13
ENDBRANCH  10  12
ENDBRANCH   9  10
ENDBRANCH   1   9
BRANCH   4  24
ATOM     24  O   UNL     1       3.429   4.280  17.890  0.00  0.00    +0.000 OA
BRANCH  24  25
ATOM     25  C   UNL     1       4.722   3.817  17.994  0.00  0.00    +0.000 C 
BRANCH  25  26
ATOM     26  C   UNL     1       5.492   4.206  16.765  0.00  0.00    +0.000 A 
ATOM     27  C   UNL     1       4.892   4.196  15.498  0.00  0.00    +0.000 A 
ATOM     28  C   UNL     1       5.649   4.534  14.373  0.00  0.00    +0.000 A 
ATOM     29  C   UNL     1       6.992   4.883  14.529  0.00  0.00    +0.000 A 
ATOM     30 CL   UNL     1       7.967   5.297  13.133  0.00  0.00    +0.000 Cl
ATOM     31  N   UNL     1       7.556   4.893  15.765  0.00  0.00    +0.000 NA
ATOM     32  C   UNL     1       6.841   4.566  16.875  0.00  0.00    +0.000 A 
ENDBRANCH  25  26
ENDBRANCH  24  25
ENDBRANCH   4  24
TORSDOF 11
ENDMDL
MODEL 2
REMARK VINA RESULT:      -7.2      1.405      2.227
REMARK  Name = 
REMARK  14 active torsions:
REMARK  status: ('A' for Active; 'I' for Inactive)
REMARK    1  A    between atoms: C_1  and  O_2
REMARK    2  A    between atoms: O_2  and  C_3
REMARK    3  A    between atoms: C_6  and  C_7
REMARK    4  A    between atoms: C_7  and  C_8
REMARK    5  A    between atoms: C_8  and  N_9
REMARK    6  A    between atoms: N_9  and  C_10
REMARK    7  A    between atoms: C_10  and  C_11
REMARK    8  A    between atoms: C_14  and  O_15
REMARK    9  A    between atoms: O_15  and  C_16
REMARK   10  A    between atoms: C_16  and  C_17
REMARK   11  A    between atoms: C_24  and  O_25
REMARK   12  A    between atoms: O_25  and  C_26
REMARK   13  A    between atoms: C_29  and  O_30
REMARK   14  A    between atoms: O_30  and  C_31
REMARK                            x       y       z     vdW  Elec       q    Type
REMARK                         _______ _______ _______ _____ _____    ______ ____
ROOT
ATOM      1  C   UNL     1       2.308   7.947  18.763  0.00  0.00    +0.000 A 
ATOM      2  C   UNL     1       3.155   7.769  17.664  0.00  0.00    +0.000 A 
ATOM      3  C   UNL     1       3.918   6.609  17.551  0.00  0.00    +0.000 A 
ATOM      4  C   UNL     1       3.860   5.611  18.532  0.00  0.00    +0.000 A 
ATOM      5  C   UNL     1       2.980   5.766  19.637  0.00  0.00    +0.000 A 
ATOM      6  C   UNL     1       2.211   6.941  19.730  0.00  0.00    +0.000 A 
ENDROOT
BRANCH   5   7
ATOM      7  O   UNL     1       2.885   4.793  20.582  0.00  0.00    +0.000 OA
ATOM      8  C   UNL     1       1.968   3.759  20.595  0.00  0.00    +0.000 C 
ENDBRANCH   5   7
BRANCH   1   9
ATOM      9  C   UNL     1       1.503   9.204  18.917  0.00  0.00    +0.000 C 
BRANCH   9  10
ATOM     10  N   UNL     1       0.769   9.192  20.190  0.00  0.00    +0.000 NA
ATOM     11  H   UNL     1       0.356   8.242  20.347  0.00  0.00    +0.000 HD
BRANCH  10  12
ATOM     12  C   UNL     1      -0.336  10.144  20.115  0.00  0.00    +0.000 C 
BRANCH  12  13
ATOM     13  C   UNL     1      -0.288  10.954  18.813  0.00  0.00    +0.000 C 
BRANCH  13  17
ATOM     14  C   UNL     1      -4.291  11.623  17.301  0.00  0.00    +0.000 A 
ATOM     15  C   UNL     1      -4.000  11.760  18.683  0.00  0.00    +0.000 A 
ATOM     16  C   UNL     1      -2.716  11.535  19.177  0.00  0.00    +0.000 A 
ATOM     17  C   UNL     1      -1.690  11.159  18.311  0.00  0.00    +0.000 A 
ATOM     18  C   UNL     1      -1.967  11.001  16.948  0.00  0.00    +0.000 A 
ATOM     19  C   UNL     1      -3.237  11.234  16.423  0.00  0.00    +0.000 A 
BRANCH  14  21
ATOM     20  C   UNL     1      -6.221  13.067  16.973  0.00  0.00    +0.000 C 
ATOM     21  O   UNL     1      -5.544  11.864  16.829  0.00  0.00    +0.000 OA
ENDBRANCH  14  21
BRANCH  19  22
ATOM     22  O   UNL     1      -3.331  11.074  15.075  0.00  0.00    +0.000 OA
ATOM     23  C   UNL     1      -3.922  10.083  14.333  0.00  0.00    +0.000 C 
ENDBRANCH  19  22
ENDBRANCH  13  17
ENDBRANCH  12  13
ENDBRANCH  10  12
ENDBRANCH   9  10
ENDBRANCH   1   9
BRANCH   4  24
ATOM     24  O   UNL     1       4.701   4.555  18.378  0.00  0.00    +0.000 OA
BRANCH  24  25
ATOM     25  C   UNL     1       4.660   3.624  17.363  0.00  0.00    +0.000 C 
BRANCH  25  26
ATOM     26  C   UNL     1       5.510   4.096  16.220  0.00  0.00    +0.000 A 
ATOM     27  C   UNL     1       5.022   4.102  14.905  0.00  0.00    +0.000 A 
ATOM     28  C   UNL     1       5.853   4.517  13.862  0.00  0.00    +0.000 A 
ATOM     29  C   UNL     1       7.157   4.928  14.145  0.00  0.00    +0.000 A 
ATOM     30 CL   UNL     1       8.224   5.441  12.853  0.00  0.00    +0.000 Cl
ATOM     31  N   UNL     1       7.612   4.922  15.425  0.00  0.00    +0.000 NA
ATOM     32  C   UNL     1       6.824   4.519  16.458  0.00  0.00    +0.000 A 
ENDBRANCH  25  26
ENDBRANCH  24  25
ENDBRANCH   4  24
TORSDOF 11
ENDMDL
MODEL 3
REMARK VINA RESULT:      -7.2      0.964      1.845
REMARK  Name = 
REMARK  14 active torsions:
REMARK  status: ('A' for Active; 'I' for Inactive)
REMARK    1  A    between atoms: C_1  and  O_2
REMARK    2  A    between atoms: O_2  and  C_3
REMARK    3  A    between atoms: C_6  and  C_7
REMARK    4  A    between atoms: C_7  and  C_8
REMARK    5  A    between atoms: C_8  and  N_9
REMARK    6  A    between atoms: N_9  and  C_10
REMARK    7  A    between atoms: C_10  and  C_11
REMARK    8  A    between atoms: C_14  and  O_15
REMARK    9  A    between atoms: O_15  and  C_16
REMARK   10  A    between atoms: C_16  and  C_17
REMARK   11  A    between atoms: C_24  and  O_25
REMARK   12  A    between atoms: O_25  and  C_26
REMARK   13  A    between atoms: C_29  and  O_30
REMARK   14  A    between atoms: O_30  and  C_31
REMARK                            x       y       z     vdW  Elec       q    Type
REMARK                         _______ _______ _______ _____ _____    ______ ____
ROOT
ATOM      1  C   UNL     1       1.961   7.284  20.124  0.00  0.00    +0.000 A 
ATOM      2  C   UNL     1       2.632   7.545  18.925  0.00  0.00    +0.000 A 
ATOM      3  C   UNL     1       3.191   6.498  18.195  0.00  0.00    +0.000 A 
ATOM      4  C   UNL     1       3.101   5.176  18.650  0.00  0.00    +0.000 A 
ATOM      5  C   UNL     1       2.394   4.895  19.850  0.00  0.00    +0.000 A 
ATOM      6  C   UNL     1       1.830   5.965  20.569  0.00  0.00    +0.000 A 
ENDROOT
BRANCH   5   7
ATOM      7  O   UNL     1       2.268   3.615  20.290  0.00  0.00    +0.000 OA
ATOM      8  C   UNL     1       1.472   3.189  21.336  0.00  0.00    +0.000 C 
ENDBRANCH   5   7
BRANCH   1   9
ATOM      9  C   UNL     1       1.380   8.404  20.938  0.00  0.00    +0.000 C 
BRANCH   9  10
ATOM     10  N   UNL     1       0.249   9.020  20.230  0.00  0.00    +0.000 NA
ATOM     11  H   UNL     1      -0.125   8.350  19.517  0.00  0.00    +0.000 HD
BRANCH  10  12
ATOM     12  C   UNL     1       0.718  10.205  19.517  0.00  0.00    +0.000 C 
BRANCH  12  13
ATOM     13  C   UNL     1      -0.005  11.469  19.998  0.00  0.00    +0.000 C 
BRANCH  13  17
ATOM     14  C   UNL     1      -3.791  11.821  17.924  0.00  0.00    +0.000 A 
ATOM     15  C   UNL     1      -3.676  12.161  19.297  0.00  0.00    +0.000 A 
ATOM     16  C   UNL     1      -2.463  12.039  19.972  0.00  0.00    +0.000 A 
ATOM     17  C   UNL     1      -1.335  11.568  19.303  0.00  0.00    +0.000 A 
ATOM     18  C   UNL     1      -1.438  11.210  17.954  0.00  0.00    +0.000 A 
ATOM     19  C   UNL     1      -2.633  11.335  17.248  0.00  0.00    +0.000 A 
BRANCH  14  21
ATOM     20  C   UNL     1      -6.197  11.504  17.747  0.00  0.00    +0.000 C 
ATOM     21  O   UNL     1      -4.977  11.962  17.271  0.00  0.00    +0.000 OA
ENDBRANCH  14  21
BRANCH  19  22
ATOM     22  O   UNL     1      -2.557  10.982  15.937  0.00  0.00    +0.000 OA
ATOM     23  C   UNL     1      -3.255  10.039  15.223  0.00  0.00    +0.000 C 
ENDBRANCH  19  22
ENDBRANCH  13  17
ENDBRANCH  12  13
ENDBRANCH  10  12
ENDBRANCH   9  10
ENDBRANCH   1   9
BRANCH   4  24
ATOM     24  O   UNL     1       3.748   4.233  17.915  0.00  0.00    +0.000 OA
BRANCH  24  25
ATOM     25  C   UNL     1       5.095   3.952  17.959  0.00  0.00    +0.000 C 
BRANCH  25  26
ATOM     26  C   UNL     1       5.720   4.296  16.639  0.00  0.00    +0.000 A 
ATOM     27  C   UNL     1       5.080   3.990  15.429  0.00  0.00    +0.000 A 
ATOM     28  C   UNL     1       5.708   4.296  14.219  0.00  0.00    +0.000 A 
ATOM     29  C   UNL     1       6.961   4.910  14.232  0.00  0.00    +0.000 A 
ATOM     30 CL   UNL     1       7.775   5.292  12.728  0.00  0.00    +0.000 Cl
ATOM     31  N   UNL     1       7.565   5.205  15.412  0.00  0.00    +0.000 NA
ATOM     32  C   UNL     1       6.977   4.915  16.604  0.00  0.00    +0.000 A 
ENDBRANCH  25  26
ENDBRANCH  24  25
ENDBRANCH   4  24
TORSDOF 11
ENDMDL
MODEL 4
REMARK VINA RESULT:      -7.2      4.084      9.466
REMARK  Name = 
REMARK  14 active torsions:
REMARK  status: ('A' for Active; 'I' for Inactive)
REMARK    1  A    between atoms: C_1  and  O_2
REMARK    2  A    between atoms: O_2  and  C_3
REMARK    3  A    between atoms: C_6  and  C_7
REMARK    4  A    between atoms: C_7  and  C_8
REMARK    5  A    between atoms: C_8  and  N_9
REMARK    6  A    between atoms: N_9  and  C_10
REMARK    7  A    between atoms: C_10  and  C_11
REMARK    8  A    between atoms: C_14  and  O_15
REMARK    9  A    between atoms: O_15  and  C_16
REMARK   10  A    between atoms: C_16  and  C_17
REMARK   11  A    between atoms: C_24  and  O_25
REMARK   12  A    between atoms: O_25  and  C_26
REMARK   13  A    between atoms: C_29  and  O_30
REMARK   14  A    between atoms: O_30  and  C_31
REMARK                            x       y       z     vdW  Elec       q    Type
REMARK                         _______ _______ _______ _____ _____    ______ ____
ROOT
ATOM      1  C   UNL     1       1.503   4.132  18.889  0.00  0.00    +0.000 A 
ATOM      2  C   UNL     1       1.120   4.345  20.216  0.00  0.00    +0.000 A 
ATOM      3  C   UNL     1       1.316   5.591  20.809  0.00  0.00    +0.000 A 
ATOM      4  C   UNL     1       1.905   6.642  20.095  0.00  0.00    +0.000 A 
ATOM      5  C   UNL     1       2.270   6.447  18.736  0.00  0.00    +0.000 A 
ATOM      6  C   UNL     1       2.056   5.185  18.152  0.00  0.00    +0.000 A 
ENDROOT
BRANCH   5   7
ATOM      7  O   UNL     1       2.812   7.466  18.017  0.00  0.00    +0.000 OA
ATOM      8  C   UNL     1       2.154   8.610  17.604  0.00  0.00    +0.000 C 
ENDBRANCH   5   7
BRANCH   1   9
ATOM      9  C   UNL     1       1.328   2.788  18.245  0.00  0.00    +0.000 C 
BRANCH   9  10
ATOM     10  N   UNL     1       2.403   1.876  18.659  0.00  0.00    +0.000 NA
ATOM     11  H   UNL     1       2.552   1.957  19.693  0.00  0.00    +0.000 HD
BRANCH  10  12
ATOM     12  C   UNL     1       3.647   2.272  18.003  0.00  0.00    +0.000 C 
BRANCH  12  13
ATOM     13  C   UNL     1       4.678   2.776  19.020  0.00  0.00    +0.000 C 
BRANCH  13  17
ATOM     14  C   UNL     1       6.778   6.179  17.356  0.00  0.00    +0.000 A 
ATOM     15  C   UNL     1       6.410   6.146  18.727  0.00  0.00    +0.000 A 
ATOM     16  C   UNL     1       5.724   5.059  19.265  0.00  0.00    +0.000 A 
ATOM     17  C   UNL     1       5.379   3.979  18.453  0.00  0.00    +0.000 A 
ATOM     18  C   UNL     1       5.718   4.007  17.096  0.00  0.00    +0.000 A 
ATOM     19  C   UNL     1       6.417   5.073  16.533  0.00  0.00    +0.000 A 
BRANCH  14  21
ATOM     20  C   UNL     1       7.839   8.357  17.578  0.00  0.00    +0.000 C 
ATOM     21  O   UNL     1       7.464   7.239  16.848  0.00  0.00    +0.000 OA
ENDBRANCH  14  21
BRANCH  19  22
ATOM     22  O   UNL     1       6.702   4.928  15.210  0.00  0.00    +0.000 OA
ATOM     23  C   UNL     1       6.204   4.052  14.279  0.00  0.00    +0.000 C 
ENDBRANCH  19  22
ENDBRANCH  13  17
ENDBRANCH  12  13
ENDBRANCH  10  12
ENDBRANCH   9  10
ENDBRANCH   1   9
BRANCH   4  24
ATOM     24  O   UNL     1       2.131   7.793  20.781  0.00  0.00    +0.000 OA
BRANCH  24  25
ATOM     25  C   UNL     1       1.205   8.494  21.521  0.00  0.00    +0.000 C 
BRANCH  25  26
ATOM     26  C   UNL     1       0.735   9.684  20.735  0.00  0.00    +0.000 A 
ATOM     27  C   UNL     1       1.475  10.875  20.706  0.00  0.00    +0.000 A 
ATOM     28  C   UNL     1       0.990  11.971  19.990  0.00  0.00    +0.000 A 
ATOM     29  C   UNL     1      -0.223  11.864  19.307  0.00  0.00    +0.000 A 
ATOM     30 CL   UNL     1      -0.860  13.229  18.412  0.00  0.00    +0.000 Cl
ATOM     31  N   UNL     1      -0.924  10.701  19.340  0.00  0.00    +0.000 NA
ATOM     32  C   UNL     1      -0.475   9.619  20.032  0.00  0.00    +0.000 A 
ENDBRANCH  25  26
ENDBRANCH  24  25
ENDBRANCH   4  24
TORSDOF 11
ENDMDL
MODEL 5
REMARK VINA RESULT:      -7.1      2.136      2.803
REMARK  Name = 
REMARK  14 active torsions:
REMARK  status: ('A' for Active; 'I' for Inactive)
REMARK    1  A    between atoms: C_1  and  O_2
REMARK    2  A    between atoms: O_2  and  C_3
REMARK    3  A    between atoms: C_6  and  C_7
REMARK    4  A    between atoms: C_7  and  C_8
REMARK    5  A    between atoms: C_8  and  N_9
REMARK    6  A    between atoms: N_9  and  C_10
REMARK    7  A    between atoms: C_10  and  C_11
REMARK    8  A    between atoms: C_14  and  O_15
REMARK    9  A    between atoms: O_15  and  C_16
REMARK   10  A    between atoms: C_16  and  C_17
REMARK   11  A    between atoms: C_24  and  O_25
REMARK   12  A    between atoms: O_25  and  C_26
REMARK   13  A    between atoms: C_29  and  O_30
REMARK   14  A    between atoms: O_30  and  C_31
REMARK                            x       y       z     vdW  Elec       q    Type
REMARK                         _______ _______ _______ _____ _____    ______ ____
ROOT
ATOM      1  C   UNL     1       2.340   5.810  19.711  0.00  0.00    +0.000 A 
ATOM      2  C   UNL     1       2.610   6.614  18.599  0.00  0.00    +0.000 A 
ATOM      3  C   UNL     1       3.376   6.116  17.546  0.00  0.00    +0.000 A 
ATOM      4  C   UNL     1       3.893   4.815  17.585  0.00  0.00    +0.000 A 
ATOM      5  C   UNL     1       3.599   3.978  18.696  0.00  0.00    +0.000 A 
ATOM      6  C   UNL     1       2.818   4.495  19.745  0.00  0.00    +0.000 A 
ENDROOT
BRANCH   5   7
ATOM      7  O   UNL     1       4.065   2.701  18.736  0.00  0.00    +0.000 OA
ATOM      8  C   UNL     1       3.335   1.561  18.459  0.00  0.00    +0.000 C 
ENDBRANCH   5   7
BRANCH   1   9
ATOM      9  C   UNL     1       1.544   6.341  20.867  0.00  0.00    +0.000 C 
BRANCH   9  10
ATOM     10  N   UNL     1       1.921   7.732  21.154  0.00  0.00    +0.000 NA
ATOM     11  H   UNL     1       2.261   7.806  22.143  0.00  0.00    +0.000 HD
BRANCH  10  12
ATOM     12  C   UNL     1       0.740   8.583  21.030  0.00  0.00    +0.000 C 
BRANCH  12  13
ATOM     13  C   UNL     1       1.015   9.790  20.125  0.00  0.00    +0.000 C 
BRANCH  13  17
ATOM     14  C   UNL     1      -2.576  12.209  20.035  0.00  0.00    +0.000 A 
ATOM     15  C   UNL     1      -2.131  11.519  18.878  0.00  0.00    +0.000 A 
ATOM     16  C   UNL     1      -0.970  10.749  18.898  0.00  0.00    +0.000 A 
ATOM     17  C   UNL     1      -0.217  10.650  20.067  0.00  0.00    +0.000 A 
ATOM     18  C   UNL     1      -0.633  11.341  21.210  0.00  0.00    +0.000 A 
ATOM     19  C   UNL     1      -1.797  12.107  21.224  0.00  0.00    +0.000 A 
BRANCH  14  21
ATOM     20  C   UNL     1      -4.995  12.410  19.863  0.00  0.00    +0.000 C 
ATOM     21  O   UNL     1      -3.722  12.943  20.007  0.00  0.00    +0.000 OA
ENDBRANCH  14  21
BRANCH  19  22
ATOM     22  O   UNL     1      -2.082  12.682  22.424  0.00  0.00    +0.000 OA
ATOM     23  C   UNL     1      -3.051  12.385  23.350  0.00  0.00    +0.000 C 
ENDBRANCH  19  22
ENDBRANCH  13  17
ENDBRANCH  12  13
ENDBRANCH  10  12
ENDBRANCH   9  10
ENDBRANCH   1   9
BRANCH   4  24
ATOM     24  O   UNL     1       4.696   4.447  16.553  0.00  0.00    +0.000 OA
BRANCH  24  25
ATOM     25  C   UNL     1       6.045   4.178  16.629  0.00  0.00    +0.000 C 
BRANCH  25  26
ATOM     26  C   UNL     1       6.764   5.380  17.169  0.00  0.00    +0.000 A 
ATOM     27  C   UNL     1       7.369   5.357  18.434  0.00  0.00    +0.000 A 
ATOM     28  C   UNL     1       8.001   6.505  18.917  0.00  0.00    +0.000 A 
ATOM     29  C   UNL     1       8.027   7.658  18.130  0.00  0.00    +0.000 A 
ATOM     30 CL   UNL     1       8.802   9.115  18.719  0.00  0.00    +0.000 Cl
ATOM     31  N   UNL     1       7.441   7.661  16.905  0.00  0.00    +0.000 NA
ATOM     32  C   UNL     1       6.817   6.557  16.412  0.00  0.00    +0.000 A 
ENDBRANCH  25  26
ENDBRANCH  24  25
ENDBRANCH   4  24
TORSDOF 11
ENDMDL
MODEL 6
REMARK VINA RESULT:      -7.1      2.521      3.015
REMARK  Name = 
REMARK  14 active torsions:
REMARK  status: ('A' for Active; 'I' for Inactive)
REMARK    1  A    between atoms: C_1  and  O_2
REMARK    2  A    between atoms: O_2  and  C_3
REMARK    3  A    between atoms: C_6  and  C_7
REMARK    4  A    between atoms: C_7  and  C_8
REMARK    5  A    between atoms: C_8  and  N_9
REMARK    6  A    between atoms: N_9  and  C_10
REMARK    7  A    between atoms: C_10  and  C_11
REMARK    8  A    between atoms: C_14  and  O_15
REMARK    9  A    between atoms: O_15  and  C_16
REMARK   10  A    between atoms: C_16  and  C_17
REMARK   11  A    between atoms: C_24  and  O_25
REMARK   12  A    between atoms: O_25  and  C_26
REMARK   13  A    between atoms: C_29  and  O_30
REMARK   14  A    between atoms: O_30  and  C_31
REMARK                            x       y       z     vdW  Elec       q    Type
REMARK                         _______ _______ _______ _____ _____    ______ ____
ROOT
ATOM      1  C   UNL     1       2.173   7.532  19.573  0.00  0.00    +0.000 A 
ATOM      2  C   UNL     1       2.659   7.609  18.264  0.00  0.00    +0.000 A 
ATOM      3  C   UNL     1       3.232   6.490  17.664  0.00  0.00    +0.000 A 
ATOM      4  C   UNL     1       3.339   5.278  18.358  0.00  0.00    +0.000 A 
ATOM      5  C   UNL     1       2.820   5.178  19.678  0.00  0.00    +0.000 A 
ATOM      6  C   UNL     1       2.238   6.317  20.263  0.00  0.00    +0.000 A 
ENDROOT
BRANCH   5   7
ATOM      7  O   UNL     1       2.885   4.001  20.355  0.00  0.00    +0.000 OA
ATOM      8  C   UNL     1       1.937   2.995  20.329  0.00  0.00    +0.000 C 
ENDBRANCH   5   7
BRANCH   1   9
ATOM      9  C   UNL     1       1.582   8.737  20.245  0.00  0.00    +0.000 C 
BRANCH   9  10
ATOM     10  N   UNL     1       1.129   8.398  21.601  0.00  0.00    +0.000 NA
ATOM     11  H   UNL     1       1.143   7.358  21.726  0.00  0.00    +0.000 HD
BRANCH  10  12
ATOM     12  C   UNL     1      -0.252   8.843  21.770  0.00  0.00    +0.000 C 
BRANCH  12  13
ATOM     13  C   UNL     1      -0.423   9.660  23.056  0.00  0.00    +0.000 C 
BRANCH  13  17
ATOM     14  C   UNL     1      -1.557  13.716  22.049  0.00  0.00    +0.000 A 
ATOM     15  C   UNL     1      -2.260  12.986  23.042  0.00  0.00    +0.000 A 
ATOM     16  C   UNL     1      -1.907  11.677  23.362  0.00  0.00    +0.000 A 
ATOM     17  C   UNL     1      -0.850  11.056  22.698  0.00  0.00    +0.000 A 
ATOM     18  C   UNL     1      -0.160  11.757  21.703  0.00  0.00    +0.000 A 
ATOM     19  C   UNL     1      -0.481  13.072  21.371  0.00  0.00    +0.000 A 
BRANCH  14  21
ATOM     20  C   UNL     1      -2.774  15.373  20.747  0.00  0.00    +0.000 C 
ATOM     21  O   UNL     1      -1.900  15.001  21.759  0.00  0.00    +0.000 OA
ENDBRANCH  14  21
BRANCH  19  22
ATOM     22  O   UNL     1       0.310  13.624  20.411  0.00  0.00    +0.000 OA
ATOM     23  C   UNL     1       0.352  13.409  19.056  0.00  0.00    +0.000 C 
ENDBRANCH  19  22
ENDBRANCH  13  17
ENDBRANCH  12  13
ENDBRANCH  10  12
ENDBRANCH   9  10
ENDBRANCH   1   9
BRANCH   4  24
ATOM     24  O   UNL     1       3.986   4.266  17.723  0.00  0.00    +0.000 OA
BRANCH  24  25
ATOM     25  C   UNL     1       5.338   4.007  17.775  0.00  0.00    +0.000 C 
BRANCH  25  26
ATOM     26  C   UNL     1       5.964   4.352  16.455  0.00  0.00    +0.000 A 
ATOM     27  C   UNL     1       5.541   3.739  15.267  0.00  0.00    +0.000 A 
ATOM     28  C   UNL     1       6.169   4.063  14.062  0.00  0.00    +0.000 A 
ATOM     29  C   UNL     1       7.205   4.999  14.057  0.00  0.00    +0.000 A 
ATOM     30 CL   UNL     1       8.018   5.412  12.560  0.00  0.00    +0.000 Cl
ATOM     31  N   UNL     1       7.598   5.588  15.216  0.00  0.00    +0.000 NA
ATOM     32  C   UNL     1       7.005   5.288  16.403  0.00  0.00    +0.000 A 
ENDBRANCH  25  26
ENDBRANCH  24  25
ENDBRANCH   4  24
TORSDOF 11
ENDMDL
MODEL 7
REMARK VINA RESULT:      -7.0      2.002      2.530
REMARK  Name = 
REMARK  14 active torsions:
REMARK  status: ('A' for Active; 'I' for Inactive)
REMARK    1  A    between atoms: C_1  and  O_2
REMARK    2  A    between atoms: O_2  and  C_3
REMARK    3  A    between atoms: C_6  and  C_7
REMARK    4  A    between atoms: C_7  and  C_8
REMARK    5  A    between atoms: C_8  and  N_9
REMARK    6  A    between atoms: N_9  and  C_10
REMARK    7  A    between atoms: C_10  and  C_11
REMARK    8  A    between atoms: C_14  and  O_15
REMARK    9  A    between atoms: O_15  and  C_16
REMARK   10  A    between atoms: C_16  and  C_17
REMARK   11  A    between atoms: C_24  and  O_25
REMARK   12  A    between atoms: O_25  and  C_26
REMARK   13  A    between atoms: C_29  and  O_30
REMARK   14  A    between atoms: O_30  and  C_31
REMARK                            x       y       z     vdW  Elec       q    Type
REMARK                         _______ _______ _______ _____ _____    ______ ____
ROOT
ATOM      1  C   UNL     1       2.152   5.378  19.881  0.00  0.00    +0.000 A 
ATOM      2  C   UNL     1       1.830   5.418  18.521  0.00  0.00    +0.000 A 
ATOM      3  C   UNL     1       2.556   4.654  17.609  0.00  0.00    +0.000 A 
ATOM      4  C   UNL     1       3.618   3.846  18.032  0.00  0.00    +0.000 A 
ATOM      5  C   UNL     1       3.934   3.773  19.416  0.00  0.00    +0.000 A 
ATOM      6  C   UNL     1       3.185   4.545  20.322  0.00  0.00    +0.000 A 
ENDROOT
BRANCH   5   7
ATOM      7  O   UNL     1       4.941   2.968  19.849  0.00  0.00    +0.000 OA
ATOM      8  C   UNL     1       4.791   1.753  20.489  0.00  0.00    +0.000 C 
ENDBRANCH   5   7
BRANCH   1   9
ATOM      9  C   UNL     1       1.401   6.218  20.872  0.00  0.00    +0.000 C 
BRANCH   9  10
ATOM     10  N   UNL     1       1.931   7.589  20.889  0.00  0.00    +0.000 NA
ATOM     11  H   UNL     1       2.468   7.747  21.774  0.00  0.00    +0.000 HD
BRANCH  10  12
ATOM     12  C   UNL     1       0.816   8.533  20.877  0.00  0.00    +0.000 C 
BRANCH  12  13
ATOM     13  C   UNL     1       0.995   9.595  19.785  0.00  0.00    +0.000 C 
BRANCH  13  17
ATOM     14  C   UNL     1      -2.513  12.134  19.835  0.00  0.00    +0.000 A 
ATOM     15  C   UNL     1      -2.121  11.453  18.653  0.00  0.00    +0.000 A 
ATOM     16  C   UNL     1      -0.987  10.644  18.628  0.00  0.00    +0.000 A 
ATOM     17  C   UNL     1      -0.208  10.497  19.775  0.00  0.00    +0.000 A 
ATOM     18  C   UNL     1      -0.572  11.178  20.942  0.00  0.00    +0.000 A 
ATOM     19  C   UNL     1      -1.709  11.982  21.001  0.00  0.00    +0.000 A 
BRANCH  14  21
ATOM     20  C   UNL     1      -4.878  12.479  20.294  0.00  0.00    +0.000 C 
ATOM     21  O   UNL     1      -3.634  12.906  19.851  0.00  0.00    +0.000 OA
ENDBRANCH  14  21
BRANCH  19  22
ATOM     22  O   UNL     1      -1.944  12.542  22.219  0.00  0.00    +0.000 OA
ATOM     23  C   UNL     1      -2.591  12.044  23.322  0.00  0.00    +0.000 C 
ENDBRANCH  19  22
ENDBRANCH  13  17
ENDBRANCH  12  13
ENDBRANCH  10  12
ENDBRANCH   9  10
ENDBRANCH   1   9
BRANCH   4  24
ATOM     24  O   UNL     1       4.319   3.202  17.062  0.00  0.00    +0.000 OA
BRANCH  24  25
ATOM     25  C   UNL     1       5.078   3.797  16.077  0.00  0.00    +0.000 C 
BRANCH  25  26
ATOM     26  C   UNL     1       5.879   4.918  16.673  0.00  0.00    +0.000 A 
ATOM     27  C   UNL     1       5.478   6.255  16.529  0.00  0.00    +0.000 A 
ATOM     28  C   UNL     1       6.266   7.273  17.070  0.00  0.00    +0.000 A 
ATOM     29  C   UNL     1       7.438   6.946  17.753  0.00  0.00    +0.000 A 
ATOM     30 CL   UNL     1       8.452   8.206  18.429  0.00  0.00    +0.000 Cl
ATOM     31  N   UNL     1       7.808   5.646  17.889  0.00  0.00    +0.000 NA
ATOM     32  C   UNL     1       7.061   4.635  17.370  0.00  0.00    +0.000 A 
ENDBRANCH  25  26
ENDBRANCH  24  25
ENDBRANCH   4  24
TORSDOF 11
ENDMDL
MODEL 8
REMARK VINA RESULT:      -6.9      0.743      1.024
REMARK  Name = 
REMARK  14 active torsions:
REMARK  status: ('A' for Active; 'I' for Inactive)
REMARK    1  A    between atoms: C_1  and  O_2
REMARK    2  A    between atoms: O_2  and  C_3
REMARK    3  A    between atoms: C_6  and  C_7
REMARK    4  A    between atoms: C_7  and  C_8
REMARK    5  A    between atoms: C_8  and  N_9
REMARK    6  A    between atoms: N_9  and  C_10
REMARK    7  A    between atoms: C_10  and  C_11
REMARK    8  A    between atoms: C_14  and  O_15
REMARK    9  A    between atoms: O_15  and  C_16
REMARK   10  A    between atoms: C_16  and  C_17
REMARK   11  A    between atoms: C_24  and  O_25
REMARK   12  A    between atoms: O_25  and  C_26
REMARK   13  A    between atoms: C_29  and  O_30
REMARK   14  A    between atoms: O_30  and  C_31
REMARK                            x       y       z     vdW  Elec       q    Type
REMARK                         _______ _______ _______ _____ _____    ______ ____
ROOT
ATOM      1  C   UNL     1       1.737   7.323  20.536  0.00  0.00    +0.000 A 
ATOM      2  C   UNL     1       2.446   7.650  19.376  0.00  0.00    +0.000 A 
ATOM      3  C   UNL     1       3.056   6.647  18.624  0.00  0.00    +0.000 A 
ATOM      4  C   UNL     1       2.979   5.306  19.019  0.00  0.00    +0.000 A 
ATOM      5  C   UNL     1       2.235   4.958  20.179  0.00  0.00    +0.000 A 
ATOM      6  C   UNL     1       1.620   5.983  20.920  0.00  0.00    +0.000 A 
ENDROOT
BRANCH   5   7
ATOM      7  O   UNL     1       2.122   3.657  20.558  0.00  0.00    +0.000 OA
ATOM      8  C   UNL     1       1.319   2.703  19.962  0.00  0.00    +0.000 C 
ENDBRANCH   5   7
BRANCH   1   9
ATOM      9  C   UNL     1       1.101   8.393  21.374  0.00  0.00    +0.000 C 
BRANCH   9  10
ATOM     10  N   UNL     1      -0.054   8.974  20.675  0.00  0.00    +0.000 NA
ATOM     11  H   UNL     1      -0.259   8.416  19.813  0.00  0.00    +0.000 HD
BRANCH  10  12
ATOM     12  C   UNL     1       0.276  10.333  20.251  0.00  0.00    +0.000 C 
BRANCH  12  13
ATOM     13  C   UNL     1       0.092  10.506  18.739  0.00  0.00    +0.000 C 
BRANCH  13  17
ATOM     14  C   UNL     1      -4.140  11.035  17.983  0.00  0.00    +0.000 A 
ATOM     15  C   UNL     1      -3.375  10.101  17.236  0.00  0.00    +0.000 A 
ATOM     16  C   UNL     1      -2.011   9.935  17.467  0.00  0.00    +0.000 A 
ATOM     17  C   UNL     1      -1.369  10.698  18.441  0.00  0.00    +0.000 A 
ATOM     18  C   UNL     1      -2.107  11.637  19.172  0.00  0.00    +0.000 A 
ATOM     19  C   UNL     1      -3.474  11.814  18.974  0.00  0.00    +0.000 A 
BRANCH  14  21
ATOM     20  C   UNL     1      -6.467  10.727  18.621  0.00  0.00    +0.000 C 
ATOM     21  O   UNL     1      -5.475  11.174  17.760  0.00  0.00    +0.000 OA
ENDBRANCH  14  21
BRANCH  19  22
ATOM     22  O   UNL     1      -4.050  12.737  19.791  0.00  0.00    +0.000 OA
ATOM     23  C   UNL     1      -3.485  13.657  20.639  0.00  0.00    +0.000 C 
ENDBRANCH  19  22
ENDBRANCH  13  17
ENDBRANCH  12  13
ENDBRANCH  10  12
ENDBRANCH   9  10
ENDBRANCH   1   9
BRANCH   4  24
ATOM     24  O   UNL     1       3.674   4.409  18.270  0.00  0.00    +0.000 OA
BRANCH  24  25
ATOM     25  C   UNL     1       5.022   4.140  18.368  0.00  0.00    +0.000 C 
BRANCH  25  26
ATOM     26  C   UNL     1       5.672   4.355  17.033  0.00  0.00    +0.000 A 
ATOM     27  C   UNL     1       6.996   4.806  16.933  0.00  0.00    +0.000 A 
ATOM     28  C   UNL     1       7.557   5.026  15.672  0.00  0.00    +0.000 A 
ATOM     29  C   UNL     1       6.794   4.786  14.529  0.00  0.00    +0.000 A 
ATOM     30 CL   UNL     1       7.469   5.066  12.937  0.00  0.00    +0.000 Cl
ATOM     31  N   UNL     1       5.514   4.343  14.644  0.00  0.00    +0.000 NA
ATOM     32  C   UNL     1       4.943   4.124  15.859  0.00  0.00    +0.000 A 
ENDBRANCH  25  26
ENDBRANCH  24  25
ENDBRANCH   4  24
TORSDOF 11
ENDMDL
MODEL 9
REMARK VINA RESULT:      -6.9      2.606      3.414
REMARK  Name = 
REMARK  14 active torsions:
REMARK  status: ('A' for Active; 'I' for Inactive)
REMARK    1  A    between atoms: C_1  and  O_2
REMARK    2  A    between atoms: O_2  and  C_3
REMARK    3  A    between atoms: C_6  and  C_7
REMARK    4  A    between atoms: C_7  and  C_8
REMARK    5  A    between atoms: C_8  and  N_9
REMARK    6  A    between atoms: N_9  and  C_10
REMARK    7  A    between atoms: C_10  and  C_11
REMARK    8  A    between atoms: C_14  and  O_15
REMARK    9  A    between atoms: O_15  and  C_16
REMARK   10  A    between atoms: C_16  and  C_17
REMARK   11  A    between atoms: C_24  and  O_25
REMARK   12  A    between atoms: O_25  and  C_26
REMARK   13  A    between atoms: C_29  and  O_30
REMARK   14  A    between atoms: O_30  and  C_31
REMARK                            x       y       z     vdW  Elec       q    Type
REMARK                         _______ _______ _______ _____ _____    ______ ____
ROOT
ATOM      1  C   UNL     1       2.310   5.826  19.819  0.00  0.00    +0.000 A 
ATOM      2  C   UNL     1       2.308   6.247  18.486  0.00  0.00    +0.000 A 
ATOM      3  C   UNL     1       3.168   5.653  17.564  0.00  0.00    +0.000 A 
ATOM      4  C   UNL     1       4.049   4.637  17.955  0.00  0.00    +0.000 A 
ATOM      5  C   UNL     1       4.038   4.178  19.300  0.00  0.00    +0.000 A 
ATOM      6  C   UNL     1       3.157   4.785  20.214  0.00  0.00    +0.000 A 
ENDROOT
BRANCH   5   7
ATOM      7  O   UNL     1       4.863   3.170  19.690  0.00  0.00    +0.000 OA
ATOM      8  C   UNL     1       4.489   1.863  19.936  0.00  0.00    +0.000 C 
ENDBRANCH   5   7
BRANCH   1   9
ATOM      9  C   UNL     1       1.413   6.477  20.831  0.00  0.00    +0.000 C 
BRANCH   9  10
ATOM     10  N   UNL     1       1.889   7.831  21.144  0.00  0.00    +0.000 NA
ATOM     11  H   UNL     1       2.123   7.894  22.163  0.00  0.00    +0.000 HD
BRANCH  10  12
ATOM     12  C   UNL     1       0.818   8.789  20.879  0.00  0.00    +0.000 C 
BRANCH  12  13
ATOM     13  C   UNL     1       0.167   9.273  22.180  0.00  0.00    +0.000 C 
BRANCH  13  17
ATOM     14  C   UNL     1      -2.147  12.853  21.417  0.00  0.00    +0.000 A 
ATOM     15  C   UNL     1      -1.430  12.211  20.375  0.00  0.00    +0.000 A 
ATOM     16  C   UNL     1      -0.675  11.066  20.617  0.00  0.00    +0.000 A 
ATOM     17  C   UNL     1      -0.605  10.533  21.903  0.00  0.00    +0.000 A 
ATOM     18  C   UNL     1      -1.291  11.167  22.945  0.00  0.00    +0.000 A 
ATOM     19  C   UNL     1      -2.067  12.305  22.731  0.00  0.00    +0.000 A 
BRANCH  14  21
ATOM     20  C   UNL     1      -2.460  15.265  21.349  0.00  0.00    +0.000 C 
ATOM     21  O   UNL     1      -2.896  13.961  21.164  0.00  0.00    +0.000 OA
ENDBRANCH  14  21
BRANCH  19  22
ATOM     22  O   UNL     1      -2.700  12.776  23.839  0.00  0.00    +0.000 OA
ATOM     23  C   UNL     1      -3.969  12.546  24.309  0.00  0.00    +0.000 C 
ENDBRANCH  19  22
ENDBRANCH  13  17
ENDBRANCH  12  13
ENDBRANCH  10  12
ENDBRANCH   9  10
ENDBRANCH   1   9
BRANCH   4  24
ATOM     24  O   UNL     1       4.907   4.176  17.007  0.00  0.00    +0.000 OA
BRANCH  24  25
ATOM     25  C   UNL     1       6.269   4.028  17.147  0.00  0.00    +0.000 C 
BRANCH  25  26
ATOM     26  C   UNL     1       6.887   5.362  17.454  0.00  0.00    +0.000 A 
ATOM     27  C   UNL     1       7.650   5.560  18.613  0.00  0.00    +0.000 A 
ATOM     28  C   UNL     1       8.182   6.824  18.881  0.00  0.00    +0.000 A 
ATOM     29  C   UNL     1       7.952   7.870  17.986  0.00  0.00    +0.000 A 
ATOM     30 CL   UNL     1       8.597   9.467  18.306  0.00  0.00    +0.000 Cl
ATOM     31  N   UNL     1       7.216   7.659  16.864  0.00  0.00    +0.000 NA
ATOM     32  C   UNL     1       6.685   6.439  16.581  0.00  0.00    +0.000 A 
ENDBRANCH  25  26
ENDBRANCH  24  25
ENDBRANCH   4  24
TORSDOF 11
ENDMDL
