MODEL 1
REMARK VINA RESULT:      -7.3      0.000      0.000
REMARK  Name = 
REMARK  10 active torsions:
REMARK  status: ('A' for Active; 'I' for Inactive)
REMARK    1  A    between atoms: C_1  and  C_2
REMARK    2  A    between atoms: C_9  and  S_10
REMARK    3  A    between atoms: S_10  and  N_13
REMARK    4  A    between atoms: N_13  and  C_14
REMARK    5  A    between atoms: C_14  and  C_15
REMARK    6  A    between atoms: C_15  and  C_16
REMARK    7  A    between atoms: C_16  and  O_17
REMARK    8  A    between atoms: O_17  and  C_18
REMARK    9  A    between atoms: C_18  and  C_19
REMARK   10  A    between atoms: C_18  and  C_20
REMARK                            x       y       z     vdW  Elec       q    Type
REMARK                         _______ _______ _______ _____ _____    ______ ____
ROOT
ATOM      1  C   UNL     1       0.182   9.054  21.849  0.00  0.00    +0.000 C 
ATOM      2  C   UNL     1       0.587   9.666  20.539  0.00  0.00    +0.000 C 
ATOM      3  O   UNL     1       0.216  10.815  20.277  0.00  0.00    +0.000 OA
ATOM      4  N   UNL     1       1.363   8.947  19.658  0.00  0.00    +0.000 N 
ATOM      5  C   UNL     1       1.788   9.594  18.406  0.00  0.00    +0.000 C 
ATOM      6  C   UNL     1       2.485   8.541  17.550  0.00  0.00    +0.000 C 
ATOM      7  C   UNL     1       2.622   7.406  18.517  0.00  0.00    +0.000 A 
ATOM      8  C   UNL     1       3.275   6.204  18.276  0.00  0.00    +0.000 A 
ATOM      9  C   UNL     1       3.224   5.225  19.268  0.00  0.00    +0.000 A 
ATOM     10  C   UNL     1       2.534   5.455  20.469  0.00  0.00    +0.000 A 
ATOM     11  C   UNL     1       1.888   6.681  20.694  0.00  0.00    +0.000 A 
ATOM     12  C   UNL     1       1.932   7.658  19.709  0.00  0.00    +0.000 A 
ENDROOT
BRANCH   9  13
ATOM     13  S   UNL     1       3.932   3.625  18.959  0.00  0.00    +0.000 S 
ATOM     14  O   UNL     1       3.734   2.832  20.155  0.00  0.00    +0.000 OA
ATOM     15  O   UNL     1       3.496   3.161  17.664  0.00  0.00    +0.000 OA
BRANCH  13  16
ATOM     16  N   UNL     1       5.588   3.936  18.878  0.00  0.00    +0.000 NA
ATOM     17  H   UNL     1       5.980   3.561  18.014  0.00  0.00    +0.000 HD
BRANCH  16  18
ATOM     18  C   UNL     1       6.030   5.271  19.308  0.00  0.00    +0.000 C 
BRANCH  18  19
ATOM     19  C   UNL     1       7.429   5.565  18.770  0.00  0.00    +0.000 C 
BRANCH  19  20
ATOM     20  C   UNL     1       7.349   6.074  17.332  0.00  0.00    +0.000 C 
BRANCH  20  21
ATOM     21  O   UNL     1       7.346   4.955  16.449  0.00  0.00    +0.000 OA
BRANCH  21  22
ATOM     22  C   UNL     1       6.587   5.141  15.252  0.00  0.00    +0.000 C 
ATOM     23  C   UNL     1       6.256   3.811  14.581  0.00  0.00    +0.000 C 
ATOM     24  C   UNL     1       5.297   5.850  15.654  0.00  0.00    +0.000 C 
ENDBRANCH  21  22
ENDBRANCH  20  21
ENDBRANCH  19  20
ENDBRANCH  18  19
ENDBRANCH  16  18
ENDBRANCH  13  16
ENDBRANCH   9  13
TORSDOF 7
ENDMDL
MODEL 2
REMARK VINA RESULT:      -7.2      1.175      2.132
REMARK  Name = 
REMARK  10 active torsions:
REMARK  status: ('A' for Active; 'I' for Inactive)
REMARK    1  A    between atoms: C_1  and  C_2
REMARK    2  A    between atoms: C_9  and  S_10
REMARK    3  A    between atoms: S_10  and  N_13
REMARK    4  A    between atoms: N_13  and  C_14
REMARK    5  A    between atoms: C_14  and  C_15
REMARK    6  A    between atoms: C_15  and  C_16
REMARK    7  A    between atoms: C_16  and  O_17
REMARK    8  A    between atoms: O_17  and  C_18
REMARK    9  A    between atoms: C_18  and  C_19
REMARK   10  A    between atoms: C_18  and  C_20
REMARK                            x       y       z     vdW  Elec       q    Type
REMARK                         _______ _______ _______ _____ _____    ______ ____
ROOT
ATOM      1  C   UNL     1      -0.074   8.906  22.126  0.00  0.00    +0.000 C 
ATOM      2  C   UNL     1       0.232   9.683  20.878  0.00  0.00    +0.000 C 
ATOM      3  O   UNL     1      -0.232  10.821  20.754  0.00  0.00    +0.000 OA
ATOM      4  N   UNL     1       1.020   9.122  19.898  0.00  0.00    +0.000 N 
ATOM      5  C   UNL     1       1.346   9.928  18.710  0.00  0.00    +0.000 C 
ATOM      6  C   UNL     1       2.081   9.028  17.722  0.00  0.00    +0.000 C 
ATOM      7  C   UNL     1       2.339   7.810  18.556  0.00  0.00    +0.000 A 
ATOM      8  C   UNL     1       3.066   6.694  18.164  0.00  0.00    +0.000 A 
ATOM      9  C   UNL     1       3.127   5.615  19.046  0.00  0.00    +0.000 A 
ATOM     10  C   UNL     1       2.472   5.663  20.287  0.00  0.00    +0.000 A 
ATOM     11  C   UNL     1       1.749   6.806  20.665  0.00  0.00    +0.000 A 
ATOM     12  C   UNL     1       1.682   7.882  19.790  0.00  0.00    +0.000 A 
ENDROOT
BRANCH   9  13
ATOM     13  S   UNL     1       3.935   4.115  18.541  0.00  0.00    +0.000 S 
ATOM     14  O   UNL     1       5.214   4.068  19.219  0.00  0.00    +0.000 OA
ATOM     15  O   UNL     1       2.994   3.022  18.627  0.00  0.00    +0.000 OA
BRANCH  13  16
ATOM     16  N   UNL     1       4.283   4.384  16.912  0.00  0.00    +0.000 NA
ATOM     17  H   UNL     1       4.131   5.363  16.672  0.00  0.00    +0.000 HD
BRANCH  16  18
ATOM     18  C   UNL     1       5.484   3.725  16.378  0.00  0.00    +0.000 C 
BRANCH  18  19
ATOM     19  C   UNL     1       6.474   4.767  15.860  0.00  0.00    +0.000 C 
BRANCH  19  20
ATOM     20  C   UNL     1       5.884   6.170  15.986  0.00  0.00    +0.000 C 
BRANCH  20  21
ATOM     21  O   UNL     1       6.170   6.671  17.290  0.00  0.00    +0.000 OA
BRANCH  21  22
ATOM     22  C   UNL     1       7.559   6.881  17.558  0.00  0.00    +0.000 C 
ATOM     23  C   UNL     1       7.891   8.365  17.684  0.00  0.00    +0.000 C 
ATOM     24  C   UNL     1       7.866   6.171  18.873  0.00  0.00    +0.000 C 
ENDBRANCH  21  22
ENDBRANCH  20  21
ENDBRANCH  19  20
ENDBRANCH  18  19
ENDBRANCH  16  18
ENDBRANCH  13  16
ENDBRANCH   9  13
TORSDOF 7
ENDMDL
MODEL 3
REMARK VINA RESULT:      -7.1      1.944      6.763
REMARK  Name = 
REMARK  10 active torsions:
REMARK  status: ('A' for Active; 'I' for Inactive)
REMARK    1  A    between atoms: C_1  and  C_2
REMARK    2  A    between atoms: C_9  and  S_10
REMARK    3  A    between atoms: S_10  and  N_13
REMARK    4  A    between atoms: N_13  and  C_14
REMARK    5  A    between atoms: C_14  and  C_15
REMARK    6  A    between atoms: C_15  and  C_16
REMARK    7  A    between atoms: C_16  and  O_17
REMARK    8  A    between atoms: O_17  and  C_18
REMARK    9  A    between atoms: C_18  and  C_19
REMARK   10  A    between atoms: C_18  and  C_20
REMARK                            x       y       z     vdW  Elec       q    Type
REMARK                         _______ _______ _______ _____ _____    ______ ____
ROOT
ATOM      1  C   UNL     1       6.063   3.975  13.987  0.00  0.00    +0.000 C 
ATOM      2  C   UNL     1       6.921   4.875  14.829  0.00  0.00    +0.000 C 
ATOM      3  O   UNL     1       7.920   5.393  14.320  0.00  0.00    +0.000 OA
ATOM      4  N   UNL     1       6.583   5.111  16.142  0.00  0.00    +0.000 N 
ATOM      5  C   UNL     1       7.414   6.041  16.926  0.00  0.00    +0.000 C 
ATOM      6  C   UNL     1       6.928   5.996  18.371  0.00  0.00    +0.000 C 
ATOM      7  C   UNL     1       5.662   5.206  18.241  0.00  0.00    +0.000 A 
ATOM      8  C   UNL     1       4.761   4.938  19.263  0.00  0.00    +0.000 A 
ATOM      9  C   UNL     1       3.677   4.108  18.974  0.00  0.00    +0.000 A 
ATOM     10  C   UNL     1       3.511   3.565  17.690  0.00  0.00    +0.000 A 
ATOM     11  C   UNL     1       4.431   3.857  16.670  0.00  0.00    +0.000 A 
ATOM     12  C   UNL     1       5.513   4.679  16.953  0.00  0.00    +0.000 A 
ENDROOT
BRANCH   9  13
ATOM     13  S   UNL     1       2.567   3.629  20.276  0.00  0.00    +0.000 S 
ATOM     14  O   UNL     1       1.263   3.433  19.676  0.00  0.00    +0.000 OA
ATOM     15  O   UNL     1       3.193   2.602  21.074  0.00  0.00    +0.000 OA
BRANCH  13  16
ATOM     16  N   UNL     1       2.440   5.024  21.217  0.00  0.00    +0.000 NA
ATOM     17  H   UNL     1       3.365   5.388  21.443  0.00  0.00    +0.000 HD
BRANCH  16  18
ATOM     18  C   UNL     1       1.400   5.988  20.829  0.00  0.00    +0.000 C 
BRANCH  18  19
ATOM     19  C   UNL     1       2.030   7.206  20.156  0.00  0.00    +0.000 C 
BRANCH  19  20
ATOM     20  C   UNL     1       1.264   8.474  20.526  0.00  0.00    +0.000 C 
BRANCH  20  21
ATOM     21  O   UNL     1       1.242   9.342  19.395  0.00  0.00    +0.000 OA
BRANCH  21  22
ATOM     22  C   UNL     1       0.415  10.499  19.548  0.00  0.00    +0.000 C 
ATOM     23  C   UNL     1      -0.808  10.443  18.637  0.00  0.00    +0.000 C 
ATOM     24  C   UNL     1      -0.030  10.532  21.007  0.00  0.00    +0.000 C 
ENDBRANCH  21  22
ENDBRANCH  20  21
ENDBRANCH  19  20
ENDBRANCH  18  19
ENDBRANCH  16  18
ENDBRANCH  13  16
ENDBRANCH   9  13
TORSDOF 7
ENDMDL
MODEL 4
REMARK VINA RESULT:      -7.0      1.993      6.326
REMARK  Name = 
REMARK  10 active torsions:
REMARK  status: ('A' for Active; 'I' for Inactive)
REMARK    1  A    between atoms: C_1  and  C_2
REMARK    2  A    between atoms: C_9  and  S_10
REMARK    3  A    between atoms: S_10  and  N_13
REMARK    4  A    between atoms: N_13  and  C_14
REMARK    5  A    between atoms: C_14  and  C_15
REMARK    6  A    between atoms: C_15  and  C_16
REMARK    7  A    between atoms: C_16  and  O_17
REMARK    8  A    between atoms: O_17  and  C_18
REMARK    9  A    between atoms: C_18  and  C_19
REMARK   10  A    between atoms: C_18  and  C_20
REMARK                            x       y       z     vdW  Elec       q    Type
REMARK                         _______ _______ _______ _____ _____    ______ ____
ROOT
ATOM      1  C   UNL     1       5.777   4.413  14.316  0.00  0.00    +0.000 C 
ATOM      2  C   UNL     1       6.697   5.085  15.295  0.00  0.00    +0.000 C 
ATOM      3  O   UNL     1       7.686   5.687  14.866  0.00  0.00    +0.000 OA
ATOM      4  N   UNL     1       6.425   5.024  16.643  0.00  0.00    +0.000 N 
ATOM      5  C   UNL     1       7.315   5.738  17.573  0.00  0.00    +0.000 C 
ATOM      6  C   UNL     1       6.893   5.376  18.993  0.00  0.00    +0.000 C 
ATOM      7  C   UNL     1       5.601   4.658  18.752  0.00  0.00    +0.000 A 
ATOM      8  C   UNL     1       4.739   4.182  19.731  0.00  0.00    +0.000 A 
ATOM      9  C   UNL     1       3.620   3.458  19.317  0.00  0.00    +0.000 A 
ATOM     10  C   UNL     1       3.382   3.222  17.954  0.00  0.00    +0.000 A 
ATOM     11  C   UNL     1       4.264   3.720  16.981  0.00  0.00    +0.000 A 
ATOM     12  C   UNL     1       5.380   4.439  17.387  0.00  0.00    +0.000 A 
ENDROOT
BRANCH   9  13
ATOM     13  S   UNL     1       2.556   2.717  20.531  0.00  0.00    +0.000 S 
ATOM     14  O   UNL     1       1.595   1.901  19.818  0.00  0.00    +0.000 OA
ATOM     15  O   UNL     1       3.365   2.173  21.597  0.00  0.00    +0.000 OA
BRANCH  13  16
ATOM     16  N   UNL     1       1.687   4.027  21.145  0.00  0.00    +0.000 NA
ATOM     17  H   UNL     1       2.048   4.298  22.059  0.00  0.00    +0.000 HD
BRANCH  16  18
ATOM     18  C   UNL     1       1.351   5.097  20.195  0.00  0.00    +0.000 C 
BRANCH  18  19
ATOM     19  C   UNL     1       1.691   6.462  20.792  0.00  0.00    +0.000 C 
BRANCH  19  20
ATOM     20  C   UNL     1       2.132   7.427  19.695  0.00  0.00    +0.000 C 
BRANCH  20  21
ATOM     21  O   UNL     1       1.625   8.726  19.996  0.00  0.00    +0.000 OA
BRANCH  21  22
ATOM     22  C   UNL     1       1.117   9.444  18.869  0.00  0.00    +0.000 C 
ATOM     23  C   UNL     1       0.939  10.928  19.179  0.00  0.00    +0.000 C 
ATOM     24  C   UNL     1       2.131   9.271  17.743  0.00  0.00    +0.000 C 
ENDBRANCH  21  22
ENDBRANCH  20  21
ENDBRANCH  19  20
ENDBRANCH  18  19
ENDBRANCH  16  18
ENDBRANCH  13  16
ENDBRANCH   9  13
TORSDOF 7
ENDMDL
MODEL 5
REMARK VINA RESULT:      -6.9      0.999      1.068
REMARK  Name = 
REMARK  10 active torsions:
REMARK  status: ('A' for Active; 'I' for Inactive)
REMARK    1  A    between atoms: C_1  and  C_2
REMARK    2  A    between atoms: C_9  and  S_10
REMARK    3  A    between atoms: S_10  and  N_13
REMARK    4  A    between atoms: N_13  and  C_14
REMARK    5  A    between atoms: C_14  and  C_15
REMARK    6  A    between atoms: C_15  and  C_16
REMARK    7  A    between atoms: C_16  and  O_17
REMARK    8  A    between atoms: O_17  and  C_18
REMARK    9  A    between atoms: C_18  and  C_19
REMARK   10  A    between atoms: C_18  and  C_20
REMARK                            x       y       z     vdW  Elec       q    Type
REMARK                         _______ _______ _______ _____ _____    ______ ____
ROOT
ATOM      1  C   UNL     1       0.495   9.839  22.204  0.00  0.00    +0.000 C 
ATOM      2  C   UNL     1       0.848  10.422  20.866  0.00  0.00    +0.000 C 
ATOM      3  O   UNL     1       0.708  11.637  20.690  0.00  0.00    +0.000 OA
ATOM      4  N   UNL     1       1.323   9.605  19.866  0.00  0.00    +0.000 N 
ATOM      5  C   UNL     1       1.711  10.215  18.584  0.00  0.00    +0.000 C 
ATOM      6  C   UNL     1       2.040   9.086  17.611  0.00  0.00    +0.000 C 
ATOM      7  C   UNL     1       2.050   7.896  18.519  0.00  0.00    +0.000 A 
ATOM      8  C   UNL     1       2.384   6.597  18.157  0.00  0.00    +0.000 A 
ATOM      9  C   UNL     1       2.251   5.598  19.121  0.00  0.00    +0.000 A 
ATOM     10  C   UNL     1       1.793   5.902  20.413  0.00  0.00    +0.000 A 
ATOM     11  C   UNL     1       1.468   7.224  20.759  0.00  0.00    +0.000 A 
ATOM     12  C   UNL     1       1.596   8.223  19.803  0.00  0.00    +0.000 A 
ENDROOT
BRANCH   9  13
ATOM     13  S   UNL     1       2.542   3.903  18.674  0.00  0.00    +0.000 S 
ATOM     14  O   UNL     1       2.505   3.126  19.896  0.00  0.00    +0.000 OA
ATOM     15  O   UNL     1       1.714   3.568  17.540  0.00  0.00    +0.000 OA
BRANCH  13  16
ATOM     16  N   UNL     1       4.152   3.900  18.170  0.00  0.00    +0.000 NA
ATOM     17  H   UNL     1       4.265   4.470  17.332  0.00  0.00    +0.000 HD
BRANCH  16  18
ATOM     18  C   UNL     1       5.171   4.017  19.223  0.00  0.00    +0.000 C 
BRANCH  18  19
ATOM     19  C   UNL     1       5.921   5.341  19.089  0.00  0.00    +0.000 C 
BRANCH  19  20
ATOM     20  C   UNL     1       7.074   5.202  18.097  0.00  0.00    +0.000 C 
BRANCH  20  21
ATOM     21  O   UNL     1       6.600   4.523  16.936  0.00  0.00    +0.000 OA
BRANCH  21  22
ATOM     22  C   UNL     1       6.603   5.309  15.741  0.00  0.00    +0.000 C 
ATOM     23  C   UNL     1       6.819   4.449  14.500  0.00  0.00    +0.000 C 
ATOM     24  C   UNL     1       5.244   5.996  15.663  0.00  0.00    +0.000 C 
ENDBRANCH  21  22
ENDBRANCH  20  21
ENDBRANCH  19  20
ENDBRANCH  18  19
ENDBRANCH  16  18
ENDBRANCH  13  16
ENDBRANCH   9  13
TORSDOF 7
ENDMDL
MODEL 6
REMARK VINA RESULT:      -6.8      3.744      5.334
REMARK  Name = 
REMARK  10 active torsions:
REMARK  status: ('A' for Active; 'I' for Inactive)
REMARK    1  A    between atoms: C_1  and  C_2
REMARK    2  A    between atoms: C_9  and  S_10
REMARK    3  A    between atoms: S_10  and  N_13
REMARK    4  A    between atoms: N_13  and  C_14
REMARK    5  A    between atoms: C_14  and  C_15
REMARK    6  A    between atoms: C_15  and  C_16
REMARK    7  A    between atoms: C_16  and  O_17
REMARK    8  A    between atoms: O_17  and  C_18
REMARK    9  A    between atoms: C_18  and  C_19
REMARK   10  A    between atoms: C_18  and  C_20
REMARK                            x       y       z     vdW  Elec       q    Type
REMARK                         _______ _______ _______ _____ _____    ______ ____
ROOT
ATOM      1  C   UNL     1       3.018   2.368  21.648  0.00  0.00    +0.000 C 
ATOM      2  C   UNL     1       1.930   2.872  20.743  0.00  0.00    +0.000 C 
ATOM      3  O   UNL     1       0.754   2.632  21.035  0.00  0.00    +0.000 OA
ATOM      4  N   UNL     1       2.254   3.588  19.614  0.00  0.00    +0.000 N 
ATOM      5  C   UNL     1       1.163   4.114  18.777  0.00  0.00    +0.000 C 
ATOM      6  C   UNL     1       1.787   4.716  17.522  0.00  0.00    +0.000 C 
ATOM      7  C   UNL     1       3.243   4.705  17.871  0.00  0.00    +0.000 A 
ATOM      8  C   UNL     1       4.271   5.231  17.100  0.00  0.00    +0.000 A 
ATOM      9  C   UNL     1       5.580   5.050  17.547  0.00  0.00    +0.000 A 
ATOM     10  C   UNL     1       5.842   4.357  18.739  0.00  0.00    +0.000 A 
ATOM     11  C   UNL     1       4.786   3.840  19.508  0.00  0.00    +0.000 A 
ATOM     12  C   UNL     1       3.482   4.014  19.066  0.00  0.00    +0.000 A 
ENDROOT
BRANCH   9  13
ATOM     13  S   UNL     1       6.936   5.590  16.534  0.00  0.00    +0.000 S 
ATOM     14  O   UNL     1       7.287   6.928  16.966  0.00  0.00    +0.000 OA
ATOM     15  O   UNL     1       7.920   4.536  16.464  0.00  0.00    +0.000 OA
BRANCH  13  16
ATOM     16  N   UNL     1       6.241   5.764  15.006  0.00  0.00    +0.000 NA
ATOM     17  H   UNL     1       5.992   6.739  14.836  0.00  0.00    +0.000 HD
BRANCH  16  18
ATOM     18  C   UNL     1       6.868   5.014  13.908  0.00  0.00    +0.000 C 
BRANCH  18  19
ATOM     19  C   UNL     1       6.021   3.794  13.548  0.00  0.00    +0.000 C 
BRANCH  19  20
ATOM     20  C   UNL     1       6.420   3.257  12.176  0.00  0.00    +0.000 C 
BRANCH  20  21
ATOM     21  O   UNL     1       5.605   2.127  11.871  0.00  0.00    +0.000 OA
BRANCH  21  22
ATOM     22  C   UNL     1       6.142   1.255  10.873  0.00  0.00    +0.000 C 
ATOM     23  C   UNL     1       7.555   1.665  10.467  0.00  0.00    +0.000 C 
ATOM     24  C   UNL     1       6.165  -0.145  11.478  0.00  0.00    +0.000 C 
ENDBRANCH  21  22
ENDBRANCH  20  21
ENDBRANCH  19  20
ENDBRANCH  18  19
ENDBRANCH  16  18
ENDBRANCH  13  16
ENDBRANCH   9  13
TORSDOF 7
ENDMDL
MODEL 7
REMARK VINA RESULT:      -6.7      2.256      5.935
REMARK  Name = 
REMARK  10 active torsions:
REMARK  status: ('A' for Active; 'I' for Inactive)
REMARK    1  A    between atoms: C_1  and  C_2
REMARK    2  A    between atoms: C_9  and  S_10
REMARK    3  A    between atoms: S_10  and  N_13
REMARK    4  A    between atoms: N_13  and  C_14
REMARK    5  A    between atoms: C_14  and  C_15
REMARK    6  A    between atoms: C_15  and  C_16
REMARK    7  A    between atoms: C_16  and  O_17
REMARK    8  A    between atoms: O_17  and  C_18
REMARK    9  A    between atoms: C_18  and  C_19
REMARK   10  A    between atoms: C_18  and  C_20
REMARK                            x       y       z     vdW  Elec       q    Type
REMARK                         _______ _______ _______ _____ _____    ______ ____
ROOT
ATOM      1  C   UNL     1       5.880   4.251  14.035  0.00  0.00    +0.000 C 
ATOM      2  C   UNL     1       6.781   4.928  15.027  0.00  0.00    +0.000 C 
ATOM      3  O   UNL     1       7.785   5.519  14.615  0.00  0.00    +0.000 OA
ATOM      4  N   UNL     1       6.478   4.884  16.369  0.00  0.00    +0.000 N 
ATOM      5  C   UNL     1       7.351   5.603  17.312  0.00  0.00    +0.000 C 
ATOM      6  C   UNL     1       6.894   5.260  18.726  0.00  0.00    +0.000 C 
ATOM      7  C   UNL     1       5.603   4.548  18.463  0.00  0.00    +0.000 A 
ATOM      8  C   UNL     1       4.715   4.087  19.426  0.00  0.00    +0.000 A 
ATOM      9  C   UNL     1       3.602   3.366  18.995  0.00  0.00    +0.000 A 
ATOM     10  C   UNL     1       3.394   3.116  17.629  0.00  0.00    +0.000 A 
ATOM     11  C   UNL     1       4.301   3.598  16.672  0.00  0.00    +0.000 A 
ATOM     12  C   UNL     1       5.412   4.314  17.096  0.00  0.00    +0.000 A 
ENDROOT
BRANCH   9  13
ATOM     13  S   UNL     1       2.505   2.645  20.192  0.00  0.00    +0.000 S 
ATOM     14  O   UNL     1       1.854   1.520  19.554  0.00  0.00    +0.000 OA
ATOM     15  O   UNL     1       3.207   2.500  21.446  0.00  0.00    +0.000 OA
BRANCH  13  16
ATOM     16  N   UNL     1       1.311   3.821  20.390  0.00  0.00    +0.000 NA
ATOM     17  H   UNL     1       0.398   3.384  20.516  0.00  0.00    +0.000 HD
BRANCH  16  18
ATOM     18  C   UNL     1       1.649   4.965  21.249  0.00  0.00    +0.000 C 
BRANCH  18  19
ATOM     19  C   UNL     1       1.218   6.271  20.585  0.00  0.00    +0.000 C 
BRANCH  19  20
ATOM     20  C   UNL     1       2.438   7.044  20.090  0.00  0.00    +0.000 C 
BRANCH  20  21
ATOM     21  O   UNL     1       2.589   6.817  18.691  0.00  0.00    +0.000 OA
BRANCH  21  22
ATOM     22  C   UNL     1       3.207   7.890  17.975  0.00  0.00    +0.000 C 
ATOM     23  C   UNL     1       3.905   7.396  16.711  0.00  0.00    +0.000 C 
ATOM     24  C   UNL     1       2.097   8.868  17.603  0.00  0.00    +0.000 C 
ENDBRANCH  21  22
ENDBRANCH  20  21
ENDBRANCH  19  20
ENDBRANCH  18  19
ENDBRANCH  16  18
ENDBRANCH  13  16
ENDBRANCH   9  13
TORSDOF 7
ENDMDL
MODEL 8
REMARK VINA RESULT:      -6.6      2.400      4.002
REMARK  Name = 
REMARK  10 active torsions:
REMARK  status: ('A' for Active; 'I' for Inactive)
REMARK    1  A    between atoms: C_1  and  C_2
REMARK    2  A    between atoms: C_9  and  S_10
REMARK    3  A    between atoms: S_10  and  N_13
REMARK    4  A    between atoms: N_13  and  C_14
REMARK    5  A    between atoms: C_14  and  C_15
REMARK    6  A    between atoms: C_15  and  C_16
REMARK    7  A    between atoms: C_16  and  O_17
REMARK    8  A    between atoms: O_17  and  C_18
REMARK    9  A    between atoms: C_18  and  C_19
REMARK   10  A    between atoms: C_18  and  C_20
REMARK                            x       y       z     vdW  Elec       q    Type
REMARK                         _______ _______ _______ _____ _____    ______ ____
ROOT
ATOM      1  C   UNL     1      -0.476   9.736  23.222  0.00  0.00    +0.000 C 
ATOM      2  C   UNL     1      -0.587  10.731  22.103  0.00  0.00    +0.000 C 
ATOM      3  O   UNL     1      -1.225  11.772  22.292  0.00  0.00    +0.000 OA
ATOM      4  N   UNL     1       0.021  10.475  20.895  0.00  0.00    +0.000 N 
ATOM      5  C   UNL     1      -0.060  11.495  19.836  0.00  0.00    +0.000 C 
ATOM      6  C   UNL     1       0.543  10.899  18.567  0.00  0.00    +0.000 C 
ATOM      7  C   UNL     1       1.162   9.639  19.088  0.00  0.00    +0.000 A 
ATOM      8  C   UNL     1       1.929   8.744  18.354  0.00  0.00    +0.000 A 
ATOM      9  C   UNL     1       2.350   7.574  18.988  0.00  0.00    +0.000 A 
ATOM     10  C   UNL     1       2.005   7.318  20.325  0.00  0.00    +0.000 A 
ATOM     11  C   UNL     1       1.235   8.242  21.050  0.00  0.00    +0.000 A 
ATOM     12  C   UNL     1       0.810   9.405  20.423  0.00  0.00    +0.000 A 
ENDROOT
BRANCH   9  13
ATOM     13  S   UNL     1       3.223   6.338  18.058  0.00  0.00    +0.000 S 
ATOM     14  O   UNL     1       2.254   5.336  17.663  0.00  0.00    +0.000 OA
ATOM     15  O   UNL     1       4.073   6.990  17.090  0.00  0.00    +0.000 OA
BRANCH  13  16
ATOM     16  N   UNL     1       4.208   5.599  19.212  0.00  0.00    +0.000 NA
ATOM     17  H   UNL     1       3.718   5.524  20.104  0.00  0.00    +0.000 HD
BRANCH  16  18
ATOM     18  C   UNL     1       4.996   4.443  18.763  0.00  0.00    +0.000 C 
BRANCH  18  19
ATOM     19  C   UNL     1       4.647   3.209  19.593  0.00  0.00    +0.000 C 
BRANCH  19  20
ATOM     20  C   UNL     1       3.486   2.449  18.954  0.00  0.00    +0.000 C 
BRANCH  20  21
ATOM     21  O   UNL     1       2.700   1.860  19.988  0.00  0.00    +0.000 OA
BRANCH  21  22
ATOM     22  C   UNL     1       1.383   2.400  20.117  0.00  0.00    +0.000 C 
ATOM     23  C   UNL     1       1.390   3.734  20.858  0.00  0.00    +0.000 C 
ATOM     24  C   UNL     1       0.848   2.599  18.702  0.00  0.00    +0.000 C 
ENDBRANCH  21  22
ENDBRANCH  20  21
ENDBRANCH  19  20
ENDBRANCH  18  19
ENDBRANCH  16  18
ENDBRANCH  13  16
ENDBRANCH   9  13
TORSDOF 7
ENDMDL
MODEL 9
REMARK VINA RESULT:      -6.6      2.086      6.931
REMARK  Name = 
REMARK  10 active torsions:
REMARK  status: ('A' for Active; 'I' for Inactive)
REMARK    1  A    between atoms: C_1  and  C_2
REMARK    2  A    between atoms: C_9  and  S_10
REMARK    3  A    between atoms: S_10  and  N_13
REMARK    4  A    between atoms: N_13  and  C_14
REMARK    5  A    between atoms: C_14  and  C_15
REMARK    6  A    between atoms: C_15  and  C_16
REMARK    7  A    between atoms: C_16  and  O_17
REMARK    8  A    between atoms: O_17  and  C_18
REMARK    9  A    between atoms: C_18  and  C_19
REMARK   10  A    between atoms: C_18  and  C_20
REMARK                            x       y       z     vdW  Elec       q    Type
REMARK                         _______ _______ _______ _____ _____    ______ ____
ROOT
ATOM      1  C   UNL     1       6.295   4.296  13.839  0.00  0.00    +0.000 C 
ATOM      2  C   UNL     1       7.091   5.067  14.854  0.00  0.00    +0.000 C 
ATOM      3  O   UNL     1       8.106   5.666  14.485  0.00  0.00    +0.000 OA
ATOM      4  N   UNL     1       6.679   5.099  16.167  0.00  0.00    +0.000 N 
ATOM      5  C   UNL     1       7.450   5.907  17.126  0.00  0.00    +0.000 C 
ATOM      6  C   UNL     1       6.888   5.639  18.519  0.00  0.00    +0.000 C 
ATOM      7  C   UNL     1       5.646   4.866  18.202  0.00  0.00    +0.000 A 
ATOM      8  C   UNL     1       4.696   4.437  19.119  0.00  0.00    +0.000 A 
ATOM      9  C   UNL     1       3.644   3.650  18.649  0.00  0.00    +0.000 A 
ATOM     10  C   UNL     1       3.557   3.306  17.291  0.00  0.00    +0.000 A 
ATOM     11  C   UNL     1       4.525   3.758  16.379  0.00  0.00    +0.000 A 
ATOM     12  C   UNL     1       5.575   4.539  16.842  0.00  0.00    +0.000 A 
ENDROOT
BRANCH   9  13
ATOM     13  S   UNL     1       2.475   2.969  19.800  0.00  0.00    +0.000 S 
ATOM     14  O   UNL     1       1.801   1.876  19.130  0.00  0.00    +0.000 OA
ATOM     15  O   UNL     1       3.123   2.787  21.077  0.00  0.00    +0.000 OA
BRANCH  13  16
ATOM     16  N   UNL     1       1.324   4.193  19.962  0.00  0.00    +0.000 NA
ATOM     17  H   UNL     1       0.382   3.802  19.948  0.00  0.00    +0.000 HD
BRANCH  16  18
ATOM     18  C   UNL     1       1.615   5.243  20.948  0.00  0.00    +0.000 C 
BRANCH  18  19
ATOM     19  C   UNL     1       1.917   6.564  20.242  0.00  0.00    +0.000 C 
BRANCH  19  20
ATOM     20  C   UNL     1       0.952   7.651  20.711  0.00  0.00    +0.000 C 
BRANCH  20  21
ATOM     21  O   UNL     1       1.707   8.724  21.269  0.00  0.00    +0.000 OA
BRANCH  21  22
ATOM     22  C   UNL     1       0.924   9.828  21.730  0.00  0.00    +0.000 C 
ATOM     23  C   UNL     1       0.084  10.431  20.608  0.00  0.00    +0.000 C 
ATOM     24  C   UNL     1       0.010   9.292  22.827  0.00  0.00    +0.000 C 
ENDBRANCH  21  22
ENDBRANCH  20  21
ENDBRANCH  19  20
ENDBRANCH  18  19
ENDBRANCH  16  18
ENDBRANCH  13  16
ENDBRANCH   9  13
TORSDOF 7
ENDMDL
