MODEL 1
REMARK VINA RESULT:      -7.5      0.000      0.000
REMARK  Name = 
REMARK  5 active torsions:
REMARK  status: ('A' for Active; 'I' for Inactive)
REMARK    1  A    between atoms: C_1  and  N_2
REMARK    2  A    between atoms: C_5  and  C_6
REMARK    3  A    between atoms: C_6  and  C_8
REMARK    4  A    between atoms: C_12  and  C_13
REMARK    5  A    between atoms: C_16  and  C_17
REMARK                            x       y       z     vdW  Elec       q    Type
REMARK                         _______ _______ _______ _____ _____    ______ ____
ROOT
ATOM      1  C   UNL     1       3.266   4.657  17.432  0.00  0.00    +0.000 A 
ATOM      2  C   UNL     1       4.448   5.064  16.825  0.00  0.00    +0.000 A 
ATOM      3  N   UNL     1       4.903   6.338  16.837  0.00  0.00    +0.000 NA
ATOM      4  C   UNL     1       4.143   7.249  17.492  0.00  0.00    +0.000 A 
ATOM      5  C   UNL     1       2.944   6.971  18.154  0.00  0.00    +0.000 A 
ATOM      6  C   UNL     1       2.519   5.630  18.100  0.00  0.00    +0.000 A 
ENDROOT
BRANCH   5   7
ATOM      7  C   UNL     1       2.160   8.012  18.860  0.00  0.00    +0.000 A 
ATOM      8  C   UNL     1       1.798   7.865  20.215  0.00  0.00    +0.000 A 
ATOM      9  C   UNL     1       1.061   8.845  20.886  0.00  0.00    +0.000 A 
ATOM     10  C   UNL     1       0.659   9.996  20.211  0.00  0.00    +0.000 A 
ATOM     11  C   UNL     1       1.002  10.176  18.873  0.00  0.00    +0.000 A 
ATOM     12  C   UNL     1       1.753   9.197  18.209  0.00  0.00    +0.000 A 
BRANCH  10  13
ATOM     13  C   UNL     1      -0.132  11.028  20.909  0.00  0.00    +0.000 C 
ATOM     14  O   UNL     1       0.216  11.499  21.985  0.00  0.00    +0.000 OA
ENDBRANCH  10  13
ENDBRANCH   5   7
BRANCH   1  15
ATOM     15  C   UNL     1       2.862   3.227  17.312  0.00  0.00    +0.000 C 
ATOM     16  O   UNL     1       2.427   2.848  16.225  0.00  0.00    +0.000 OA
BRANCH  15  21
ATOM     17  C   UNL     1       1.391   2.615  21.899  0.00  0.00    +0.000 C 
ATOM     18  N   UNL     1       2.253   2.673  20.741  0.00  0.00    +0.000 N 
ATOM     19  C   UNL     1       3.664   2.438  20.832  0.00  0.00    +0.000 C 
ATOM     20  C   UNL     1       4.158   2.589  19.407  0.00  0.00    +0.000 C 
ATOM     21  C   UNL     1       2.936   2.301  18.513  0.00  0.00    +0.000 C 
ATOM     22  C   UNL     1       1.769   2.460  19.463  0.00  0.00    +0.000 C 
ATOM     23  O   UNL     1       0.590   2.353  19.162  0.00  0.00    +0.000 OA
ENDBRANCH  15  21
ENDBRANCH   1  15
TORSDOF 4
ENDMDL
MODEL 2
REMARK VINA RESULT:      -7.4      2.987      7.857
REMARK  Name = 
REMARK  5 active torsions:
REMARK  status: ('A' for Active; 'I' for Inactive)
REMARK    1  A    between atoms: C_1  and  N_2
REMARK    2  A    between atoms: C_5  and  C_6
REMARK    3  A    between atoms: C_6  and  C_8
REMARK    4  A    between atoms: C_12  and  C_13
REMARK    5  A    between atoms: C_16  and  C_17
REMARK                            x       y       z     vdW  Elec       q    Type
REMARK                         _______ _______ _______ _____ _____    ______ ____
ROOT
ATOM      1  C   UNL     1       1.615   8.031  19.923  0.00  0.00    +0.000 A 
ATOM      2  C   UNL     1       1.265   7.056  20.848  0.00  0.00    +0.000 A 
ATOM      3  N   UNL     1       1.696   5.774  20.795  0.00  0.00    +0.000 NA
ATOM      4  C   UNL     1       2.520   5.452  19.769  0.00  0.00    +0.000 A 
ATOM      5  C   UNL     1       2.960   6.337  18.780  0.00  0.00    +0.000 A 
ATOM      6  C   UNL     1       2.473   7.653  18.885  0.00  0.00    +0.000 A 
ENDROOT
BRANCH   5   7
ATOM      7  C   UNL     1       3.869   5.925  17.685  0.00  0.00    +0.000 A 
ATOM      8  C   UNL     1       4.657   6.867  16.992  0.00  0.00    +0.000 A 
ATOM      9  C   UNL     1       5.518   6.484  15.960  0.00  0.00    +0.000 A 
ATOM     10  C   UNL     1       5.604   5.143  15.589  0.00  0.00    +0.000 A 
ATOM     11  C   UNL     1       4.843   4.185  16.254  0.00  0.00    +0.000 A 
ATOM     12  C   UNL     1       3.992   4.573  17.297  0.00  0.00    +0.000 A 
BRANCH  10  13
ATOM     13  C   UNL     1       6.501   4.733  14.490  0.00  0.00    +0.000 C 
ATOM     14  O   UNL     1       7.545   5.325  14.246  0.00  0.00    +0.000 OA
ENDBRANCH  10  13
ENDBRANCH   5   7
BRANCH   1  15
ATOM     15  C   UNL     1       1.041   9.398  20.078  0.00  0.00    +0.000 C 
ATOM     16  O   UNL     1       1.008   9.875  21.212  0.00  0.00    +0.000 OA
BRANCH  15  21
ATOM     17  C   UNL     1      -0.213  13.775  18.394  0.00  0.00    +0.000 C 
ATOM     18  N   UNL     1      -0.279  12.368  18.710  0.00  0.00    +0.000 N 
ATOM     19  C   UNL     1      -1.436  11.575  18.412  0.00  0.00    +0.000 C 
ATOM     20  C   UNL     1      -1.070  10.186  18.896  0.00  0.00    +0.000 C 
ATOM     21  C   UNL     1       0.471  10.136  18.880  0.00  0.00    +0.000 C 
ATOM     22  C   UNL     1       0.863  11.597  18.837  0.00  0.00    +0.000 C 
ATOM     23  O   UNL     1       2.007  12.024  18.848  0.00  0.00    +0.000 OA
ENDBRANCH  15  21
ENDBRANCH   1  15
TORSDOF 4
ENDMDL
MODEL 3
REMARK VINA RESULT:      -7.4      2.703      4.147
REMARK  Name = 
REMARK  5 active torsions:
REMARK  status: ('A' for Active; 'I' for Inactive)
REMARK    1  A    between atoms: C_1  and  N_2
REMARK    2  A    between atoms: C_5  and  C_6
REMARK    3  A    between atoms: C_6  and  C_8
REMARK    4  A    between atoms: C_12  and  C_13
REMARK    5  A    between atoms: C_16  and  C_17
REMARK                            x       y       z     vdW  Elec       q    Type
REMARK                         _______ _______ _______ _____ _____    ______ ____
ROOT
ATOM      1  C   UNL     1       4.702   5.673  16.797  0.00  0.00    +0.000 A 
ATOM      2  C   UNL     1       4.173   4.400  16.969  0.00  0.00    +0.000 A 
ATOM      3  N   UNL     1       3.068   4.135  17.704  0.00  0.00    +0.000 NA
ATOM      4  C   UNL     1       2.460   5.194  18.291  0.00  0.00    +0.000 A 
ATOM      5  C   UNL     1       2.880   6.523  18.187  0.00  0.00    +0.000 A 
ATOM      6  C   UNL     1       4.038   6.735  17.417  0.00  0.00    +0.000 A 
ENDROOT
BRANCH   5   7
ATOM      7  C   UNL     1       2.166   7.641  18.850  0.00  0.00    +0.000 A 
ATOM      8  C   UNL     1       1.840   7.593  20.221  0.00  0.00    +0.000 A 
ATOM      9  C   UNL     1       1.169   8.646  20.850  0.00  0.00    +0.000 A 
ATOM     10  C   UNL     1       0.800   9.772  20.118  0.00  0.00    +0.000 A 
ATOM     11  C   UNL     1       1.110   9.855  18.762  0.00  0.00    +0.000 A 
ATOM     12  C   UNL     1       1.794   8.803  18.139  0.00  0.00    +0.000 A 
BRANCH  10  13
ATOM     13  C   UNL     1       0.079  10.881  20.773  0.00  0.00    +0.000 C 
ATOM     14  O   UNL     1      -0.860  11.455  20.235  0.00  0.00    +0.000 OA
ENDBRANCH  10  13
ENDBRANCH   5   7
BRANCH   1  15
ATOM     15  C   UNL     1       5.947   5.821  15.990  0.00  0.00    +0.000 C 
ATOM     16  O   UNL     1       5.856   5.672  14.772  0.00  0.00    +0.000 OA
BRANCH  15  21
ATOM     17  C   UNL     1       8.342   5.525  20.203  0.00  0.00    +0.000 C 
ATOM     18  N   UNL     1       7.829   6.058  18.963  0.00  0.00    +0.000 N 
ATOM     19  C   UNL     1       8.093   7.404  18.548  0.00  0.00    +0.000 C 
ATOM     20  C   UNL     1       7.386   7.527  17.213  0.00  0.00    +0.000 C 
ATOM     21  C   UNL     1       7.279   6.090  16.668  0.00  0.00    +0.000 C 
ATOM     22  C   UNL     1       7.506   5.237  17.897  0.00  0.00    +0.000 C 
ATOM     23  O   UNL     1       7.473   4.016  17.929  0.00  0.00    +0.000 OA
ENDBRANCH  15  21
ENDBRANCH   1  15
TORSDOF 4
ENDMDL
MODEL 4
REMARK VINA RESULT:      -7.4      0.495      1.119
REMARK  Name = 
REMARK  5 active torsions:
REMARK  status: ('A' for Active; 'I' for Inactive)
REMARK    1  A    between atoms: C_1  and  N_2
REMARK    2  A    between atoms: C_5  and  C_6
REMARK    3  A    between atoms: C_6  and  C_8
REMARK    4  A    between atoms: C_12  and  C_13
REMARK    5  A    between atoms: C_16  and  C_17
REMARK                            x       y       z     vdW  Elec       q    Type
REMARK                         _______ _______ _______ _____ _____    ______ ____
ROOT
ATOM      1  C   UNL     1       3.306   4.598  17.430  0.00  0.00    +0.000 A 
ATOM      2  C   UNL     1       4.510   4.988  16.858  0.00  0.00    +0.000 A 
ATOM      3  N   UNL     1       4.967   6.262  16.856  0.00  0.00    +0.000 NA
ATOM      4  C   UNL     1       4.186   7.189  17.459  0.00  0.00    +0.000 A 
ATOM      5  C   UNL     1       2.962   6.929  18.084  0.00  0.00    +0.000 A 
ATOM      6  C   UNL     1       2.536   5.588  18.047  0.00  0.00    +0.000 A 
ENDROOT
BRANCH   5   7
ATOM      7  C   UNL     1       2.155   7.988  18.734  0.00  0.00    +0.000 A 
ATOM      8  C   UNL     1       1.698   9.110  18.011  0.00  0.00    +0.000 A 
ATOM      9  C   UNL     1       0.935  10.111  18.620  0.00  0.00    +0.000 A 
ATOM     10  C   UNL     1       0.617  10.016  19.973  0.00  0.00    +0.000 A 
ATOM     11  C   UNL     1       1.048   8.921  20.716  0.00  0.00    +0.000 A 
ATOM     12  C   UNL     1       1.801   7.914  20.099  0.00  0.00    +0.000 A 
BRANCH  10  13
ATOM     13  C   UNL     1      -0.177  11.077  20.625  0.00  0.00    +0.000 C 
ATOM     14  O   UNL     1      -0.799  11.913  19.982  0.00  0.00    +0.000 OA
ENDBRANCH  10  13
ENDBRANCH   5   7
BRANCH   1  15
ATOM     15  C   UNL     1       2.903   3.166  17.330  0.00  0.00    +0.000 C 
ATOM     16  O   UNL     1       2.482   2.768  16.244  0.00  0.00    +0.000 OA
BRANCH  15  21
ATOM     17  C   UNL     1       1.344   2.620  21.896  0.00  0.00    +0.000 C 
ATOM     18  N   UNL     1       2.228   2.666  20.755  0.00  0.00    +0.000 N 
ATOM     19  C   UNL     1       3.639   2.445  20.878  0.00  0.00    +0.000 C 
ATOM     20  C   UNL     1       4.161   2.575  19.462  0.00  0.00    +0.000 C 
ATOM     21  C   UNL     1       2.960   2.261  18.548  0.00  0.00    +0.000 C 
ATOM     22  C   UNL     1       1.773   2.426  19.471  0.00  0.00    +0.000 C 
ATOM     23  O   UNL     1       0.601   2.303  19.148  0.00  0.00    +0.000 OA
ENDBRANCH  15  21
ENDBRANCH   1  15
TORSDOF 4
ENDMDL
MODEL 5
REMARK VINA RESULT:      -7.3      2.709      4.264
REMARK  Name = 
REMARK  5 active torsions:
REMARK  status: ('A' for Active; 'I' for Inactive)
REMARK    1  A    between atoms: C_1  and  N_2
REMARK    2  A    between atoms: C_5  and  C_6
REMARK    3  A    between atoms: C_6  and  C_8
REMARK    4  A    between atoms: C_12  and  C_13
REMARK    5  A    between atoms: C_16  and  C_17
REMARK                            x       y       z     vdW  Elec       q    Type
REMARK                         _______ _______ _______ _____ _____    ______ ____
ROOT
ATOM      1  C   UNL     1       4.672   5.801  16.834  0.00  0.00    +0.000 A 
ATOM      2  C   UNL     1       4.140   4.536  17.043  0.00  0.00    +0.000 A 
ATOM      3  N   UNL     1       3.037   4.293  17.789  0.00  0.00    +0.000 NA
ATOM      4  C   UNL     1       2.433   5.369  18.348  0.00  0.00    +0.000 A 
ATOM      5  C   UNL     1       2.855   6.694  18.206  0.00  0.00    +0.000 A 
ATOM      6  C   UNL     1       4.011   6.882  17.426  0.00  0.00    +0.000 A 
ENDROOT
BRANCH   5   7
ATOM      7  C   UNL     1       2.146   7.832  18.839  0.00  0.00    +0.000 A 
ATOM      8  C   UNL     1       1.800   8.983  18.101  0.00  0.00    +0.000 A 
ATOM      9  C   UNL     1       1.130  10.057  18.692  0.00  0.00    +0.000 A 
ATOM     10  C   UNL     1       0.795  10.008  20.044  0.00  0.00    +0.000 A 
ATOM     11  C   UNL     1       1.117   8.885  20.803  0.00  0.00    +0.000 A 
ATOM     12  C   UNL     1       1.777   7.806  20.201  0.00  0.00    +0.000 A 
BRANCH  10  13
ATOM     13  C   UNL     1       0.099  11.145  20.678  0.00  0.00    +0.000 C 
ATOM     14  O   UNL     1      -1.097  11.350  20.514  0.00  0.00    +0.000 OA
ENDBRANCH  10  13
ENDBRANCH   5   7
BRANCH   1  15
ATOM     15  C   UNL     1       5.914   5.925  16.019  0.00  0.00    +0.000 C 
ATOM     16  O   UNL     1       5.811   5.785  14.801  0.00  0.00    +0.000 OA
BRANCH  15  21
ATOM     17  C   UNL     1       8.335   5.527  20.209  0.00  0.00    +0.000 C 
ATOM     18  N   UNL     1       7.824   6.086  18.979  0.00  0.00    +0.000 N 
ATOM     19  C   UNL     1       8.112   7.432  18.579  0.00  0.00    +0.000 C 
ATOM     20  C   UNL     1       7.397   7.586  17.252  0.00  0.00    +0.000 C 
ATOM     21  C   UNL     1       7.256   6.158  16.690  0.00  0.00    +0.000 C 
ATOM     22  C   UNL     1       7.476   5.286  17.906  0.00  0.00    +0.000 C 
ATOM     23  O   UNL     1       7.418   4.065  17.923  0.00  0.00    +0.000 OA
ENDBRANCH  15  21
ENDBRANCH   1  15
TORSDOF 4
ENDMDL
MODEL 6
REMARK VINA RESULT:      -7.3      1.976      3.967
REMARK  Name = 
REMARK  5 active torsions:
REMARK  status: ('A' for Active; 'I' for Inactive)
REMARK    1  A    between atoms: C_1  and  N_2
REMARK    2  A    between atoms: C_5  and  C_6
REMARK    3  A    between atoms: C_6  and  C_8
REMARK    4  A    between atoms: C_12  and  C_13
REMARK    5  A    between atoms: C_16  and  C_17
REMARK                            x       y       z     vdW  Elec       q    Type
REMARK                         _______ _______ _______ _____ _____    ______ ____
ROOT
ATOM      1  C   UNL     1       3.331   4.125  18.789  0.00  0.00    +0.000 A 
ATOM      2  C   UNL     1       3.000   3.558  20.013  0.00  0.00    +0.000 A 
ATOM      3  N   UNL     1       2.368   4.224  21.008  0.00  0.00    +0.000 NA
ATOM      4  C   UNL     1       2.048   5.518  20.765  0.00  0.00    +0.000 A 
ATOM      5  C   UNL     1       2.310   6.203  19.575  0.00  0.00    +0.000 A 
ATOM      6  C   UNL     1       2.975   5.461  18.582  0.00  0.00    +0.000 A 
ENDROOT
BRANCH   5   7
ATOM      7  C   UNL     1       1.928   7.620  19.368  0.00  0.00    +0.000 A 
ATOM      8  C   UNL     1       2.124   8.258  18.125  0.00  0.00    +0.000 A 
ATOM      9  C   UNL     1       1.763   9.593  17.924  0.00  0.00    +0.000 A 
ATOM     10  C   UNL     1       1.202  10.327  18.967  0.00  0.00    +0.000 A 
ATOM     11  C   UNL     1       0.990   9.728  20.206  0.00  0.00    +0.000 A 
ATOM     12  C   UNL     1       1.342   8.385  20.399  0.00  0.00    +0.000 A 
BRANCH  10  13
ATOM     13  C   UNL     1       0.832  11.742  18.765  0.00  0.00    +0.000 C 
ATOM     14  O   UNL     1      -0.328  12.091  18.583  0.00  0.00    +0.000 OA
ENDBRANCH  10  13
ENDBRANCH   5   7
BRANCH   1  15
ATOM     15  C   UNL     1       4.060   3.289  17.793  0.00  0.00    +0.000 C 
ATOM     16  O   UNL     1       3.690   2.124  17.649  0.00  0.00    +0.000 OA
BRANCH  15  21
ATOM     17  C   UNL     1       7.332   6.875  17.719  0.00  0.00    +0.000 C 
ATOM     18  N   UNL     1       6.329   5.937  17.271  0.00  0.00    +0.000 N 
ATOM     19  C   UNL     1       5.833   5.939  15.926  0.00  0.00    +0.000 C 
ATOM     20  C   UNL     1       4.827   4.807  15.899  0.00  0.00    +0.000 C 
ATOM     21  C   UNL     1       5.248   3.853  17.034  0.00  0.00    +0.000 C 
ATOM     22  C   UNL     1       6.150   4.713  17.891  0.00  0.00    +0.000 C 
ATOM     23  O   UNL     1       6.686   4.362  18.931  0.00  0.00    +0.000 OA
ENDBRANCH  15  21
ENDBRANCH   1  15
TORSDOF 4
ENDMDL
MODEL 7
REMARK VINA RESULT:      -7.3      1.933      3.844
REMARK  Name = 
REMARK  5 active torsions:
REMARK  status: ('A' for Active; 'I' for Inactive)
REMARK    1  A    between atoms: C_1  and  N_2
REMARK    2  A    between atoms: C_5  and  C_6
REMARK    3  A    between atoms: C_6  and  C_8
REMARK    4  A    between atoms: C_12  and  C_13
REMARK    5  A    between atoms: C_16  and  C_17
REMARK                            x       y       z     vdW  Elec       q    Type
REMARK                         _______ _______ _______ _____ _____    ______ ____
ROOT
ATOM      1  C   UNL     1       3.331   4.125  18.801  0.00  0.00    +0.000 A 
ATOM      2  C   UNL     1       3.021   3.564  20.033  0.00  0.00    +0.000 A 
ATOM      3  N   UNL     1       2.403   4.233  21.034  0.00  0.00    +0.000 NA
ATOM      4  C   UNL     1       2.075   5.524  20.789  0.00  0.00    +0.000 A 
ATOM      5  C   UNL     1       2.316   6.204  19.592  0.00  0.00    +0.000 A 
ATOM      6  C   UNL     1       2.967   5.458  18.592  0.00  0.00    +0.000 A 
ENDROOT
BRANCH   5   7
ATOM      7  C   UNL     1       1.926   7.619  19.383  0.00  0.00    +0.000 A 
ATOM      8  C   UNL     1       1.327   8.374  20.412  0.00  0.00    +0.000 A 
ATOM      9  C   UNL     1       0.959   9.709  20.221  0.00  0.00    +0.000 A 
ATOM     10  C   UNL     1       1.175  10.319  18.988  0.00  0.00    +0.000 A 
ATOM     11  C   UNL     1       1.768   9.605  17.949  0.00  0.00    +0.000 A 
ATOM     12  C   UNL     1       2.147   8.271  18.151  0.00  0.00    +0.000 A 
BRANCH  10  13
ATOM     13  C   UNL     1       0.776  11.725  18.774  0.00  0.00    +0.000 C 
ATOM     14  O   UNL     1      -0.279  12.174  19.203  0.00  0.00    +0.000 OA
ENDBRANCH  10  13
ENDBRANCH   5   7
BRANCH   1  15
ATOM     15  C   UNL     1       4.046   3.286  17.797  0.00  0.00    +0.000 C 
ATOM     16  O   UNL     1       3.662   2.126  17.648  0.00  0.00    +0.000 OA
BRANCH  15  21
ATOM     17  C   UNL     1       7.333   6.857  17.707  0.00  0.00    +0.000 C 
ATOM     18  N   UNL     1       6.328   5.920  17.263  0.00  0.00    +0.000 N 
ATOM     19  C   UNL     1       5.834   5.917  15.917  0.00  0.00    +0.000 C 
ATOM     20  C   UNL     1       4.823   4.788  15.896  0.00  0.00    +0.000 C 
ATOM     21  C   UNL     1       5.238   3.839  17.037  0.00  0.00    +0.000 C 
ATOM     22  C   UNL     1       6.142   4.701  17.890  0.00  0.00    +0.000 C 
ATOM     23  O   UNL     1       6.675   4.355  18.934  0.00  0.00    +0.000 OA
ENDBRANCH  15  21
ENDBRANCH   1  15
TORSDOF 4
ENDMDL
MODEL 8
REMARK VINA RESULT:      -7.2      2.836      7.512
REMARK  Name = 
REMARK  5 active torsions:
REMARK  status: ('A' for Active; 'I' for Inactive)
REMARK    1  A    between atoms: C_1  and  N_2
REMARK    2  A    between atoms: C_5  and  C_6
REMARK    3  A    between atoms: C_6  and  C_8
REMARK    4  A    between atoms: C_12  and  C_13
REMARK    5  A    between atoms: C_16  and  C_17
REMARK                            x       y       z     vdW  Elec       q    Type
REMARK                         _______ _______ _______ _____ _____    ______ ____
ROOT
ATOM      1  C   UNL     1       1.764   7.253  20.260  0.00  0.00    +0.000 A 
ATOM      2  C   UNL     1       1.265   6.132  20.910  0.00  0.00    +0.000 A 
ATOM      3  N   UNL     1       1.579   4.860  20.570  0.00  0.00    +0.000 NA
ATOM      4  C   UNL     1       2.437   4.702  19.534  0.00  0.00    +0.000 A 
ATOM      5  C   UNL     1       3.022   5.742  18.806  0.00  0.00    +0.000 A 
ATOM      6  C   UNL     1       2.651   7.041  19.200  0.00  0.00    +0.000 A 
ENDROOT
BRANCH   5   7
ATOM      7  C   UNL     1       3.961   5.503  17.684  0.00  0.00    +0.000 A 
ATOM      8  C   UNL     1       4.312   4.196  17.288  0.00  0.00    +0.000 A 
ATOM      9  C   UNL     1       5.196   3.966  16.229  0.00  0.00    +0.000 A 
ATOM     10  C   UNL     1       5.757   5.042  15.546  0.00  0.00    +0.000 A 
ATOM     11  C   UNL     1       5.430   6.346  15.908  0.00  0.00    +0.000 A 
ATOM     12  C   UNL     1       4.533   6.571  16.960  0.00  0.00    +0.000 A 
BRANCH  10  13
ATOM     13  C   UNL     1       6.702   4.806  14.436  0.00  0.00    +0.000 C 
ATOM     14  O   UNL     1       7.737   5.450  14.314  0.00  0.00    +0.000 OA
ENDBRANCH  10  13
ENDBRANCH   5   7
BRANCH   1  15
ATOM     15  C   UNL     1       1.309   8.599  20.712  0.00  0.00    +0.000 C 
ATOM     16  O   UNL     1       1.673   8.978  21.825  0.00  0.00    +0.000 OA
BRANCH  15  21
ATOM     17  C   UNL     1       0.814  12.886  18.487  0.00  0.00    +0.000 C 
ATOM     18  N   UNL     1       0.507  11.723  19.287  0.00  0.00    +0.000 N 
ATOM     19  C   UNL     1      -0.737  11.589  19.986  0.00  0.00    +0.000 C 
ATOM     20  C   UNL     1      -0.634  10.241  20.671  0.00  0.00    +0.000 C 
ATOM     21  C   UNL     1       0.384   9.433  19.843  0.00  0.00    +0.000 C 
ATOM     22  C   UNL     1       1.109  10.499  19.052  0.00  0.00    +0.000 C 
ATOM     23  O   UNL     1       2.035  10.303  18.280  0.00  0.00    +0.000 OA
ENDBRANCH  15  21
ENDBRANCH   1  15
TORSDOF 4
ENDMDL
MODEL 9
REMARK VINA RESULT:      -7.2      2.519      4.483
REMARK  Name = 
REMARK  5 active torsions:
REMARK  status: ('A' for Active; 'I' for Inactive)
REMARK    1  A    between atoms: C_1  and  N_2
REMARK    2  A    between atoms: C_5  and  C_6
REMARK    3  A    between atoms: C_6  and  C_8
REMARK    4  A    between atoms: C_12  and  C_13
REMARK    5  A    between atoms: C_16  and  C_17
REMARK                            x       y       z     vdW  Elec       q    Type
REMARK                         _______ _______ _______ _____ _____    ______ ____
ROOT
ATOM      1  C   UNL     1       4.238   4.989  19.335  0.00  0.00    +0.000 A 
ATOM      2  C   UNL     1       3.509   4.011  20.000  0.00  0.00    +0.000 A 
ATOM      3  N   UNL     1       2.302   4.226  20.572  0.00  0.00    +0.000 NA
ATOM      4  C   UNL     1       1.795   5.478  20.469  0.00  0.00    +0.000 A 
ATOM      5  C   UNL     1       2.415   6.548  19.817  0.00  0.00    +0.000 A 
ATOM      6  C   UNL     1       3.671   6.265  19.249  0.00  0.00    +0.000 A 
ENDROOT
BRANCH   5   7
ATOM      7  C   UNL     1       1.805   7.896  19.733  0.00  0.00    +0.000 A 
ATOM      8  C   UNL     1       1.821   8.634  18.532  0.00  0.00    +0.000 A 
ATOM      9  C   UNL     1       1.245   9.905  18.447  0.00  0.00    +0.000 A 
ATOM     10  C   UNL     1       0.644  10.472  19.569  0.00  0.00    +0.000 A 
ATOM     11  C   UNL     1       0.607   9.770  20.771  0.00  0.00    +0.000 A 
ATOM     12  C   UNL     1       1.174   8.491  20.847  0.00  0.00    +0.000 A 
BRANCH  10  13
ATOM     13  C   UNL     1       0.046  11.820  19.490  0.00  0.00    +0.000 C 
ATOM     14  O   UNL     1      -0.278  12.327  18.423  0.00  0.00    +0.000 OA
ENDBRANCH  10  13
ENDBRANCH   5   7
BRANCH   1  15
ATOM     15  C   UNL     1       5.573   4.628  18.781  0.00  0.00    +0.000 C 
ATOM     16  O   UNL     1       6.566   4.956  19.431  0.00  0.00    +0.000 OA
BRANCH  15  21
ATOM     17  C   UNL     1       7.336   5.052  14.277  0.00  0.00    +0.000 C 
ATOM     18  N   UNL     1       6.420   4.788  15.362  0.00  0.00    +0.000 N 
ATOM     19  C   UNL     1       5.062   4.390  15.130  0.00  0.00    +0.000 C 
ATOM     20  C   UNL     1       4.483   4.215  16.519  0.00  0.00    +0.000 C 
ATOM     21  C   UNL     1       5.689   3.933  17.436  0.00  0.00    +0.000 C 
ATOM     22  C   UNL     1       6.866   4.411  16.616  0.00  0.00    +0.000 C 
ATOM     23  O   UNL     1       8.033   4.406  16.979  0.00  0.00    +0.000 OA
ENDBRANCH  15  21
ENDBRANCH   1  15
TORSDOF 4
ENDMDL
