MODEL 1
REMARK VINA RESULT:      -8.2      0.000      0.000
REMARK  Name = 
REMARK  9 active torsions:
REMARK  status: ('A' for Active; 'I' for Inactive)
REMARK    1  A    between atoms: C_1  and  C_2
REMARK    2  A    between atoms: C_2  and  C_3
REMARK    3  A    between atoms: C_2  and  C_4
REMARK    4  A    between atoms: C_4  and  N_5
REMARK    5  A    between atoms: C_4  and  C_16
REMARK    6  A    between atoms: N_5  and  C_6
REMARK    7  A    between atoms: C_6  and  N_8
REMARK    8  A    between atoms: N_8  and  C_9
REMARK    9  A    between atoms: C_9  and  C_10
REMARK                            x       y       z     vdW  Elec       q    Type
REMARK                         _______ _______ _______ _____ _____    ______ ____
ROOT
ATOM      1  C   UNL     1       6.224   5.448  17.632  0.00  0.00    +0.000 C 
ENDROOT
BRANCH   1   2
ATOM      2  C   UNL     1       6.211   5.116  16.158  0.00  0.00    +0.000 A 
ATOM      3  N   UNL     1       5.317   4.377  15.521  0.00  0.00    +0.000 NA
ATOM      4  C   UNL     1       5.805   4.232  14.243  0.00  0.00    +0.000 A 
ATOM      5  C   UNL     1       5.290   3.501  13.163  0.00  0.00    +0.000 A 
ATOM      6  C   UNL     1       6.016   3.467  11.963  0.00  0.00    +0.000 A 
ATOM      7  C   UNL     1       7.229   4.153  11.843  0.00  0.00    +0.000 A 
ATOM      8  C   UNL     1       7.748   4.902  12.903  0.00  0.00    +0.000 A 
ATOM      9  C   UNL     1       7.000   4.920  14.087  0.00  0.00    +0.000 A 
ATOM     10  N   UNL     1       7.199   5.532  15.297  0.00  0.00    +0.000 N 
ATOM     11  H   UNL     1       7.984   6.120  15.538  0.00  0.00    +0.000 HD
ENDBRANCH   1   2
BRANCH   1  13
ATOM     12  C   UNL     1       7.888   5.721  19.551  0.00  0.00    +0.000 C 
ATOM     13  C   UNL     1       7.584   6.044  18.083  0.00  0.00    +0.000 C 
ATOM     14  C   UNL     1       7.712   7.555  17.847  0.00  0.00    +0.000 C 
ENDBRANCH   1  13
BRANCH   1  15
ATOM     15  N   UNL     1       5.852   4.213  18.324  0.00  0.00    +0.000 N 
ATOM     16  H   UNL     1       6.641   3.599  18.505  0.00  0.00    +0.000 HD
BRANCH  15  17
ATOM     17  C   UNL     1       4.671   3.866  18.936  0.00  0.00    +0.000 C 
ATOM     18  S   UNL     1       3.892   2.401  18.799  0.00  0.00    +0.000 S 
BRANCH  17  19
ATOM     19  N   UNL     1       4.233   4.919  19.707  0.00  0.00    +0.000 N 
ATOM     20  H   UNL     1       4.929   5.257  20.362  0.00  0.00    +0.000 HD
BRANCH  19  21
ATOM     21  C   UNL     1       2.858   5.240  20.060  0.00  0.00    +0.000 C 
BRANCH  21  22
ATOM     22  C   UNL     1       2.483   6.593  19.504  0.00  0.00    +0.000 A 
ATOM     23  C   UNL     1       1.820   7.529  20.312  0.00  0.00    +0.000 A 
ATOM     24  C   UNL     1       1.444   8.774  19.804  0.00  0.00    +0.000 A 
ATOM     25  C   UNL     1       1.740   9.101  18.482  0.00  0.00    +0.000 A 
ATOM     26  C   UNL     1       2.412   8.188  17.673  0.00  0.00    +0.000 A 
ATOM     27  C   UNL     1       2.786   6.940  18.180  0.00  0.00    +0.000 A 
ENDBRANCH  21  22
ENDBRANCH  19  21
ENDBRANCH  17  19
ENDBRANCH  15  17
ENDBRANCH   1  15
TORSDOF 7
ENDMDL
MODEL 2
REMARK VINA RESULT:      -8.1      0.174      1.000
REMARK  Name = 
REMARK  9 active torsions:
REMARK  status: ('A' for Active; 'I' for Inactive)
REMARK    1  A    between atoms: C_1  and  C_2
REMARK    2  A    between atoms: C_2  and  C_3
REMARK    3  A    between atoms: C_2  and  C_4
REMARK    4  A    between atoms: C_4  and  N_5
REMARK    5  A    between atoms: C_4  and  C_16
REMARK    6  A    between atoms: N_5  and  C_6
REMARK    7  A    between atoms: C_6  and  N_8
REMARK    8  A    between atoms: N_8  and  C_9
REMARK    9  A    between atoms: C_9  and  C_10
REMARK                            x       y       z     vdW  Elec       q    Type
REMARK                         _______ _______ _______ _____ _____    ______ ____
ROOT
ATOM      1  C   UNL     1       6.234   5.584  17.528  0.00  0.00    +0.000 C 
ENDROOT
BRANCH   1   2
ATOM      2  C   UNL     1       6.206   5.190  16.070  0.00  0.00    +0.000 A 
ATOM      3  N   UNL     1       5.281   4.464  15.463  0.00  0.00    +0.000 NA
ATOM      4  C   UNL     1       5.761   4.243  14.193  0.00  0.00    +0.000 A 
ATOM      5  C   UNL     1       5.215   3.490  13.144  0.00  0.00    +0.000 A 
ATOM      6  C   UNL     1       5.938   3.374  11.949  0.00  0.00    +0.000 A 
ATOM      7  C   UNL     1       7.180   4.001  11.801  0.00  0.00    +0.000 A 
ATOM      8  C   UNL     1       7.731   4.771  12.829  0.00  0.00    +0.000 A 
ATOM      9  C   UNL     1       6.985   4.872  14.010  0.00  0.00    +0.000 A 
ATOM     10  N   UNL     1       7.212   5.525  15.192  0.00  0.00    +0.000 N 
ATOM     11  H   UNL     1       8.021   6.088  15.410  0.00  0.00    +0.000 HD
ENDBRANCH   1   2
BRANCH   1  13
ATOM     12  C   UNL     1       7.977   5.824  19.382  0.00  0.00    +0.000 C 
ATOM     13  C   UNL     1       7.601   6.193  17.941  0.00  0.00    +0.000 C 
ATOM     14  C   UNL     1       7.688   7.714  17.755  0.00  0.00    +0.000 C 
ENDBRANCH   1  13
BRANCH   1  15
ATOM     15  N   UNL     1       5.865   4.380  18.275  0.00  0.00    +0.000 N 
ATOM     16  H   UNL     1       6.655   3.779  18.486  0.00  0.00    +0.000 HD
BRANCH  15  17
ATOM     17  C   UNL     1       4.684   4.057  18.900  0.00  0.00    +0.000 C 
ATOM     18  S   UNL     1       3.923   2.577  18.849  0.00  0.00    +0.000 S 
BRANCH  17  19
ATOM     19  N   UNL     1       4.227   5.151  19.600  0.00  0.00    +0.000 N 
ATOM     20  H   UNL     1       4.940   5.593  20.168  0.00  0.00    +0.000 HD
BRANCH  19  21
ATOM     21  C   UNL     1       2.859   5.419  20.021  0.00  0.00    +0.000 C 
BRANCH  21  22
ATOM     22  C   UNL     1       2.414   6.766  19.506  0.00  0.00    +0.000 A 
ATOM     23  C   UNL     1       2.683   7.139  18.181  0.00  0.00    +0.000 A 
ATOM     24  C   UNL     1       2.301   8.392  17.697  0.00  0.00    +0.000 A 
ATOM     25  C   UNL     1       1.631   9.282  18.535  0.00  0.00    +0.000 A 
ATOM     26  C   UNL     1       1.343   8.920  19.848  0.00  0.00    +0.000 A 
ATOM     27  C   UNL     1       1.728   7.667  20.333  0.00  0.00    +0.000 A 
ENDBRANCH  21  22
ENDBRANCH  19  21
ENDBRANCH  17  19
ENDBRANCH  15  17
ENDBRANCH   1  15
TORSDOF 7
ENDMDL
MODEL 3
REMARK VINA RESULT:      -8.1      0.375      1.244
REMARK  Name = 
REMARK  9 active torsions:
REMARK  status: ('A' for Active; 'I' for Inactive)
REMARK    1  A    between atoms: C_1  and  C_2
REMARK    2  A    between atoms: C_2  and  C_3
REMARK    3  A    between atoms: C_2  and  C_4
REMARK    4  A    between atoms: C_4  and  N_5
REMARK    5  A    between atoms: C_4  and  C_16
REMARK    6  A    between atoms: N_5  and  C_6
REMARK    7  A    between atoms: C_6  and  N_8
REMARK    8  A    between atoms: N_8  and  C_9
REMARK    9  A    between atoms: C_9  and  C_10
REMARK                            x       y       z     vdW  Elec       q    Type
REMARK                         _______ _______ _______ _____ _____    ______ ____
ROOT
ATOM      1  C   UNL     1       6.346   5.649  17.455  0.00  0.00    +0.000 C 
ENDROOT
BRANCH   1   2
ATOM      2  C   UNL     1       6.501   5.104  16.054  0.00  0.00    +0.000 A 
ATOM      3  N   UNL     1       7.456   5.403  15.190  0.00  0.00    +0.000 NA
ATOM      4  C   UNL     1       7.093   4.789  14.013  0.00  0.00    +0.000 A 
ATOM      5  C   UNL     1       7.713   4.817  12.756  0.00  0.00    +0.000 A 
ATOM      6  C   UNL     1       7.103   4.144  11.688  0.00  0.00    +0.000 A 
ATOM      7  C   UNL     1       5.902   3.452  11.871  0.00  0.00    +0.000 A 
ATOM      8  C   UNL     1       5.279   3.398  13.122  0.00  0.00    +0.000 A 
ATOM      9  C   UNL     1       5.912   4.077  14.171  0.00  0.00    +0.000 A 
ATOM     10  N   UNL     1       5.594   4.234  15.494  0.00  0.00    +0.000 N 
ATOM     11  H   UNL     1       4.786   3.845  15.957  0.00  0.00    +0.000 HD
ENDBRANCH   1   2
BRANCH   1  13
ATOM     12  C   UNL     1       7.945   6.043  19.409  0.00  0.00    +0.000 C 
ATOM     13  C   UNL     1       7.629   6.372  17.944  0.00  0.00    +0.000 C 
ATOM     14  C   UNL     1       7.601   7.894  17.748  0.00  0.00    +0.000 C 
ENDBRANCH   1  13
BRANCH   1  15
ATOM     15  N   UNL     1       5.946   4.511  18.286  0.00  0.00    +0.000 N 
ATOM     16  H   UNL     1       6.723   3.912  18.549  0.00  0.00    +0.000 HD
BRANCH  15  17
ATOM     17  C   UNL     1       4.753   4.257  18.919  0.00  0.00    +0.000 C 
ATOM     18  S   UNL     1       4.034   2.765  19.088  0.00  0.00    +0.000 S 
BRANCH  17  19
ATOM     19  N   UNL     1       4.245   5.435  19.417  0.00  0.00    +0.000 N 
ATOM     20  H   UNL     1       4.953   6.050  19.801  0.00  0.00    +0.000 HD
BRANCH  19  21
ATOM     21  C   UNL     1       2.897   5.672  19.916  0.00  0.00    +0.000 C 
BRANCH  21  22
ATOM     22  C   UNL     1       2.402   7.019  19.448  0.00  0.00    +0.000 A 
ATOM     23  C   UNL     1       1.676   7.845  20.318  0.00  0.00    +0.000 A 
ATOM     24  C   UNL     1       1.188   9.082  19.892  0.00  0.00    +0.000 A 
ATOM     25  C   UNL     1       1.436   9.512  18.589  0.00  0.00    +0.000 A 
ATOM     26  C   UNL     1       2.168   8.710  17.719  0.00  0.00    +0.000 A 
ATOM     27  C   UNL     1       2.653   7.469  18.144  0.00  0.00    +0.000 A 
ENDBRANCH  21  22
ENDBRANCH  19  21
ENDBRANCH  17  19
ENDBRANCH  15  17
ENDBRANCH   1  15
TORSDOF 7
ENDMDL
MODEL 4
REMARK VINA RESULT:      -8.0      0.478      1.609
REMARK  Name = 
REMARK  9 active torsions:
REMARK  status: ('A' for Active; 'I' for Inactive)
REMARK    1  A    between atoms: C_1  and  C_2
REMARK    2  A    between atoms: C_2  and  C_3
REMARK    3  A    between atoms: C_2  and  C_4
REMARK    4  A    between atoms: C_4  and  N_5
REMARK    5  A    between atoms: C_4  and  C_16
REMARK    6  A    between atoms: N_5  and  C_6
REMARK    7  A    between atoms: C_6  and  N_8
REMARK    8  A    between atoms: N_8  and  C_9
REMARK    9  A    between atoms: C_9  and  C_10
REMARK                            x       y       z     vdW  Elec       q    Type
REMARK                         _______ _______ _______ _____ _____    ______ ____
ROOT
ATOM      1  C   UNL     1       6.477   5.684  17.540  0.00  0.00    +0.000 C 
ENDROOT
BRANCH   1   2
ATOM      2  C   UNL     1       6.640   5.163  16.131  0.00  0.00    +0.000 A 
ATOM      3  N   UNL     1       7.554   5.535  15.250  0.00  0.00    +0.000 NA
ATOM      4  C   UNL     1       7.210   4.907  14.075  0.00  0.00    +0.000 A 
ATOM      5  C   UNL     1       7.800   4.989  12.806  0.00  0.00    +0.000 A 
ATOM      6  C   UNL     1       7.217   4.283  11.744  0.00  0.00    +0.000 A 
ATOM      7  C   UNL     1       6.071   3.506  11.945  0.00  0.00    +0.000 A 
ATOM      8  C   UNL     1       5.481   3.398  13.208  0.00  0.00    +0.000 A 
ATOM      9  C   UNL     1       6.086   4.112  14.250  0.00  0.00    +0.000 A 
ATOM     10  N   UNL     1       5.786   4.236  15.580  0.00  0.00    +0.000 N 
ATOM     11  H   UNL     1       5.017   3.786  16.056  0.00  0.00    +0.000 HD
ENDBRANCH   1   2
BRANCH   1  13
ATOM     12  C   UNL     1       8.050   5.910  19.540  0.00  0.00    +0.000 C 
ATOM     13  C   UNL     1       7.787   6.314  18.083  0.00  0.00    +0.000 C 
ATOM     14  C   UNL     1       7.848   7.841  17.949  0.00  0.00    +0.000 C 
ENDBRANCH   1  13
BRANCH   1  15
ATOM     15  N   UNL     1       5.981   4.555  18.330  0.00  0.00    +0.000 N 
ATOM     16  H   UNL     1       6.715   3.918  18.626  0.00  0.00    +0.000 HD
BRANCH  15  17
ATOM     17  C   UNL     1       4.745   4.347  18.893  0.00  0.00    +0.000 C 
ATOM     18  S   UNL     1       4.043   2.868  19.194  0.00  0.00    +0.000 S 
BRANCH  17  19
ATOM     19  N   UNL     1       4.174   5.563  19.194  0.00  0.00    +0.000 N 
ATOM     20  H   UNL     1       4.844   6.321  19.251  0.00  0.00    +0.000 HD
BRANCH  19  21
ATOM     21  C   UNL     1       2.927   5.798  19.908  0.00  0.00    +0.000 C 
BRANCH  21  22
ATOM     22  C   UNL     1       2.339   7.128  19.499  0.00  0.00    +0.000 A 
ATOM     23  C   UNL     1       2.549   7.623  18.204  0.00  0.00    +0.000 A 
ATOM     24  C   UNL     1       2.035   8.863  17.819  0.00  0.00    +0.000 A 
ATOM     25  C   UNL     1       1.291   9.615  18.727  0.00  0.00    +0.000 A 
ATOM     26  C   UNL     1       1.061   9.129  20.011  0.00  0.00    +0.000 A 
ATOM     27  C   UNL     1       1.579   7.890  20.398  0.00  0.00    +0.000 A 
ENDBRANCH  21  22
ENDBRANCH  19  21
ENDBRANCH  17  19
ENDBRANCH  15  17
ENDBRANCH   1  15
TORSDOF 7
ENDMDL
MODEL 5
REMARK VINA RESULT:      -8.0      0.930      1.245
REMARK  Name = 
REMARK  9 active torsions:
REMARK  status: ('A' for Active; 'I' for Inactive)
REMARK    1  A    between atoms: C_1  and  C_2
REMARK    2  A    between atoms: C_2  and  C_3
REMARK    3  A    between atoms: C_2  and  C_4
REMARK    4  A    between atoms: C_4  and  N_5
REMARK    5  A    between atoms: C_4  and  C_16
REMARK    6  A    between atoms: N_5  and  C_6
REMARK    7  A    between atoms: C_6  and  N_8
REMARK    8  A    between atoms: N_8  and  C_9
REMARK    9  A    between atoms: C_9  and  C_10
REMARK                            x       y       z     vdW  Elec       q    Type
REMARK                         _______ _______ _______ _____ _____    ______ ____
ROOT
ATOM      1  C   UNL     1       6.192   5.176  17.650  0.00  0.00    +0.000 C 
ENDROOT
BRANCH   1   2
ATOM      2  C   UNL     1       6.228   4.928  16.160  0.00  0.00    +0.000 A 
ATOM      3  N   UNL     1       5.412   4.150  15.467  0.00  0.00    +0.000 NA
ATOM      4  C   UNL     1       5.926   4.120  14.192  0.00  0.00    +0.000 A 
ATOM      5  C   UNL     1       5.493   3.410  13.064  0.00  0.00    +0.000 A 
ATOM      6  C   UNL     1       6.234   3.508  11.878  0.00  0.00    +0.000 A 
ATOM      7  C   UNL     1       7.383   4.304  11.817  0.00  0.00    +0.000 A 
ATOM      8  C   UNL     1       7.819   5.035  12.926  0.00  0.00    +0.000 A 
ATOM      9  C   UNL     1       7.058   4.919  14.096  0.00  0.00    +0.000 A 
ATOM     10  N   UNL     1       7.186   5.477  15.340  0.00  0.00    +0.000 N 
ATOM     11  H   UNL     1       7.912   6.117  15.627  0.00  0.00    +0.000 HD
ENDBRANCH   1   2
BRANCH   1  13
ATOM     12  C   UNL     1       7.723   5.609  19.649  0.00  0.00    +0.000 C 
ATOM     13  C   UNL     1       7.486   5.868  18.156  0.00  0.00    +0.000 C 
ATOM     14  C   UNL     1       7.536   7.376  17.877  0.00  0.00    +0.000 C 
ENDBRANCH   1  13
BRANCH   1  15
ATOM     15  N   UNL     1       5.929   3.874  18.267  0.00  0.00    +0.000 N 
ATOM     16  H   UNL     1       6.772   3.392  18.565  0.00  0.00    +0.000 HD
BRANCH  15  17
ATOM     17  C   UNL     1       4.743   3.318  18.683  0.00  0.00    +0.000 C 
ATOM     18  S   UNL     1       4.481   2.546  20.134  0.00  0.00    +0.000 S 
BRANCH  17  19
ATOM     19  N   UNL     1       3.785   3.517  17.714  0.00  0.00    +0.000 N 
ATOM     20  H   UNL     1       4.167   3.814  16.823  0.00  0.00    +0.000 HD
BRANCH  19  21
ATOM     21  C   UNL     1       2.383   3.851  17.918  0.00  0.00    +0.000 C 
BRANCH  21  22
ATOM     22  C   UNL     1       2.266   5.168  18.648  0.00  0.00    +0.000 A 
ATOM     23  C   UNL     1       1.808   5.202  19.972  0.00  0.00    +0.000 A 
ATOM     24  C   UNL     1       1.669   6.414  20.652  0.00  0.00    +0.000 A 
ATOM     25  C   UNL     1       2.003   7.608  20.013  0.00  0.00    +0.000 A 
ATOM     26  C   UNL     1       2.474   7.588  18.704  0.00  0.00    +0.000 A 
ATOM     27  C   UNL     1       2.610   6.375  18.022  0.00  0.00    +0.000 A 
ENDBRANCH  21  22
ENDBRANCH  19  21
ENDBRANCH  17  19
ENDBRANCH  15  17
ENDBRANCH   1  15
TORSDOF 7
ENDMDL
MODEL 6
REMARK VINA RESULT:      -7.8      2.103      3.334
REMARK  Name = 
REMARK  9 active torsions:
REMARK  status: ('A' for Active; 'I' for Inactive)
REMARK    1  A    between atoms: C_1  and  C_2
REMARK    2  A    between atoms: C_2  and  C_3
REMARK    3  A    between atoms: C_2  and  C_4
REMARK    4  A    between atoms: C_4  and  N_5
REMARK    5  A    between atoms: C_4  and  C_16
REMARK    6  A    between atoms: N_5  and  C_6
REMARK    7  A    between atoms: C_6  and  N_8
REMARK    8  A    between atoms: N_8  and  C_9
REMARK    9  A    between atoms: C_9  and  C_10
REMARK                            x       y       z     vdW  Elec       q    Type
REMARK                         _______ _______ _______ _____ _____    ______ ____
ROOT
ATOM      1  C   UNL     1       6.216   6.032  17.309  0.00  0.00    +0.000 C 
ENDROOT
BRANCH   1   2
ATOM      2  C   UNL     1       6.464   5.388  15.964  0.00  0.00    +0.000 A 
ATOM      3  N   UNL     1       7.441   5.672  15.118  0.00  0.00    +0.000 NA
ATOM      4  C   UNL     1       7.166   4.948  13.982  0.00  0.00    +0.000 A 
ATOM      5  C   UNL     1       7.840   4.913  12.753  0.00  0.00    +0.000 A 
ATOM      6  C   UNL     1       7.317   4.124  11.719  0.00  0.00    +0.000 A 
ATOM      7  C   UNL     1       6.148   3.381  11.908  0.00  0.00    +0.000 A 
ATOM      8  C   UNL     1       5.472   3.390  13.132  0.00  0.00    +0.000 A 
ATOM      9  C   UNL     1       6.019   4.184  14.147  0.00  0.00    +0.000 A 
ATOM     10  N   UNL     1       5.633   4.426  15.439  0.00  0.00    +0.000 N 
ATOM     11  H   UNL     1       4.826   4.029  15.898  0.00  0.00    +0.000 HD
ENDBRANCH   1   2
BRANCH   1  13
ATOM     12  C   UNL     1       7.365   5.625  19.555  0.00  0.00    +0.000 C 
ATOM     13  C   UNL     1       7.523   6.180  18.133  0.00  0.00    +0.000 C 
ATOM     14  C   UNL     1       8.063   7.615  18.193  0.00  0.00    +0.000 C 
ENDBRANCH   1  13
BRANCH   1  15
ATOM     15  N   UNL     1       5.187   5.218  17.959  0.00  0.00    +0.000 N 
ATOM     16  H   UNL     1       5.566   4.514  18.585  0.00  0.00    +0.000 HD
BRANCH  15  17
ATOM     17  C   UNL     1       3.825   5.396  18.012  0.00  0.00    +0.000 C 
ATOM     18  S   UNL     1       3.030   6.619  18.815  0.00  0.00    +0.000 S 
BRANCH  17  19
ATOM     19  N   UNL     1       3.209   4.409  17.276  0.00  0.00    +0.000 N 
ATOM     20  H   UNL     1       2.510   4.762  16.633  0.00  0.00    +0.000 HD
BRANCH  19  21
ATOM     21  C   UNL     1       3.050   3.009  17.641  0.00  0.00    +0.000 C 
BRANCH  21  22
ATOM     22  C   UNL     1       2.547   2.898  19.061  0.00  0.00    +0.000 A 
ATOM     23  C   UNL     1       1.195   3.134  19.351  0.00  0.00    +0.000 A 
ATOM     24  C   UNL     1       0.721   3.062  20.662  0.00  0.00    +0.000 A 
ATOM     25  C   UNL     1       1.596   2.738  21.698  0.00  0.00    +0.000 A 
ATOM     26  C   UNL     1       2.937   2.485  21.423  0.00  0.00    +0.000 A 
ATOM     27  C   UNL     1       3.413   2.561  20.111  0.00  0.00    +0.000 A 
ENDBRANCH  21  22
ENDBRANCH  19  21
ENDBRANCH  17  19
ENDBRANCH  15  17
ENDBRANCH   1  15
TORSDOF 7
ENDMDL
MODEL 7
REMARK VINA RESULT:      -7.8      2.094      3.154
REMARK  Name = 
REMARK  9 active torsions:
REMARK  status: ('A' for Active; 'I' for Inactive)
REMARK    1  A    between atoms: C_1  and  C_2
REMARK    2  A    between atoms: C_2  and  C_3
REMARK    3  A    between atoms: C_2  and  C_4
REMARK    4  A    between atoms: C_4  and  N_5
REMARK    5  A    between atoms: C_4  and  C_16
REMARK    6  A    between atoms: N_5  and  C_6
REMARK    7  A    between atoms: C_6  and  N_8
REMARK    8  A    between atoms: N_8  and  C_9
REMARK    9  A    between atoms: C_9  and  C_10
REMARK                            x       y       z     vdW  Elec       q    Type
REMARK                         _______ _______ _______ _____ _____    ______ ____
ROOT
ATOM      1  C   UNL     1       6.054   6.248  17.116  0.00  0.00    +0.000 C 
ENDROOT
BRANCH   1   2
ATOM      2  C   UNL     1       6.074   5.603  15.749  0.00  0.00    +0.000 A 
ATOM      3  N   UNL     1       5.126   4.851  15.213  0.00  0.00    +0.000 NA
ATOM      4  C   UNL     1       5.657   4.373  14.038  0.00  0.00    +0.000 A 
ATOM      5  C   UNL     1       5.109   3.487  13.099  0.00  0.00    +0.000 A 
ATOM      6  C   UNL     1       5.885   3.107  11.996  0.00  0.00    +0.000 A 
ATOM      7  C   UNL     1       7.182   3.604  11.829  0.00  0.00    +0.000 A 
ATOM      8  C   UNL     1       7.738   4.503  12.745  0.00  0.00    +0.000 A 
ATOM      9  C   UNL     1       6.938   4.867  13.835  0.00  0.00    +0.000 A 
ATOM     10  N   UNL     1       7.152   5.702  14.900  0.00  0.00    +0.000 N 
ATOM     11  H   UNL     1       7.993   6.234  15.072  0.00  0.00    +0.000 HD
ENDBRANCH   1   2
BRANCH   1  13
ATOM     12  C   UNL     1       7.630   5.714  19.054  0.00  0.00    +0.000 C 
ATOM     13  C   UNL     1       7.481   6.420  17.700  0.00  0.00    +0.000 C 
ATOM     14  C   UNL     1       7.933   7.880  17.823  0.00  0.00    +0.000 C 
ENDBRANCH   1  13
BRANCH   1  15
ATOM     15  N   UNL     1       5.166   5.420  17.935  0.00  0.00    +0.000 N 
ATOM     16  H   UNL     1       5.662   4.839  18.604  0.00  0.00    +0.000 HD
BRANCH  15  17
ATOM     17  C   UNL     1       3.800   5.466  18.078  0.00  0.00    +0.000 C 
ATOM     18  S   UNL     1       2.947   6.589  18.964  0.00  0.00    +0.000 S 
BRANCH  17  19
ATOM     19  N   UNL     1       3.233   4.442  17.354  0.00  0.00    +0.000 N 
ATOM     20  H   UNL     1       2.527   4.754  16.698  0.00  0.00    +0.000 HD
BRANCH  19  21
ATOM     21  C   UNL     1       3.128   3.042  17.742  0.00  0.00    +0.000 C 
BRANCH  21  22
ATOM     22  C   UNL     1       2.557   2.934  19.136  0.00  0.00    +0.000 A 
ATOM     23  C   UNL     1       3.390   2.603  20.215  0.00  0.00    +0.000 A 
ATOM     24  C   UNL     1       2.873   2.473  21.506  0.00  0.00    +0.000 A 
ATOM     25  C   UNL     1       1.513   2.687  21.731  0.00  0.00    +0.000 A 
ATOM     26  C   UNL     1       0.678   3.030  20.672  0.00  0.00    +0.000 A 
ATOM     27  C   UNL     1       1.195   3.158  19.379  0.00  0.00    +0.000 A 
ENDBRANCH  21  22
ENDBRANCH  19  21
ENDBRANCH  17  19
ENDBRANCH  15  17
ENDBRANCH   1  15
TORSDOF 7
ENDMDL
MODEL 8
REMARK VINA RESULT:      -7.8      2.050      3.140
REMARK  Name = 
REMARK  9 active torsions:
REMARK  status: ('A' for Active; 'I' for Inactive)
REMARK    1  A    between atoms: C_1  and  C_2
REMARK    2  A    between atoms: C_2  and  C_3
REMARK    3  A    between atoms: C_2  and  C_4
REMARK    4  A    between atoms: C_4  and  N_5
REMARK    5  A    between atoms: C_4  and  C_16
REMARK    6  A    between atoms: N_5  and  C_6
REMARK    7  A    between atoms: C_6  and  N_8
REMARK    8  A    between atoms: N_8  and  C_9
REMARK    9  A    between atoms: C_9  and  C_10
REMARK                            x       y       z     vdW  Elec       q    Type
REMARK                         _______ _______ _______ _____ _____    ______ ____
ROOT
ATOM      1  C   UNL     1       6.071   6.327  17.260  0.00  0.00    +0.000 C 
ENDROOT
BRANCH   1   2
ATOM      2  C   UNL     1       6.108   5.698  15.887  0.00  0.00    +0.000 A 
ATOM      3  N   UNL     1       5.206   4.883  15.365  0.00  0.00    +0.000 NA
ATOM      4  C   UNL     1       5.744   4.454  14.174  0.00  0.00    +0.000 A 
ATOM      5  C   UNL     1       5.241   3.539  13.238  0.00  0.00    +0.000 A 
ATOM      6  C   UNL     1       6.018   3.225  12.115  0.00  0.00    +0.000 A 
ATOM      7  C   UNL     1       7.272   3.817  11.925  0.00  0.00    +0.000 A 
ATOM      8  C   UNL     1       7.781   4.746  12.838  0.00  0.00    +0.000 A 
ATOM      9  C   UNL     1       6.981   5.042  13.948  0.00  0.00    +0.000 A 
ATOM     10  N   UNL     1       7.157   5.881  15.016  0.00  0.00    +0.000 N 
ATOM     11  H   UNL     1       7.960   6.472  15.176  0.00  0.00    +0.000 HD
ENDBRANCH   1   2
BRANCH   1  13
ATOM     12  C   UNL     1       7.456   5.676  19.306  0.00  0.00    +0.000 C 
ATOM     13  C   UNL     1       7.472   6.351  17.928  0.00  0.00    +0.000 C 
ATOM     14  C   UNL     1       8.085   7.753  18.044  0.00  0.00    +0.000 C 
ENDBRANCH   1  13
BRANCH   1  15
ATOM     15  N   UNL     1       5.060   5.584  18.015  0.00  0.00    +0.000 N 
ATOM     16  H   UNL     1       5.449   5.023  18.766  0.00  0.00    +0.000 HD
BRANCH  15  17
ATOM     17  C   UNL     1       3.690   5.693  17.997  0.00  0.00    +0.000 C 
ATOM     18  S   UNL     1       2.803   6.972  18.588  0.00  0.00    +0.000 S 
BRANCH  17  19
ATOM     19  N   UNL     1       3.154   4.578  17.392  0.00  0.00    +0.000 N 
ATOM     20  H   UNL     1       2.328   4.777  16.840  0.00  0.00    +0.000 HD
BRANCH  19  21
ATOM     21  C   UNL     1       3.278   3.194  17.827  0.00  0.00    +0.000 C 
BRANCH  21  22
ATOM     22  C   UNL     1       2.627   3.017  19.178  0.00  0.00    +0.000 A 
ATOM     23  C   UNL     1       1.251   3.240  19.332  0.00  0.00    +0.000 A 
ATOM     24  C   UNL     1       0.639   3.106  20.580  0.00  0.00    +0.000 A 
ATOM     25  C   UNL     1       1.400   2.732  21.687  0.00  0.00    +0.000 A 
ATOM     26  C   UNL     1       2.763   2.492  21.546  0.00  0.00    +0.000 A 
ATOM     27  C   UNL     1       3.377   2.629  20.297  0.00  0.00    +0.000 A 
ENDBRANCH  21  22
ENDBRANCH  19  21
ENDBRANCH  17  19
ENDBRANCH  15  17
ENDBRANCH   1  15
TORSDOF 7
ENDMDL
MODEL 9
REMARK VINA RESULT:      -7.7      1.420      2.307
REMARK  Name = 
REMARK  9 active torsions:
REMARK  status: ('A' for Active; 'I' for Inactive)
REMARK    1  A    between atoms: C_1  and  C_2
REMARK    2  A    between atoms: C_2  and  C_3
REMARK    3  A    between atoms: C_2  and  C_4
REMARK    4  A    between atoms: C_4  and  N_5
REMARK    5  A    between atoms: C_4  and  C_16
REMARK    6  A    between atoms: N_5  and  C_6
REMARK    7  A    between atoms: C_6  and  N_8
REMARK    8  A    between atoms: N_8  and  C_9
REMARK    9  A    between atoms: C_9  and  C_10
REMARK                            x       y       z     vdW  Elec       q    Type
REMARK                         _______ _______ _______ _____ _____    ______ ____
ROOT
ATOM      1  C   UNL     1       6.379   5.678  17.557  0.00  0.00    +0.000 C 
ENDROOT
BRANCH   1   2
ATOM      2  C   UNL     1       6.291   5.251  16.110  0.00  0.00    +0.000 A 
ATOM      3  N   UNL     1       5.347   4.504  15.561  0.00  0.00    +0.000 NA
ATOM      4  C   UNL     1       5.774   4.259  14.276  0.00  0.00    +0.000 A 
ATOM      5  C   UNL     1       5.190   3.478  13.269  0.00  0.00    +0.000 A 
ATOM      6  C   UNL     1       5.862   3.342  12.045  0.00  0.00    +0.000 A 
ATOM      7  C   UNL     1       7.089   3.976  11.830  0.00  0.00    +0.000 A 
ATOM      8  C   UNL     1       7.677   4.774  12.816  0.00  0.00    +0.000 A 
ATOM      9  C   UNL     1       6.983   4.894  14.026  0.00  0.00    +0.000 A 
ATOM     10  N   UNL     1       7.254   5.575  15.183  0.00  0.00    +0.000 N 
ATOM     11  H   UNL     1       8.066   6.151  15.352  0.00  0.00    +0.000 HD
ENDBRANCH   1   2
BRANCH   1  13
ATOM     12  C   UNL     1       8.224   6.065  19.281  0.00  0.00    +0.000 C 
ATOM     13  C   UNL     1       7.717   6.398  17.872  0.00  0.00    +0.000 C 
ATOM     14  C   UNL     1       7.665   7.920  17.685  0.00  0.00    +0.000 C 
ENDBRANCH   1  13
BRANCH   1  15
ATOM     15  N   UNL     1       6.150   4.465  18.346  0.00  0.00    +0.000 N 
ATOM     16  H   UNL     1       6.932   3.818  18.325  0.00  0.00    +0.000 HD
BRANCH  15  17
ATOM     17  C   UNL     1       5.159   4.177  19.254  0.00  0.00    +0.000 C 
ATOM     18  S   UNL     1       4.706   2.656  19.758  0.00  0.00    +0.000 S 
BRANCH  17  19
ATOM     19  N   UNL     1       4.602   5.353  19.705  0.00  0.00    +0.000 N 
ATOM     20  H   UNL     1       4.957   5.647  20.608  0.00  0.00    +0.000 HD
BRANCH  19  21
ATOM     21  C   UNL     1       3.301   5.903  19.353  0.00  0.00    +0.000 C 
BRANCH  21  22
ATOM     22  C   UNL     1       2.269   4.801  19.311  0.00  0.00    +0.000 A 
ATOM     23  C   UNL     1       1.680   4.340  20.497  0.00  0.00    +0.000 A 
ATOM     24  C   UNL     1       0.744   3.304  20.478  0.00  0.00    +0.000 A 
ATOM     25  C   UNL     1       0.376   2.727  19.262  0.00  0.00    +0.000 A 
ATOM     26  C   UNL     1       0.940   3.185  18.075  0.00  0.00    +0.000 A 
ATOM     27  C   UNL     1       1.880   4.220  18.095  0.00  0.00    +0.000 A 
ENDBRANCH  21  22
ENDBRANCH  19  21
ENDBRANCH  17  19
ENDBRANCH  15  17
ENDBRANCH   1  15
TORSDOF 7
ENDMDL
