MODEL 1
REMARK VINA RESULT:      -7.0      0.000      0.000
REMARK  Name = 
REMARK  6 active torsions:
REMARK  status: ('A' for Active; 'I' for Inactive)
REMARK    1  A    between atoms: C_2  and  C_3
REMARK    2  A    between atoms: C_2  and  O_12
REMARK    3  A    between atoms: C_3  and  N_4
REMARK    4  A    between atoms: C_5  and  C_7
REMARK    5  A    between atoms: O_12  and  C_13
REMARK    6  A    between atoms: C_13  and  C_14
REMARK                            x       y       z     vdW  Elec       q    Type
REMARK                         _______ _______ _______ _____ _____    ______ ____
ROOT
ATOM      1  O   UNL     1       4.357   4.444  19.773  0.00  0.00    +0.000 OA
ATOM      2  C   UNL     1       4.961   5.037  18.886  0.00  0.00    +0.000 C 
ENDROOT
BRANCH   2   3
ATOM      3  C   UNL     1       6.348   4.638  18.403  0.00  0.00    +0.000 C 
BRANCH   3   4
ATOM      4  N   UNL     1       6.368   4.402  16.974  0.00  0.00    +0.000 N 
ATOM      5  C   UNL     1       7.000   5.266  16.106  0.00  0.00    +0.000 C 
ATOM      6  O   UNL     1       7.542   6.299  16.491  0.00  0.00    +0.000 OA
ATOM      7  H   UNL     1       6.058   3.510  16.603  0.00  0.00    +0.000 HD
BRANCH   5   8
ATOM      8  C   UNL     1       6.959   4.853  14.718  0.00  0.00    +0.000 A 
ATOM      9  C   UNL     1       6.194   3.895  14.081  0.00  0.00    +0.000 A 
ATOM     10  C   UNL     1       6.585   3.900  12.720  0.00  0.00    +0.000 A 
ATOM     11  C   UNL     1       7.563   4.860  12.608  0.00  0.00    +0.000 A 
ATOM     12  O   UNL     1       7.797   5.448  13.810  0.00  0.00    +0.000 OA
ENDBRANCH   5   8
ENDBRANCH   3   4
ENDBRANCH   2   3
BRANCH   2  13
ATOM     13  O   UNL     1       4.541   6.172  18.268  0.00  0.00    +0.000 OA
BRANCH  13  14
ATOM     14  C   UNL     1       3.171   6.214  17.836  0.00  0.00    +0.000 C 
BRANCH  14  15
ATOM     15  C   UNL     1       2.415   7.328  18.531  0.00  0.00    +0.000 A 
ATOM     16  C   UNL     1       2.078   7.238  19.892  0.00  0.00    +0.000 A 
ATOM     17  C   UNL     1       1.418   8.287  20.535  0.00  0.00    +0.000 A 
ATOM     18  C   UNL     1       1.098   9.442  19.827  0.00  0.00    +0.000 A 
ATOM     19 BR   UNL     1       0.216  10.864  20.707  0.00  0.00    +0.000 Br
ATOM     20  C   UNL     1       1.434   9.559  18.480  0.00  0.00    +0.000 A 
ATOM     21  C   UNL     1       2.095   8.505  17.837  0.00  0.00    +0.000 A 
ENDBRANCH  14  15
ENDBRANCH  13  14
ENDBRANCH   2  13
TORSDOF 6
ENDMDL
MODEL 2
REMARK VINA RESULT:      -7.0      1.134      1.187
REMARK  Name = 
REMARK  6 active torsions:
REMARK  status: ('A' for Active; 'I' for Inactive)
REMARK    1  A    between atoms: C_2  and  C_3
REMARK    2  A    between atoms: C_2  and  O_12
REMARK    3  A    between atoms: C_3  and  N_4
REMARK    4  A    between atoms: C_5  and  C_7
REMARK    5  A    between atoms: O_12  and  C_13
REMARK    6  A    between atoms: C_13  and  C_14
REMARK                            x       y       z     vdW  Elec       q    Type
REMARK                         _______ _______ _______ _____ _____    ______ ____
ROOT
ATOM      1  O   UNL     1       6.279   5.022  19.404  0.00  0.00    +0.000 OA
ATOM      2  C   UNL     1       5.708   5.570  18.467  0.00  0.00    +0.000 C 
ENDROOT
BRANCH   2   3
ATOM      3  C   UNL     1       6.393   6.547  17.522  0.00  0.00    +0.000 C 
BRANCH   3   4
ATOM      4  N   UNL     1       6.364   6.075  16.153  0.00  0.00    +0.000 N 
ATOM      5  C   UNL     1       7.164   5.037  15.727  0.00  0.00    +0.000 C 
ATOM      6  O   UNL     1       7.972   4.486  16.471  0.00  0.00    +0.000 OA
ATOM      7  H   UNL     1       5.635   6.392  15.523  0.00  0.00    +0.000 HD
BRANCH   5   8
ATOM      8  C   UNL     1       6.973   4.668  14.339  0.00  0.00    +0.000 A 
ATOM      9  C   UNL     1       6.150   3.723  13.759  0.00  0.00    +0.000 A 
ATOM     10  C   UNL     1       6.390   3.773  12.365  0.00  0.00    +0.000 A 
ATOM     11  C   UNL     1       7.343   4.747  12.178  0.00  0.00    +0.000 A 
ATOM     12  O   UNL     1       7.703   5.299  13.364  0.00  0.00    +0.000 OA
ENDBRANCH   5   8
ENDBRANCH   3   4
ENDBRANCH   2   3
BRANCH   2  13
ATOM     13  O   UNL     1       4.384   5.467  18.181  0.00  0.00    +0.000 OA
BRANCH  13  14
ATOM     14  C   UNL     1       3.465   5.589  19.279  0.00  0.00    +0.000 C 
BRANCH  14  15
ATOM     15  C   UNL     1       2.670   6.875  19.184  0.00  0.00    +0.000 A 
ATOM     16  C   UNL     1       1.995   7.395  20.301  0.00  0.00    +0.000 A 
ATOM     17  C   UNL     1       1.299   8.602  20.216  0.00  0.00    +0.000 A 
ATOM     18  C   UNL     1       1.279   9.308  19.017  0.00  0.00    +0.000 A 
ATOM     19 BR   UNL     1       0.345  10.949  18.911  0.00  0.00    +0.000 Br
ATOM     20  C   UNL     1       1.952   8.817  17.900  0.00  0.00    +0.000 A 
ATOM     21  C   UNL     1       2.649   7.605  17.987  0.00  0.00    +0.000 A 
ENDBRANCH  14  15
ENDBRANCH  13  14
ENDBRANCH   2  13
TORSDOF 6
ENDMDL
MODEL 3
REMARK VINA RESULT:      -6.8      2.481      4.915
REMARK  Name = 
REMARK  6 active torsions:
REMARK  status: ('A' for Active; 'I' for Inactive)
REMARK    1  A    between atoms: C_2  and  C_3
REMARK    2  A    between atoms: C_2  and  O_12
REMARK    3  A    between atoms: C_3  and  N_4
REMARK    4  A    between atoms: C_5  and  C_7
REMARK    5  A    between atoms: O_12  and  C_13
REMARK    6  A    between atoms: C_13  and  C_14
REMARK                            x       y       z     vdW  Elec       q    Type
REMARK                         _______ _______ _______ _____ _____    ______ ____
ROOT
ATOM      1  O   UNL     1       5.170   6.783  15.557  0.00  0.00    +0.000 OA
ATOM      2  C   UNL     1       4.943   6.465  16.719  0.00  0.00    +0.000 C 
ENDROOT
BRANCH   2   3
ATOM      3  C   UNL     1       5.261   5.090  17.291  0.00  0.00    +0.000 C 
BRANCH   3   4
ATOM      4  N   UNL     1       4.347   4.730  18.355  0.00  0.00    +0.000 N 
ATOM      5  C   UNL     1       3.732   3.498  18.395  0.00  0.00    +0.000 C 
ATOM      6  O   UNL     1       3.891   2.658  17.513  0.00  0.00    +0.000 OA
ATOM      7  H   UNL     1       4.270   5.318  19.178  0.00  0.00    +0.000 HD
BRANCH   5   8
ATOM      8  C   UNL     1       2.884   3.292  19.552  0.00  0.00    +0.000 A 
ATOM      9  C   UNL     1       1.571   3.650  19.788  0.00  0.00    +0.000 A 
ATOM     10  C   UNL     1       1.259   3.217  21.099  0.00  0.00    +0.000 A 
ATOM     11  C   UNL     1       2.399   2.620  21.584  0.00  0.00    +0.000 A 
ATOM     12  O   UNL     1       3.390   2.655  20.657  0.00  0.00    +0.000 OA
ENDBRANCH   5   8
ENDBRANCH   3   4
ENDBRANCH   2   3
BRANCH   2  13
ATOM     13  O   UNL     1       4.305   7.235  17.638  0.00  0.00    +0.000 OA
BRANCH  13  14
ATOM     14  C   UNL     1       3.002   7.731  17.287  0.00  0.00    +0.000 C 
BRANCH  14  15
ATOM     15  C   UNL     1       2.214   8.115  18.523  0.00  0.00    +0.000 A 
ATOM     16  C   UNL     1       2.239   7.315  19.677  0.00  0.00    +0.000 A 
ATOM     17  C   UNL     1       1.543   7.697  20.826  0.00  0.00    +0.000 A 
ATOM     18  C   UNL     1       0.825   8.889  20.837  0.00  0.00    +0.000 A 
ATOM     19 BR   UNL     1      -0.105   9.408  22.399  0.00  0.00    +0.000 Br
ATOM     20  C   UNL     1       0.797   9.705  19.707  0.00  0.00    +0.000 A 
ATOM     21  C   UNL     1       1.494   9.318  18.556  0.00  0.00    +0.000 A 
ENDBRANCH  14  15
ENDBRANCH  13  14
ENDBRANCH   2  13
TORSDOF 6
ENDMDL
MODEL 4
REMARK VINA RESULT:      -6.8      2.636      3.731
REMARK  Name = 
REMARK  6 active torsions:
REMARK  status: ('A' for Active; 'I' for Inactive)
REMARK    1  A    between atoms: C_2  and  C_3
REMARK    2  A    between atoms: C_2  and  O_12
REMARK    3  A    between atoms: C_3  and  N_4
REMARK    4  A    between atoms: C_5  and  C_7
REMARK    5  A    between atoms: O_12  and  C_13
REMARK    6  A    between atoms: C_13  and  C_14
REMARK                            x       y       z     vdW  Elec       q    Type
REMARK                         _______ _______ _______ _____ _____    ______ ____
ROOT
ATOM      1  O   UNL     1       1.840   1.587  19.191  0.00  0.00    +0.000 OA
ATOM      2  C   UNL     1       2.756   2.400  19.144  0.00  0.00    +0.000 C 
ENDROOT
BRANCH   2   3
ATOM      3  C   UNL     1       3.802   2.423  18.038  0.00  0.00    +0.000 C 
BRANCH   3   4
ATOM      4  N   UNL     1       4.864   3.365  18.327  0.00  0.00    +0.000 N 
ATOM      5  C   UNL     1       5.272   4.302  17.404  0.00  0.00    +0.000 C 
ATOM      6  O   UNL     1       4.789   4.363  16.276  0.00  0.00    +0.000 OA
ATOM      7  H   UNL     1       5.215   3.458  19.275  0.00  0.00    +0.000 HD
BRANCH   5   8
ATOM      8  C   UNL     1       6.314   5.191  17.876  0.00  0.00    +0.000 A 
ATOM      9  C   UNL     1       6.757   6.406  17.391  0.00  0.00    +0.000 A 
ATOM     10  C   UNL     1       7.818   6.819  18.231  0.00  0.00    +0.000 A 
ATOM     11  C   UNL     1       7.959   5.833  19.179  0.00  0.00    +0.000 A 
ATOM     12  O   UNL     1       7.053   4.842  18.979  0.00  0.00    +0.000 OA
ENDBRANCH   5   8
ENDBRANCH   3   4
ENDBRANCH   2   3
BRANCH   2  13
ATOM     13  O   UNL     1       3.035   3.331  20.093  0.00  0.00    +0.000 OA
BRANCH  13  14
ATOM     14  C   UNL     1       1.943   4.144  20.554  0.00  0.00    +0.000 C 
BRANCH  14  15
ATOM     15  C   UNL     1       2.002   5.531  19.948  0.00  0.00    +0.000 A 
ATOM     16  C   UNL     1       2.270   5.715  18.581  0.00  0.00    +0.000 A 
ATOM     17  C   UNL     1       2.281   6.994  18.022  0.00  0.00    +0.000 A 
ATOM     18  C   UNL     1       2.014   8.102  18.820  0.00  0.00    +0.000 A 
ATOM     19 BR   UNL     1       2.019   9.831  18.054  0.00  0.00    +0.000 Br
ATOM     20  C   UNL     1       1.733   7.942  20.175  0.00  0.00    +0.000 A 
ATOM     21  C   UNL     1       1.723   6.658  20.735  0.00  0.00    +0.000 A 
ENDBRANCH  14  15
ENDBRANCH  13  14
ENDBRANCH   2  13
TORSDOF 6
ENDMDL
MODEL 5
REMARK VINA RESULT:      -6.7      2.646      3.319
REMARK  Name = 
REMARK  6 active torsions:
REMARK  status: ('A' for Active; 'I' for Inactive)
REMARK    1  A    between atoms: C_2  and  C_3
REMARK    2  A    between atoms: C_2  and  O_12
REMARK    3  A    between atoms: C_3  and  N_4
REMARK    4  A    between atoms: C_5  and  C_7
REMARK    5  A    between atoms: O_12  and  C_13
REMARK    6  A    between atoms: C_13  and  C_14
REMARK                            x       y       z     vdW  Elec       q    Type
REMARK                         _______ _______ _______ _____ _____    ______ ____
ROOT
ATOM      1  O   UNL     1       6.657   7.751  17.435  0.00  0.00    +0.000 OA
ATOM      2  C   UNL     1       6.030   6.784  17.016  0.00  0.00    +0.000 C 
ENDROOT
BRANCH   2   3
ATOM      3  C   UNL     1       6.628   5.390  16.881  0.00  0.00    +0.000 C 
BRANCH   3   4
ATOM      4  N   UNL     1       6.182   4.733  15.670  0.00  0.00    +0.000 N 
ATOM      5  C   UNL     1       6.895   4.818  14.494  0.00  0.00    +0.000 C 
ATOM      6  O   UNL     1       7.921   5.488  14.399  0.00  0.00    +0.000 OA
ATOM      7  H   UNL     1       5.421   4.062  15.708  0.00  0.00    +0.000 HD
BRANCH   5   8
ATOM      8  C   UNL     1       6.327   4.065  13.395  0.00  0.00    +0.000 A 
ATOM      9  C   UNL     1       5.013   3.789  13.070  0.00  0.00    +0.000 A 
ATOM     10  C   UNL     1       5.040   2.988  11.903  0.00  0.00    +0.000 A 
ATOM     11  C   UNL     1       6.368   2.824  11.585  0.00  0.00    +0.000 A 
ATOM     12  O   UNL     1       7.159   3.473  12.478  0.00  0.00    +0.000 OA
ENDBRANCH   5   8
ENDBRANCH   3   4
ENDBRANCH   2   3
BRANCH   2  13
ATOM     13  O   UNL     1       4.762   6.816  16.531  0.00  0.00    +0.000 OA
BRANCH  13  14
ATOM     14  C   UNL     1       3.740   7.328  17.402  0.00  0.00    +0.000 C 
BRANCH  14  15
ATOM     15  C   UNL     1       3.165   6.229  18.272  0.00  0.00    +0.000 A 
ATOM     16  C   UNL     1       2.754   6.488  19.591  0.00  0.00    +0.000 A 
ATOM     17  C   UNL     1       2.188   5.479  20.373  0.00  0.00    +0.000 A 
ATOM     18  C   UNL     1       2.014   4.205  19.841  0.00  0.00    +0.000 A 
ATOM     19 BR   UNL     1       1.234   2.847  20.900  0.00  0.00    +0.000 Br
ATOM     20  C   UNL     1       2.402   3.930  18.531  0.00  0.00    +0.000 A 
ATOM     21  C   UNL     1       2.972   4.942  17.749  0.00  0.00    +0.000 A 
ENDBRANCH  14  15
ENDBRANCH  13  14
ENDBRANCH   2  13
TORSDOF 6
ENDMDL
MODEL 6
REMARK VINA RESULT:      -6.7      3.584      6.306
REMARK  Name = 
REMARK  6 active torsions:
REMARK  status: ('A' for Active; 'I' for Inactive)
REMARK    1  A    between atoms: C_2  and  C_3
REMARK    2  A    between atoms: C_2  and  O_12
REMARK    3  A    between atoms: C_3  and  N_4
REMARK    4  A    between atoms: C_5  and  C_7
REMARK    5  A    between atoms: O_12  and  C_13
REMARK    6  A    between atoms: C_13  and  C_14
REMARK                            x       y       z     vdW  Elec       q    Type
REMARK                         _______ _______ _______ _____ _____    ______ ____
ROOT
ATOM      1  O   UNL     1       1.474   2.493  17.981  0.00  0.00    +0.000 OA
ATOM      2  C   UNL     1       2.399   2.964  18.634  0.00  0.00    +0.000 C 
ENDROOT
BRANCH   2   3
ATOM      3  C   UNL     1       2.199   3.832  19.868  0.00  0.00    +0.000 C 
BRANCH   3   4
ATOM      4  N   UNL     1       1.845   5.191  19.513  0.00  0.00    +0.000 N 
ATOM      5  C   UNL     1       2.771   6.211  19.539  0.00  0.00    +0.000 C 
ATOM      6  O   UNL     1       3.930   6.033  19.905  0.00  0.00    +0.000 OA
ATOM      7  H   UNL     1       0.949   5.385  19.079  0.00  0.00    +0.000 HD
BRANCH   5   8
ATOM      8  C   UNL     1       2.256   7.496  19.112  0.00  0.00    +0.000 A 
ATOM      9  C   UNL     1       2.329   8.140  17.893  0.00  0.00    +0.000 A 
ATOM     10  C   UNL     1       1.672   9.384  18.048  0.00  0.00    +0.000 A 
ATOM     11  C   UNL     1       1.235   9.424  19.351  0.00  0.00    +0.000 A 
ATOM     12  O   UNL     1       1.579   8.286  20.007  0.00  0.00    +0.000 OA
ENDBRANCH   5   8
ENDBRANCH   3   4
ENDBRANCH   2   3
BRANCH   2  13
ATOM     13  O   UNL     1       3.717   2.865  18.320  0.00  0.00    +0.000 OA
BRANCH  13  14
ATOM     14  C   UNL     1       4.122   3.348  17.029  0.00  0.00    +0.000 C 
BRANCH  14  15
ATOM     15  C   UNL     1       5.068   4.524  17.160  0.00  0.00    +0.000 A 
ATOM     16  C   UNL     1       4.794   5.750  16.531  0.00  0.00    +0.000 A 
ATOM     17  C   UNL     1       5.650   6.841  16.690  0.00  0.00    +0.000 A 
ATOM     18  C   UNL     1       6.783   6.723  17.490  0.00  0.00    +0.000 A 
ATOM     19 BR   UNL     1       7.932   8.208  17.712  0.00  0.00    +0.000 Br
ATOM     20  C   UNL     1       7.068   5.520  18.133  0.00  0.00    +0.000 A 
ATOM     21  C   UNL     1       6.208   4.426  17.971  0.00  0.00    +0.000 A 
ENDBRANCH  14  15
ENDBRANCH  13  14
ENDBRANCH   2  13
TORSDOF 6
ENDMDL
MODEL 7
REMARK VINA RESULT:      -6.6      5.018      6.374
REMARK  Name = 
REMARK  6 active torsions:
REMARK  status: ('A' for Active; 'I' for Inactive)
REMARK    1  A    between atoms: C_2  and  C_3
REMARK    2  A    between atoms: C_2  and  O_12
REMARK    3  A    between atoms: C_3  and  N_4
REMARK    4  A    between atoms: C_5  and  C_7
REMARK    5  A    between atoms: O_12  and  C_13
REMARK    6  A    between atoms: C_13  and  C_14
REMARK                            x       y       z     vdW  Elec       q    Type
REMARK                         _______ _______ _______ _____ _____    ______ ____
ROOT
ATOM      1  O   UNL     1       7.819   5.599  19.511  0.00  0.00    +0.000 OA
ATOM      2  C   UNL     1       7.807   6.471  18.650  0.00  0.00    +0.000 C 
ENDROOT
BRANCH   2   3
ATOM      3  C   UNL     1       7.007   6.365  17.359  0.00  0.00    +0.000 C 
BRANCH   3   4
ATOM      4  N   UNL     1       5.672   5.859  17.598  0.00  0.00    +0.000 N 
ATOM      5  C   UNL     1       5.231   4.682  17.034  0.00  0.00    +0.000 C 
ATOM      6  O   UNL     1       5.929   4.023  16.266  0.00  0.00    +0.000 OA
ATOM      7  H   UNL     1       5.092   6.278  18.318  0.00  0.00    +0.000 HD
BRANCH   5   8
ATOM      8  C   UNL     1       3.885   4.304  17.415  0.00  0.00    +0.000 A 
ATOM      9  C   UNL     1       2.807   5.072  17.809  0.00  0.00    +0.000 A 
ATOM     10  C   UNL     1       1.747   4.176  18.087  0.00  0.00    +0.000 A 
ATOM     11  C   UNL     1       2.241   2.916  17.845  0.00  0.00    +0.000 A 
ATOM     12  O   UNL     1       3.534   2.978  17.434  0.00  0.00    +0.000 OA
ENDBRANCH   5   8
ENDBRANCH   3   4
ENDBRANCH   2   3
BRANCH   2  13
ATOM     13  O   UNL     1       8.556   7.605  18.663  0.00  0.00    +0.000 OA
BRANCH  13  14
ATOM     14  C   UNL     1       8.048   8.734  17.933  0.00  0.00    +0.000 C 
BRANCH  14  15
ATOM     15  C   UNL     1       8.681  10.023  18.415  0.00  0.00    +0.000 A 
ATOM     16  C   UNL     1       8.585  11.205  17.661  0.00  0.00    +0.000 A 
ATOM     17  C   UNL     1       9.135  12.399  18.132  0.00  0.00    +0.000 A 
ATOM     18  C   UNL     1       9.777  12.427  19.367  0.00  0.00    +0.000 A 
ATOM     19 BR   UNL     1      10.509  14.049  20.005  0.00  0.00    +0.000 Br
ATOM     20  C   UNL     1       9.872  11.269  20.137  0.00  0.00    +0.000 A 
ATOM     21  C   UNL     1       9.321  10.073  19.662  0.00  0.00    +0.000 A 
ENDBRANCH  14  15
ENDBRANCH  13  14
ENDBRANCH   2  13
TORSDOF 6
ENDMDL
MODEL 8
REMARK VINA RESULT:      -6.6      2.182      4.965
REMARK  Name = 
REMARK  6 active torsions:
REMARK  status: ('A' for Active; 'I' for Inactive)
REMARK    1  A    between atoms: C_2  and  C_3
REMARK    2  A    between atoms: C_2  and  O_12
REMARK    3  A    between atoms: C_3  and  N_4
REMARK    4  A    between atoms: C_5  and  C_7
REMARK    5  A    between atoms: O_12  and  C_13
REMARK    6  A    between atoms: C_13  and  C_14
REMARK                            x       y       z     vdW  Elec       q    Type
REMARK                         _______ _______ _______ _____ _____    ______ ____
ROOT
ATOM      1  O   UNL     1       6.530   5.856  16.130  0.00  0.00    +0.000 OA
ATOM      2  C   UNL     1       5.627   5.450  16.853  0.00  0.00    +0.000 C 
ENDROOT
BRANCH   2   3
ATOM      3  C   UNL     1       5.128   4.011  16.846  0.00  0.00    +0.000 C 
BRANCH   3   4
ATOM      4  N   UNL     1       4.006   3.831  17.743  0.00  0.00    +0.000 N 
ATOM      5  C   UNL     1       4.175   3.383  19.034  0.00  0.00    +0.000 C 
ATOM      6  O   UNL     1       5.277   3.073  19.480  0.00  0.00    +0.000 OA
ATOM      7  H   UNL     1       3.091   4.189  17.488  0.00  0.00    +0.000 HD
BRANCH   5   8
ATOM      8  C   UNL     1       2.950   3.304  19.804  0.00  0.00    +0.000 A 
ATOM      9  C   UNL     1       2.725   2.920  21.111  0.00  0.00    +0.000 A 
ATOM     10  C   UNL     1       1.330   3.012  21.330  0.00  0.00    +0.000 A 
ATOM     11  C   UNL     1       0.786   3.447  20.144  0.00  0.00    +0.000 A 
ATOM     12  O   UNL     1       1.756   3.631  19.212  0.00  0.00    +0.000 OA
ENDBRANCH   5   8
ENDBRANCH   3   4
ENDBRANCH   2   3
BRANCH   2  13
ATOM     13  O   UNL     1       4.882   6.216  17.691  0.00  0.00    +0.000 OA
BRANCH  13  14
ATOM     14  C   UNL     1       3.931   7.111  17.090  0.00  0.00    +0.000 C 
BRANCH  14  15
ATOM     15  C   UNL     1       2.980   7.673  18.127  0.00  0.00    +0.000 A 
ATOM     16  C   UNL     1       2.229   8.832  17.871  0.00  0.00    +0.000 A 
ATOM     17  C   UNL     1       1.324   9.319  18.817  0.00  0.00    +0.000 A 
ATOM     18  C   UNL     1       1.152   8.647  20.023  0.00  0.00    +0.000 A 
ATOM     19 BR   UNL     1      -0.083   9.305  21.294  0.00  0.00    +0.000 Br
ATOM     20  C   UNL     1       1.878   7.488  20.292  0.00  0.00    +0.000 A 
ATOM     21  C   UNL     1       2.786   7.001  19.344  0.00  0.00    +0.000 A 
ENDBRANCH  14  15
ENDBRANCH  13  14
ENDBRANCH   2  13
TORSDOF 6
ENDMDL
MODEL 9
REMARK VINA RESULT:      -6.6      2.095      2.882
REMARK  Name = 
REMARK  6 active torsions:
REMARK  status: ('A' for Active; 'I' for Inactive)
REMARK    1  A    between atoms: C_2  and  C_3
REMARK    2  A    between atoms: C_2  and  O_12
REMARK    3  A    between atoms: C_3  and  N_4
REMARK    4  A    between atoms: C_5  and  C_7
REMARK    5  A    between atoms: O_12  and  C_13
REMARK    6  A    between atoms: C_13  and  C_14
REMARK                            x       y       z     vdW  Elec       q    Type
REMARK                         _______ _______ _______ _____ _____    ______ ____
ROOT
ATOM      1  O   UNL     1       5.023   1.553  21.109  0.00  0.00    +0.000 OA
ATOM      2  C   UNL     1       4.614   2.309  20.236  0.00  0.00    +0.000 C 
ENDROOT
BRANCH   2   3
ATOM      3  C   UNL     1       5.329   3.591  19.831  0.00  0.00    +0.000 C 
BRANCH   3   4
ATOM      4  N   UNL     1       5.596   3.626  18.408  0.00  0.00    +0.000 N 
ATOM      5  C   UNL     1       5.689   4.814  17.717  0.00  0.00    +0.000 C 
ATOM      6  O   UNL     1       5.509   5.902  18.260  0.00  0.00    +0.000 OA
ATOM      7  H   UNL     1       5.883   2.781  17.924  0.00  0.00    +0.000 HD
BRANCH   5   8
ATOM      8  C   UNL     1       6.004   4.665  16.311  0.00  0.00    +0.000 A 
ATOM      9  C   UNL     1       5.235   4.218  15.254  0.00  0.00    +0.000 A 
ATOM     10  C   UNL     1       6.060   4.258  14.104  0.00  0.00    +0.000 A 
ATOM     11  C   UNL     1       7.281   4.728  14.528  0.00  0.00    +0.000 A 
ATOM     12  O   UNL     1       7.261   4.982  15.861  0.00  0.00    +0.000 OA
ENDBRANCH   5   8
ENDBRANCH   3   4
ENDBRANCH   2   3
BRANCH   2  13
ATOM     13  O   UNL     1       3.439   2.178  19.566  0.00  0.00    +0.000 OA
BRANCH  13  14
ATOM     14  C   UNL     1       2.297   2.862  20.106  0.00  0.00    +0.000 C 
BRANCH  14  15
ATOM     15  C   UNL     1       2.213   4.281  19.582  0.00  0.00    +0.000 A 
ATOM     16  C   UNL     1       2.307   5.382  20.450  0.00  0.00    +0.000 A 
ATOM     17  C   UNL     1       2.271   6.687  19.955  0.00  0.00    +0.000 A 
ATOM     18  C   UNL     1       2.153   6.906  18.585  0.00  0.00    +0.000 A 
ATOM     19 BR   UNL     1       2.118   8.675  17.919  0.00  0.00    +0.000 Br
ATOM     20  C   UNL     1       2.072   5.828  17.705  0.00  0.00    +0.000 A 
ATOM     21  C   UNL     1       2.106   4.520  18.204  0.00  0.00    +0.000 A 
ENDBRANCH  14  15
ENDBRANCH  13  14
ENDBRANCH   2  13
TORSDOF 6
ENDMDL
