MODEL 1
REMARK VINA RESULT:      -7.9      0.000      0.000
REMARK  Name = 
REMARK  4 active torsions:
REMARK  status: ('A' for Active; 'I' for Inactive)
REMARK    1  A    between atoms: O_1  and  C_2
REMARK    2  A    between atoms: C_6  and  C_7
REMARK    3  A    between atoms: C_9  and  C_10
REMARK    4  A    between atoms: C_16  and  C_17
REMARK                            x       y       z     vdW  Elec       q    Type
REMARK                         _______ _______ _______ _____ _____    ______ ____
ROOT
ATOM      1  C   UNL     1       4.444   4.453  17.337  0.00  0.00    +0.000 A 
ATOM      2  C   UNL     1       4.571   3.986  16.033  0.00  0.00    +0.000 A 
ATOM      3  C   UNL     1       5.579   4.474  15.206  0.00  0.00    +0.000 A 
ATOM      4  C   UNL     1       6.432   5.447  15.725  0.00  0.00    +0.000 A 
ATOM      5  C   UNL     1       6.241   5.917  17.025  0.00  0.00    +0.000 A 
ATOM      6  N   UNL     1       5.263   5.418  17.828  0.00  0.00    +0.000 NA
ENDROOT
BRANCH   5   7
ATOM      7  C   UNL     1       7.090   6.980  17.606  0.00  0.00    +0.000 A 
ATOM      8  C   UNL     1       7.967   6.723  18.682  0.00  0.00    +0.000 A 
ATOM      9  C   UNL     1       8.738   7.739  19.260  0.00  0.00    +0.000 A 
ATOM     10  C   UNL     1       8.658   9.033  18.761  0.00  0.00    +0.000 A 
ATOM     11 CL   UNL     1       9.591  10.286  19.482  0.00  0.00    +0.000 Cl
ATOM     12  C   UNL     1       7.824   9.317  17.684  0.00  0.00    +0.000 A 
ATOM     13  C   UNL     1       7.052   8.297  17.111  0.00  0.00    +0.000 A 
ENDBRANCH   5   7
BRANCH   1  18
ATOM     14  C   UNL     1       2.713   2.944  20.364  0.00  0.00    +0.000 A 
ATOM     15  C   UNL     1       1.410   2.795  19.914  0.00  0.00    +0.000 A 
ATOM     16  C   UNL     1       1.080   3.235  18.633  0.00  0.00    +0.000 A 
ATOM     17  C   UNL     1       2.059   3.799  17.805  0.00  0.00    +0.000 A 
ATOM     18  C   UNL     1       3.389   3.934  18.236  0.00  0.00    +0.000 A 
ATOM     19  C   UNL     1       3.687   3.513  19.548  0.00  0.00    +0.000 A 
BRANCH  14  20
ATOM     20  O   UNL     1       3.097   2.532  21.605  0.00  0.00    +0.000 OA
ATOM     21  H   UNL     1       3.620   1.719  21.514  0.00  0.00    +0.000 HD
ENDBRANCH  14  20
ENDBRANCH   1  18
BRANCH   3  22
ATOM     22  C   UNL     1       5.711   3.968  13.845  0.00  0.00    +0.000 A 
ATOM     23  C   UNL     1       4.860   3.296  12.986  0.00  0.00    +0.000 A 
ATOM     24  C   UNL     1       5.580   3.072  11.789  0.00  0.00    +0.000 A 
ATOM     25  C   UNL     1       6.823   3.623  11.986  0.00  0.00    +0.000 A 
ATOM     26  O   UNL     1       6.912   4.170  13.225  0.00  0.00    +0.000 OA
ENDBRANCH   3  22
TORSDOF 4
ENDMDL
MODEL 2
REMARK VINA RESULT:      -7.9      1.050      1.249
REMARK  Name = 
REMARK  4 active torsions:
REMARK  status: ('A' for Active; 'I' for Inactive)
REMARK    1  A    between atoms: O_1  and  C_2
REMARK    2  A    between atoms: C_6  and  C_7
REMARK    3  A    between atoms: C_9  and  C_10
REMARK    4  A    between atoms: C_16  and  C_17
REMARK                            x       y       z     vdW  Elec       q    Type
REMARK                         _______ _______ _______ _____ _____    ______ ____
ROOT
ATOM      1  C   UNL     1       4.369   4.829  17.364  0.00  0.00    +0.000 A 
ATOM      2  C   UNL     1       4.525   4.290  16.092  0.00  0.00    +0.000 A 
ATOM      3  C   UNL     1       5.587   4.687  15.285  0.00  0.00    +0.000 A 
ATOM      4  C   UNL     1       6.466   5.644  15.791  0.00  0.00    +0.000 A 
ATOM      5  C   UNL     1       6.247   6.189  17.057  0.00  0.00    +0.000 A 
ATOM      6  N   UNL     1       5.214   5.778  17.842  0.00  0.00    +0.000 NA
ENDROOT
BRANCH   5   7
ATOM      7  C   UNL     1       7.124   7.239  17.620  0.00  0.00    +0.000 A 
ATOM      8  C   UNL     1       8.047   6.960  18.651  0.00  0.00    +0.000 A 
ATOM      9  C   UNL     1       8.845   7.962  19.214  0.00  0.00    +0.000 A 
ATOM     10  C   UNL     1       8.747   9.266  18.745  0.00  0.00    +0.000 A 
ATOM     11 CL   UNL     1       9.714  10.503  19.448  0.00  0.00    +0.000 Cl
ATOM     12  C   UNL     1       7.866   9.573  17.712  0.00  0.00    +0.000 A 
ATOM     13  C   UNL     1       7.066   8.566  17.154  0.00  0.00    +0.000 A 
ENDBRANCH   5   7
BRANCH   1  18
ATOM     14  C   UNL     1       1.355   2.943  18.704  0.00  0.00    +0.000 A 
ATOM     15  C   UNL     1       1.025   3.678  19.833  0.00  0.00    +0.000 A 
ATOM     16  C   UNL     1       1.820   4.767  20.190  0.00  0.00    +0.000 A 
ATOM     17  C   UNL     1       2.923   5.125  19.403  0.00  0.00    +0.000 A 
ATOM     18  C   UNL     1       3.255   4.407  18.242  0.00  0.00    +0.000 A 
ATOM     19  C   UNL     1       2.456   3.290  17.926  0.00  0.00    +0.000 A 
BRANCH  14  20
ATOM     20  O   UNL     1       0.616   1.870  18.304  0.00  0.00    +0.000 OA
ATOM     21  H   UNL     1      -0.320   2.055  18.480  0.00  0.00    +0.000 HD
ENDBRANCH  14  20
ENDBRANCH   1  18
BRANCH   3  22
ATOM     22  C   UNL     1       5.749   4.106  13.957  0.00  0.00    +0.000 A 
ATOM     23  C   UNL     1       4.926   3.364  13.131  0.00  0.00    +0.000 A 
ATOM     24  C   UNL     1       5.665   3.089  11.956  0.00  0.00    +0.000 A 
ATOM     25  C   UNL     1       6.891   3.683  12.133  0.00  0.00    +0.000 A 
ATOM     26  O   UNL     1       6.951   4.304  13.339  0.00  0.00    +0.000 OA
ENDBRANCH   3  22
TORSDOF 4
ENDMDL
MODEL 3
REMARK VINA RESULT:      -7.8      0.528      1.226
REMARK  Name = 
REMARK  4 active torsions:
REMARK  status: ('A' for Active; 'I' for Inactive)
REMARK    1  A    between atoms: O_1  and  C_2
REMARK    2  A    between atoms: C_6  and  C_7
REMARK    3  A    between atoms: C_9  and  C_10
REMARK    4  A    between atoms: C_16  and  C_17
REMARK                            x       y       z     vdW  Elec       q    Type
REMARK                         _______ _______ _______ _____ _____    ______ ____
ROOT
ATOM      1  C   UNL     1       4.589   4.508  17.296  0.00  0.00    +0.000 A 
ATOM      2  C   UNL     1       4.758   4.047  15.994  0.00  0.00    +0.000 A 
ATOM      3  C   UNL     1       5.761   4.574  15.186  0.00  0.00    +0.000 A 
ATOM      4  C   UNL     1       6.567   5.578  15.721  0.00  0.00    +0.000 A 
ATOM      5  C   UNL     1       6.335   6.038  17.018  0.00  0.00    +0.000 A 
ATOM      6  N   UNL     1       5.361   5.502  17.802  0.00  0.00    +0.000 NA
ENDROOT
BRANCH   5   7
ATOM      7  C   UNL     1       7.133   7.132  17.615  0.00  0.00    +0.000 A 
ATOM      8  C   UNL     1       7.035   8.461  17.148  0.00  0.00    +0.000 A 
ATOM      9  C   UNL     1       7.821   9.488  17.684  0.00  0.00    +0.000 A 
ATOM     10  C   UNL     1       8.714   9.207  18.710  0.00  0.00    +0.000 A 
ATOM     11 CL   UNL     1       9.695  10.464  19.357  0.00  0.00    +0.000 Cl
ATOM     12  C   UNL     1       8.818   7.914  19.212  0.00  0.00    +0.000 A 
ATOM     13  C   UNL     1       8.030   6.889  18.671  0.00  0.00    +0.000 A 
ENDBRANCH   5   7
BRANCH   1  18
ATOM     14  C   UNL     1       2.868   2.884  20.268  0.00  0.00    +0.000 A 
ATOM     15  C   UNL     1       1.568   2.733  19.810  0.00  0.00    +0.000 A 
ATOM     16  C   UNL     1       1.236   3.208  18.542  0.00  0.00    +0.000 A 
ATOM     17  C   UNL     1       2.211   3.810  17.735  0.00  0.00    +0.000 A 
ATOM     18  C   UNL     1       3.538   3.947  18.174  0.00  0.00    +0.000 A 
ATOM     19  C   UNL     1       3.837   3.490  19.474  0.00  0.00    +0.000 A 
BRANCH  14  20
ATOM     20  O   UNL     1       3.254   2.438  21.498  0.00  0.00    +0.000 OA
ATOM     21  H   UNL     1       3.583   1.529  21.409  0.00  0.00    +0.000 HD
ENDBRANCH  14  20
ENDBRANCH   1  18
BRANCH   3  22
ATOM     22  C   UNL     1       5.938   4.075  13.827  0.00  0.00    +0.000 A 
ATOM     23  C   UNL     1       7.027   3.957  12.985  0.00  0.00    +0.000 A 
ATOM     24  C   UNL     1       6.551   3.396  11.776  0.00  0.00    +0.000 A 
ATOM     25  C   UNL     1       5.204   3.201  11.954  0.00  0.00    +0.000 A 
ATOM     26  O   UNL     1       4.822   3.606  13.193  0.00  0.00    +0.000 OA
ENDBRANCH   3  22
TORSDOF 4
ENDMDL
MODEL 4
REMARK VINA RESULT:      -7.6      0.909      1.368
REMARK  Name = 
REMARK  4 active torsions:
REMARK  status: ('A' for Active; 'I' for Inactive)
REMARK    1  A    between atoms: O_1  and  C_2
REMARK    2  A    between atoms: C_6  and  C_7
REMARK    3  A    between atoms: C_9  and  C_10
REMARK    4  A    between atoms: C_16  and  C_17
REMARK                            x       y       z     vdW  Elec       q    Type
REMARK                         _______ _______ _______ _____ _____    ______ ____
ROOT
ATOM      1  C   UNL     1       4.332   4.336  17.123  0.00  0.00    +0.000 A 
ATOM      2  C   UNL     1       4.502   3.888  15.817  0.00  0.00    +0.000 A 
ATOM      3  C   UNL     1       5.534   4.392  15.029  0.00  0.00    +0.000 A 
ATOM      4  C   UNL     1       6.366   5.360  15.588  0.00  0.00    +0.000 A 
ATOM      5  C   UNL     1       6.132   5.811  16.888  0.00  0.00    +0.000 A 
ATOM      6  N   UNL     1       5.131   5.297  17.653  0.00  0.00    +0.000 NA
ENDROOT
BRANCH   5   7
ATOM      7  C   UNL     1       6.959   6.869  17.511  0.00  0.00    +0.000 A 
ATOM      8  C   UNL     1       6.917   8.204  17.056  0.00  0.00    +0.000 A 
ATOM      9  C   UNL     1       7.731   9.196  17.617  0.00  0.00    +0.000 A 
ATOM     10  C   UNL     1       8.595   8.874  18.655  0.00  0.00    +0.000 A 
ATOM     11 CL   UNL     1       9.609  10.087  19.332  0.00  0.00    +0.000 Cl
ATOM     12  C   UNL     1       8.643   7.572  19.146  0.00  0.00    +0.000 A 
ATOM     13  C   UNL     1       7.828   6.582  18.580  0.00  0.00    +0.000 A 
ENDBRANCH   5   7
BRANCH   1  18
ATOM     14  C   UNL     1       1.596   4.108  19.748  0.00  0.00    +0.000 A 
ATOM     15  C   UNL     1       1.288   2.755  19.737  0.00  0.00    +0.000 A 
ATOM     16  C   UNL     1       1.941   1.919  18.832  0.00  0.00    +0.000 A 
ATOM     17  C   UNL     1       2.911   2.437  17.963  0.00  0.00    +0.000 A 
ATOM     18  C   UNL     1       3.252   3.800  17.980  0.00  0.00    +0.000 A 
ATOM     19  C   UNL     1       2.551   4.628  18.880  0.00  0.00    +0.000 A 
BRANCH  14  20
ATOM     20  O   UNL     1       0.993   4.975  20.610  0.00  0.00    +0.000 OA
ATOM     21  H   UNL     1       1.529   5.782  20.663  0.00  0.00    +0.000 HD
ENDBRANCH  14  20
ENDBRANCH   1  18
BRANCH   3  22
ATOM     22  C   UNL     1       5.710   3.906  13.666  0.00  0.00    +0.000 A 
ATOM     23  C   UNL     1       4.842   3.447  12.693  0.00  0.00    +0.000 A 
ATOM     24  C   UNL     1       5.630   3.111  11.566  0.00  0.00    +0.000 A 
ATOM     25  C   UNL     1       6.928   3.390  11.916  0.00  0.00    +0.000 A 
ATOM     26  O   UNL     1       6.989   3.873  13.183  0.00  0.00    +0.000 OA
ENDBRANCH   3  22
TORSDOF 4
ENDMDL
MODEL 5
REMARK VINA RESULT:      -7.6      0.883      1.037
REMARK  Name = 
REMARK  4 active torsions:
REMARK  status: ('A' for Active; 'I' for Inactive)
REMARK    1  A    between atoms: O_1  and  C_2
REMARK    2  A    between atoms: C_6  and  C_7
REMARK    3  A    between atoms: C_9  and  C_10
REMARK    4  A    between atoms: C_16  and  C_17
REMARK                            x       y       z     vdW  Elec       q    Type
REMARK                         _______ _______ _______ _____ _____    ______ ____
ROOT
ATOM      1  C   UNL     1       4.407   4.874  17.193  0.00  0.00    +0.000 A 
ATOM      2  C   UNL     1       4.603   4.343  15.922  0.00  0.00    +0.000 A 
ATOM      3  C   UNL     1       5.692   4.742  15.153  0.00  0.00    +0.000 A 
ATOM      4  C   UNL     1       6.556   5.693  15.694  0.00  0.00    +0.000 A 
ATOM      5  C   UNL     1       6.298   6.230  16.955  0.00  0.00    +0.000 A 
ATOM      6  N   UNL     1       5.239   5.817  17.703  0.00  0.00    +0.000 NA
ENDROOT
BRANCH   5   7
ATOM      7  C   UNL     1       7.159   7.274  17.554  0.00  0.00    +0.000 A 
ATOM      8  C   UNL     1       8.064   6.980  18.596  0.00  0.00    +0.000 A 
ATOM      9  C   UNL     1       8.848   7.976  19.191  0.00  0.00    +0.000 A 
ATOM     10  C   UNL     1       8.750   9.288  18.745  0.00  0.00    +0.000 A 
ATOM     11 CL   UNL     1       9.698  10.516  19.488  0.00  0.00    +0.000 Cl
ATOM     12  C   UNL     1       7.887   9.609  17.702  0.00  0.00    +0.000 A 
ATOM     13  C   UNL     1       7.103   8.609  17.111  0.00  0.00    +0.000 A 
ENDBRANCH   5   7
BRANCH   1  18
ATOM     14  C   UNL     1       2.131   4.374  20.194  0.00  0.00    +0.000 A 
ATOM     15  C   UNL     1       1.163   3.517  19.690  0.00  0.00    +0.000 A 
ATOM     16  C   UNL     1       1.224   3.139  18.350  0.00  0.00    +0.000 A 
ATOM     17  C   UNL     1       2.262   3.602  17.530  0.00  0.00    +0.000 A 
ATOM     18  C   UNL     1       3.265   4.449  18.032  0.00  0.00    +0.000 A 
ATOM     19  C   UNL     1       3.159   4.843  19.381  0.00  0.00    +0.000 A 
BRANCH  14  20
ATOM     20  O   UNL     1       2.127   4.778  21.496  0.00  0.00    +0.000 OA
ATOM     21  H   UNL     1       1.646   4.120  22.023  0.00  0.00    +0.000 HD
ENDBRANCH  14  20
ENDBRANCH   1  18
BRANCH   3  22
ATOM     22  C   UNL     1       5.895   4.169  13.828  0.00  0.00    +0.000 A 
ATOM     23  C   UNL     1       6.994   4.037  12.999  0.00  0.00    +0.000 A 
ATOM     24  C   UNL     1       6.545   3.390  11.824  0.00  0.00    +0.000 A 
ATOM     25  C   UNL     1       5.204   3.162  12.005  0.00  0.00    +0.000 A 
ATOM     26  O   UNL     1       4.800   3.627  13.216  0.00  0.00    +0.000 OA
ENDBRANCH   3  22
TORSDOF 4
ENDMDL
MODEL 6
REMARK VINA RESULT:      -7.4      3.755      6.926
REMARK  Name = 
REMARK  4 active torsions:
REMARK  status: ('A' for Active; 'I' for Inactive)
REMARK    1  A    between atoms: O_1  and  C_2
REMARK    2  A    between atoms: C_6  and  C_7
REMARK    3  A    between atoms: C_9  and  C_10
REMARK    4  A    between atoms: C_16  and  C_17
REMARK                            x       y       z     vdW  Elec       q    Type
REMARK                         _______ _______ _______ _____ _____    ______ ____
ROOT
ATOM      1  C   UNL     1       4.111   5.752  17.759  0.00  0.00    +0.000 A 
ATOM      2  C   UNL     1       3.728   4.730  18.621  0.00  0.00    +0.000 A 
ATOM      3  C   UNL     1       2.717   4.939  19.555  0.00  0.00    +0.000 A 
ATOM      4  C   UNL     1       2.124   6.200  19.601  0.00  0.00    +0.000 A 
ATOM      5  C   UNL     1       2.569   7.209  18.745  0.00  0.00    +0.000 A 
ATOM      6  N   UNL     1       3.546   6.985  17.825  0.00  0.00    +0.000 NA
ENDROOT
BRANCH   5   7
ATOM      7  C   UNL     1       2.004   8.576  18.785  0.00  0.00    +0.000 A 
ATOM      8  C   UNL     1       2.291   9.526  17.782  0.00  0.00    +0.000 A 
ATOM      9  C   UNL     1       1.792  10.833  17.843  0.00  0.00    +0.000 A 
ATOM     10  C   UNL     1       0.982  11.212  18.905  0.00  0.00    +0.000 A 
ATOM     11 CL   UNL     1       0.382  12.822  18.991  0.00  0.00    +0.000 Cl
ATOM     12  C   UNL     1       0.657  10.293  19.899  0.00  0.00    +0.000 A 
ATOM     13  C   UNL     1       1.161   8.987  19.835  0.00  0.00    +0.000 A 
ENDBRANCH   5   7
BRANCH   1  18
ATOM     14  C   UNL     1       6.086   4.295  14.859  0.00  0.00    +0.000 A 
ATOM     15  C   UNL     1       7.261   5.030  14.904  0.00  0.00    +0.000 A 
ATOM     16  C   UNL     1       7.392   6.042  15.854  0.00  0.00    +0.000 A 
ATOM     17  C   UNL     1       6.358   6.296  16.765  0.00  0.00    +0.000 A 
ATOM     18  C   UNL     1       5.172   5.543  16.749  0.00  0.00    +0.000 A 
ATOM     19  C   UNL     1       5.052   4.550  15.756  0.00  0.00    +0.000 A 
BRANCH  14  20
ATOM     20  O   UNL     1       5.899   3.292  13.955  0.00  0.00    +0.000 OA
ATOM     21  H   UNL     1       6.097   3.633  13.068  0.00  0.00    +0.000 HD
ENDBRANCH  14  20
ENDBRANCH   1  18
BRANCH   3  22
ATOM     22  C   UNL     1       2.314   3.857  20.445  0.00  0.00    +0.000 A 
ATOM     23  C   UNL     1       1.115   3.492  21.027  0.00  0.00    +0.000 A 
ATOM     24  C   UNL     1       1.371   2.337  21.804  0.00  0.00    +0.000 A 
ATOM     25  C   UNL     1       2.707   2.064  21.646  0.00  0.00    +0.000 A 
ATOM     26  O   UNL     1       3.288   2.976  20.824  0.00  0.00    +0.000 OA
ENDBRANCH   3  22
TORSDOF 4
ENDMDL
MODEL 7
REMARK VINA RESULT:      -7.3      4.118      6.832
REMARK  Name = 
REMARK  4 active torsions:
REMARK  status: ('A' for Active; 'I' for Inactive)
REMARK    1  A    between atoms: O_1  and  C_2
REMARK    2  A    between atoms: C_6  and  C_7
REMARK    3  A    between atoms: C_9  and  C_10
REMARK    4  A    between atoms: C_16  and  C_17
REMARK                            x       y       z     vdW  Elec       q    Type
REMARK                         _______ _______ _______ _____ _____    ______ ____
ROOT
ATOM      1  C   UNL     1       2.572   7.085  18.715  0.00  0.00    +0.000 A 
ATOM      2  C   UNL     1       2.183   6.098  19.616  0.00  0.00    +0.000 A 
ATOM      3  C   UNL     1       2.692   4.807  19.508  0.00  0.00    +0.000 A 
ATOM      4  C   UNL     1       3.582   4.544  18.467  0.00  0.00    +0.000 A 
ATOM      5  C   UNL     1       3.911   5.554  17.562  0.00  0.00    +0.000 A 
ATOM      6  N   UNL     1       3.420   6.816  17.690  0.00  0.00    +0.000 NA
ENDROOT
BRANCH   5   7
ATOM      7  C   UNL     1       4.815   5.313  16.415  0.00  0.00    +0.000 A 
ATOM      8  C   UNL     1       5.267   6.368  15.594  0.00  0.00    +0.000 A 
ATOM      9  C   UNL     1       6.087   6.135  14.483  0.00  0.00    +0.000 A 
ATOM     10  C   UNL     1       6.482   4.838  14.179  0.00  0.00    +0.000 A 
ATOM     11 CL   UNL     1       7.474   4.548  12.803  0.00  0.00    +0.000 Cl
ATOM     12  C   UNL     1       6.076   3.777  14.982  0.00  0.00    +0.000 A 
ATOM     13  C   UNL     1       5.254   4.015  16.091  0.00  0.00    +0.000 A 
ENDBRANCH   5   7
BRANCH   1  18
ATOM     14  C   UNL     1       2.063  10.799  18.101  0.00  0.00    +0.000 A 
ATOM     15  C   UNL     1       1.187  11.149  19.119  0.00  0.00    +0.000 A 
ATOM     16  C   UNL     1       0.720  10.159  19.982  0.00  0.00    +0.000 A 
ATOM     17  C   UNL     1       1.148   8.833  19.834  0.00  0.00    +0.000 A 
ATOM     18  C   UNL     1       2.054   8.467  18.825  0.00  0.00    +0.000 A 
ATOM     19  C   UNL     1       2.483   9.481  17.945  0.00  0.00    +0.000 A 
BRANCH  14  20
ATOM     20  O   UNL     1       2.556  11.723  17.228  0.00  0.00    +0.000 OA
ATOM     21  H   UNL     1       3.119  12.343  17.717  0.00  0.00    +0.000 HD
ENDBRANCH  14  20
ENDBRANCH   1  18
BRANCH   3  22
ATOM     22  C   UNL     1       2.288   3.784  20.465  0.00  0.00    +0.000 A 
ATOM     23  C   UNL     1       1.096   3.483  21.097  0.00  0.00    +0.000 A 
ATOM     24  C   UNL     1       1.344   2.363  21.926  0.00  0.00    +0.000 A 
ATOM     25  C   UNL     1       2.668   2.046  21.748  0.00  0.00    +0.000 A 
ATOM     26  O   UNL     1       3.248   2.898  20.863  0.00  0.00    +0.000 OA
ENDBRANCH   3  22
TORSDOF 4
ENDMDL
MODEL 8
REMARK VINA RESULT:      -7.3      3.188      7.152
REMARK  Name = 
REMARK  4 active torsions:
REMARK  status: ('A' for Active; 'I' for Inactive)
REMARK    1  A    between atoms: O_1  and  C_2
REMARK    2  A    between atoms: C_6  and  C_7
REMARK    3  A    between atoms: C_9  and  C_10
REMARK    4  A    between atoms: C_16  and  C_17
REMARK                            x       y       z     vdW  Elec       q    Type
REMARK                         _______ _______ _______ _____ _____    ______ ____
ROOT
ATOM      1  C   UNL     1       6.379   5.336  15.601  0.00  0.00    +0.000 A 
ATOM      2  C   UNL     1       7.116   6.413  16.081  0.00  0.00    +0.000 A 
ATOM      3  C   UNL     1       6.944   6.857  17.389  0.00  0.00    +0.000 A 
ATOM      4  C   UNL     1       6.006   6.197  18.181  0.00  0.00    +0.000 A 
ATOM      5  C   UNL     1       5.258   5.147  17.645  0.00  0.00    +0.000 A 
ATOM      6  N   UNL     1       5.450   4.713  16.370  0.00  0.00    +0.000 NA
ENDROOT
BRANCH   5   7
ATOM      7  C   UNL     1       4.219   4.445  18.430  0.00  0.00    +0.000 A 
ATOM      8  C   UNL     1       2.848   4.743  18.279  0.00  0.00    +0.000 A 
ATOM      9  C   UNL     1       1.868   4.110  19.053  0.00  0.00    +0.000 A 
ATOM     10  C   UNL     1       2.241   3.151  19.986  0.00  0.00    +0.000 A 
ATOM     11 CL   UNL     1       1.041   2.385  20.951  0.00  0.00    +0.000 Cl
ATOM     12  C   UNL     1       3.582   2.813  20.144  0.00  0.00    +0.000 A 
ATOM     13  C   UNL     1       4.559   3.452  19.368  0.00  0.00    +0.000 A 
ENDBRANCH   5   7
BRANCH   1  18
ATOM     14  C   UNL     1       5.914   3.347  12.397  0.00  0.00    +0.000 A 
ATOM     15  C   UNL     1       6.988   3.771  11.629  0.00  0.00    +0.000 A 
ATOM     16  C   UNL     1       7.842   4.749  12.137  0.00  0.00    +0.000 A 
ATOM     17  C   UNL     1       7.629   5.278  13.417  0.00  0.00    +0.000 A 
ATOM     18  C   UNL     1       6.561   4.840  14.219  0.00  0.00    +0.000 A 
ATOM     19  C   UNL     1       5.693   3.877  13.666  0.00  0.00    +0.000 A 
BRANCH  14  20
ATOM     20  O   UNL     1       5.046   2.393  11.956  0.00  0.00    +0.000 OA
ATOM     21  H   UNL     1       4.661   1.944  12.726  0.00  0.00    +0.000 HD
ENDBRANCH  14  20
ENDBRANCH   1  18
BRANCH   3  22
ATOM     22  C   UNL     1       7.731   7.979  17.886  0.00  0.00    +0.000 A 
ATOM     23  C   UNL     1       8.648   8.127  18.910  0.00  0.00    +0.000 A 
ATOM     24  C   UNL     1       9.066   9.478  18.893  0.00  0.00    +0.000 A 
ATOM     25  C   UNL     1       8.385  10.073  17.860  0.00  0.00    +0.000 A 
ATOM     26  O   UNL     1       7.575   9.174  17.242  0.00  0.00    +0.000 OA
ENDBRANCH   3  22
TORSDOF 4
ENDMDL
MODEL 9
REMARK VINA RESULT:      -7.3      3.207      7.179
REMARK  Name = 
REMARK  4 active torsions:
REMARK  status: ('A' for Active; 'I' for Inactive)
REMARK    1  A    between atoms: O_1  and  C_2
REMARK    2  A    between atoms: C_6  and  C_7
REMARK    3  A    between atoms: C_9  and  C_10
REMARK    4  A    between atoms: C_16  and  C_17
REMARK                            x       y       z     vdW  Elec       q    Type
REMARK                         _______ _______ _______ _____ _____    ______ ____
ROOT
ATOM      1  C   UNL     1       6.317   5.250  15.418  0.00  0.00    +0.000 A 
ATOM      2  C   UNL     1       7.074   6.285  15.959  0.00  0.00    +0.000 A 
ATOM      3  C   UNL     1       6.835   6.727  17.257  0.00  0.00    +0.000 A 
ATOM      4  C   UNL     1       5.812   6.110  17.976  0.00  0.00    +0.000 A 
ATOM      5  C   UNL     1       5.051   5.104  17.378  0.00  0.00    +0.000 A 
ATOM      6  N   UNL     1       5.307   4.671  16.115  0.00  0.00    +0.000 NA
ENDROOT
BRANCH   5   7
ATOM      7  C   UNL     1       3.926   4.450  18.083  0.00  0.00    +0.000 A 
ATOM      8  C   UNL     1       4.142   3.443  19.048  0.00  0.00    +0.000 A 
ATOM      9  C   UNL     1       3.076   2.794  19.683  0.00  0.00    +0.000 A 
ATOM     10  C   UNL     1       1.770   3.151  19.375  0.00  0.00    +0.000 A 
ATOM     11 CL   UNL     1       0.459   2.342  20.140  0.00  0.00    +0.000 Cl
ATOM     12  C   UNL     1       1.521   4.158  18.447  0.00  0.00    +0.000 A 
ATOM     13  C   UNL     1       2.591   4.803  17.812  0.00  0.00    +0.000 A 
ENDBRANCH   5   7
BRANCH   1  18
ATOM     14  C   UNL     1       6.178   3.120  12.275  0.00  0.00    +0.000 A 
ATOM     15  C   UNL     1       7.149   3.708  11.477  0.00  0.00    +0.000 A 
ATOM     16  C   UNL     1       7.819   4.837  11.946  0.00  0.00    +0.000 A 
ATOM     17  C   UNL     1       7.530   5.356  13.215  0.00  0.00    +0.000 A 
ATOM     18  C   UNL     1       6.568   4.757  14.046  0.00  0.00    +0.000 A 
ATOM     19  C   UNL     1       5.881   3.638  13.533  0.00  0.00    +0.000 A 
BRANCH  14  20
ATOM     20  O   UNL     1       5.490   2.014  11.873  0.00  0.00    +0.000 OA
ATOM     21  H   UNL     1       5.233   2.129  10.944  0.00  0.00    +0.000 HD
ENDBRANCH  14  20
ENDBRANCH   1  18
BRANCH   3  22
ATOM     22  C   UNL     1       7.642   7.803  17.818  0.00  0.00    +0.000 A 
ATOM     23  C   UNL     1       8.549   7.877  18.859  0.00  0.00    +0.000 A 
ATOM     24  C   UNL     1       9.000   9.217  18.915  0.00  0.00    +0.000 A 
ATOM     25  C   UNL     1       8.346   9.879  17.906  0.00  0.00    +0.000 A 
ATOM     26  O   UNL     1       7.524   9.032  17.233  0.00  0.00    +0.000 OA
ENDBRANCH   3  22
TORSDOF 4
ENDMDL
