MODEL 1
REMARK VINA RESULT:      -8.9      0.000      0.000
REMARK  Name = 
REMARK  7 active torsions:
REMARK  status: ('A' for Active; 'I' for Inactive)
REMARK    1  A    between atoms: C_2  and  O_3
REMARK    2  A    between atoms: C_2  and  C_4
REMARK    3  A    between atoms: C_4  and  C_5
REMARK    4  A    between atoms: C_8  and  C_9
REMARK    5  A    between atoms: C_9  and  C_11
REMARK    6  A    between atoms: C_14  and  N_15
REMARK    7  A    between atoms: C_16  and  C_18
REMARK                            x       y       z     vdW  Elec       q    Type
REMARK                         _______ _______ _______ _____ _____    ______ ____
ROOT
ATOM      1  C   UNL     1       5.323   4.463  16.886  0.00  0.00    +0.000 C 
ATOM      2  O   UNL     1       5.401   4.045  15.734  0.00  0.00    +0.000 OA
ENDROOT
BRANCH   1   6
ATOM      3  C   UNL     1       2.242   3.078  19.489  0.00  0.00    +0.000 A 
ATOM      4  C   UNL     1       3.065   2.266  18.719  0.00  0.00    +0.000 A 
ATOM      5  N   UNL     1       4.010   2.726  17.891  0.00  0.00    +0.000 NA
ATOM      6  C   UNL     1       4.182   4.072  17.793  0.00  0.00    +0.000 A 
ATOM      7  C   UNL     1       3.401   5.010  18.514  0.00  0.00    +0.000 A 
ATOM      8  C   UNL     1       3.534   6.423  18.434  0.00  0.00    +0.000 A 
ATOM      9  C   UNL     1       2.741   7.286  19.189  0.00  0.00    +0.000 A 
ATOM     10  C   UNL     1       1.773   6.769  20.030  0.00  0.00    +0.000 A 
ATOM     11  C   UNL     1       1.599   5.388  20.116  0.00  0.00    +0.000 A 
ATOM     12  C   UNL     1       2.402   4.483  19.382  0.00  0.00    +0.000 A 
BRANCH   3  13
ATOM     13  C   UNL     1       1.235   2.402  20.391  0.00  0.00    +0.000 C 
BRANCH  13  15
ATOM     14  O   UNL     1       0.721   2.245  22.729  0.00  0.00    +0.000 OA
ATOM     15  C   UNL     1       1.578   2.364  21.863  0.00  0.00    +0.000 C 
BRANCH  15  16
ATOM     16  O   UNL     1       2.889   2.394  22.178  0.00  0.00    +0.000 OA
ATOM     17  H   UNL     1       3.220   3.232  22.554  0.00  0.00    +0.000 HD
ENDBRANCH  15  16
ENDBRANCH  13  15
ENDBRANCH   3  13
ENDBRANCH   1   6
BRANCH   1  18
ATOM     18  C   UNL     1       6.348   5.450  17.340  0.00  0.00    +0.000 A 
ATOM     19  C   UNL     1       6.513   6.614  16.587  0.00  0.00    +0.000 A 
ATOM     20  C   UNL     1       7.373   7.624  17.033  0.00  0.00    +0.000 A 
ATOM     21  C   UNL     1       8.077   7.494  18.232  0.00  0.00    +0.000 A 
ATOM     22  C   UNL     1       7.992   6.285  18.929  0.00  0.00    +0.000 A 
ATOM     23  C   UNL     1       7.133   5.267  18.485  0.00  0.00    +0.000 A 
BRANCH  21  24
ATOM     24  N   UNL     1       8.850   8.535  18.786  0.00  0.00    +0.000 N 
ATOM     25  C   UNL     1       8.725   9.882  18.485  0.00  0.00    +0.000 C 
ATOM     26  O   UNL     1       7.945  10.379  17.680  0.00  0.00    +0.000 OA
ATOM     27  H   UNL     1       9.468   8.330  19.567  0.00  0.00    +0.000 HD
BRANCH  25  28
ATOM     28  C   UNL     1       9.621  10.791  19.265  0.00  0.00    +0.000 A 
ATOM     29  C   UNL     1      10.820  11.205  18.689  0.00  0.00    +0.000 A 
ATOM     30  C   UNL     1      11.644  12.056  19.414  0.00  0.00    +0.000 A 
ATOM     31  C   UNL     1      11.246  12.462  20.683  0.00  0.00    +0.000 A 
ATOM     32  C   UNL     1      10.033  12.003  21.177  0.00  0.00    +0.000 A 
ATOM     33  N   UNL     1       9.199  11.177  20.499  0.00  0.00    +0.000 NA
ENDBRANCH  25  28
ENDBRANCH  21  24
ENDBRANCH   1  18
TORSDOF 7
ENDMDL
MODEL 2
REMARK VINA RESULT:      -8.8      5.007      7.358
REMARK  Name = 
REMARK  7 active torsions:
REMARK  status: ('A' for Active; 'I' for Inactive)
REMARK    1  A    between atoms: C_2  and  O_3
REMARK    2  A    between atoms: C_2  and  C_4
REMARK    3  A    between atoms: C_4  and  C_5
REMARK    4  A    between atoms: C_8  and  C_9
REMARK    5  A    between atoms: C_9  and  C_11
REMARK    6  A    between atoms: C_14  and  N_15
REMARK    7  A    between atoms: C_16  and  C_18
REMARK                            x       y       z     vdW  Elec       q    Type
REMARK                         _______ _______ _______ _____ _____    ______ ____
ROOT
ATOM      1  C   UNL     1       2.179   6.927  19.643  0.00  0.00    +0.000 C 
ATOM      2  O   UNL     1       1.921   6.520  20.773  0.00  0.00    +0.000 OA
ENDROOT
BRANCH   1   6
ATOM      3  C   UNL     1       4.676   4.768  16.944  0.00  0.00    +0.000 A 
ATOM      4  C   UNL     1       4.839   6.103  17.291  0.00  0.00    +0.000 A 
ATOM      5  N   UNL     1       4.027   6.766  18.123  0.00  0.00    +0.000 NA
ATOM      6  C   UNL     1       2.975   6.096  18.667  0.00  0.00    +0.000 A 
ATOM      7  C   UNL     1       2.690   4.736  18.386  0.00  0.00    +0.000 A 
ATOM      8  C   UNL     1       1.598   3.999  18.918  0.00  0.00    +0.000 A 
ATOM      9  C   UNL     1       1.389   2.655  18.611  0.00  0.00    +0.000 A 
ATOM     10  C   UNL     1       2.250   2.009  17.743  0.00  0.00    +0.000 A 
ATOM     11  C   UNL     1       3.320   2.708  17.184  0.00  0.00    +0.000 A 
ATOM     12  C   UNL     1       3.573   4.065  17.493  0.00  0.00    +0.000 A 
BRANCH   3  13
ATOM     13  C   UNL     1       5.692   4.159  16.004  0.00  0.00    +0.000 C 
BRANCH  13  15
ATOM     14  O   UNL     1       7.878   4.371  16.970  0.00  0.00    +0.000 OA
ATOM     15  C   UNL     1       7.096   4.713  16.092  0.00  0.00    +0.000 C 
BRANCH  15  16
ATOM     16  O   UNL     1       7.475   5.554  15.108  0.00  0.00    +0.000 OA
ATOM     17  H   UNL     1       8.431   5.579  14.911  0.00  0.00    +0.000 HD
ENDBRANCH  15  16
ENDBRANCH  13  15
ENDBRANCH   3  13
ENDBRANCH   1   6
BRANCH   1  18
ATOM     18  C   UNL     1       1.759   8.317  19.291  0.00  0.00    +0.000 A 
ATOM     19  C   UNL     1       1.031   9.039  20.237  0.00  0.00    +0.000 A 
ATOM     20  C   UNL     1       0.717  10.384  20.007  0.00  0.00    +0.000 A 
ATOM     21  C   UNL     1       1.123  11.028  18.835  0.00  0.00    +0.000 A 
ATOM     22  C   UNL     1       1.758  10.274  17.844  0.00  0.00    +0.000 A 
ATOM     23  C   UNL     1       2.074   8.925  18.069  0.00  0.00    +0.000 A 
BRANCH  21  24
ATOM     24  N   UNL     1       0.945  12.410  18.617  0.00  0.00    +0.000 N 
ATOM     25  C   UNL     1       1.551  13.426  19.339  0.00  0.00    +0.000 C 
ATOM     26  O   UNL     1       2.315  13.289  20.289  0.00  0.00    +0.000 OA
ATOM     27  H   UNL     1       0.441  12.718  17.791  0.00  0.00    +0.000 HD
BRANCH  25  28
ATOM     28  C   UNL     1       1.247  14.810  18.861  0.00  0.00    +0.000 A 
ATOM     29  C   UNL     1      -0.083  15.215  18.784  0.00  0.00    +0.000 A 
ATOM     30  C   UNL     1      -0.359  16.505  18.348  0.00  0.00    +0.000 A 
ATOM     31  C   UNL     1       0.697  17.341  18.004  0.00  0.00    +0.000 A 
ATOM     32  C   UNL     1       1.992  16.855  18.114  0.00  0.00    +0.000 A 
ATOM     33  N   UNL     1       2.302  15.606  18.540  0.00  0.00    +0.000 NA
ENDBRANCH  25  28
ENDBRANCH  21  24
ENDBRANCH   1  18
TORSDOF 7
ENDMDL
MODEL 3
REMARK VINA RESULT:      -8.6      6.042      9.558
REMARK  Name = 
REMARK  7 active torsions:
REMARK  status: ('A' for Active; 'I' for Inactive)
REMARK    1  A    between atoms: C_2  and  O_3
REMARK    2  A    between atoms: C_2  and  C_4
REMARK    3  A    between atoms: C_4  and  C_5
REMARK    4  A    between atoms: C_8  and  C_9
REMARK    5  A    between atoms: C_9  and  C_11
REMARK    6  A    between atoms: C_14  and  N_15
REMARK    7  A    between atoms: C_16  and  C_18
REMARK                            x       y       z     vdW  Elec       q    Type
REMARK                         _______ _______ _______ _____ _____    ______ ____
ROOT
ATOM      1  C   UNL     1       0.710  11.735  18.950  0.00  0.00    +0.000 C 
ATOM      2  O   UNL     1       1.499  12.656  18.757  0.00  0.00    +0.000 OA
ENDROOT
BRANCH   1   6
ATOM      3  C   UNL     1      -3.299  12.740  19.999  0.00  0.00    +0.000 A 
ATOM      4  C   UNL     1      -2.162  13.196  20.654  0.00  0.00    +0.000 A 
ATOM      5  N   UNL     1      -0.914  12.847  20.320  0.00  0.00    +0.000 NA
ATOM      6  C   UNL     1      -0.741  11.993  19.275  0.00  0.00    +0.000 A 
ATOM      7  C   UNL     1      -1.817  11.447  18.531  0.00  0.00    +0.000 A 
ATOM      8  C   UNL     1      -1.687  10.543  17.442  0.00  0.00    +0.000 A 
ATOM      9  C   UNL     1      -2.792  10.060  16.743  0.00  0.00    +0.000 A 
ATOM     10  C   UNL     1      -4.065  10.443  17.124  0.00  0.00    +0.000 A 
ATOM     11  C   UNL     1      -4.231  11.310  18.203  0.00  0.00    +0.000 A 
ATOM     12  C   UNL     1      -3.131  11.838  18.919  0.00  0.00    +0.000 A 
BRANCH   3  13
ATOM     13  C   UNL     1      -4.638  13.245  20.487  0.00  0.00    +0.000 C 
BRANCH  13  15
ATOM     14  O   UNL     1      -4.812  12.541  22.775  0.00  0.00    +0.000 OA
ATOM     15  C   UNL     1      -5.259  12.482  21.636  0.00  0.00    +0.000 C 
BRANCH  15  16
ATOM     16  O   UNL     1      -6.380  11.785  21.362  0.00  0.00    +0.000 OA
ATOM     17  H   UNL     1      -7.075  11.805  22.048  0.00  0.00    +0.000 HD
ENDBRANCH  15  16
ENDBRANCH  13  15
ENDBRANCH   3  13
ENDBRANCH   1   6
BRANCH   1  18
ATOM     18  C   UNL     1       1.250  10.342  18.944  0.00  0.00    +0.000 A 
ATOM     19  C   UNL     1       1.116   9.585  20.109  0.00  0.00    +0.000 A 
ATOM     20  C   UNL     1       1.495   8.238  20.120  0.00  0.00    +0.000 A 
ATOM     21  C   UNL     1       2.010   7.625  18.974  0.00  0.00    +0.000 A 
ATOM     22  C   UNL     1       2.242   8.412  17.842  0.00  0.00    +0.000 A 
ATOM     23  C   UNL     1       1.865   9.765  17.827  0.00  0.00    +0.000 A 
BRANCH  21  24
ATOM     24  N   UNL     1       2.282   6.244  18.898  0.00  0.00    +0.000 N 
ATOM     25  C   UNL     1       3.485   5.678  18.506  0.00  0.00    +0.000 C 
ATOM     26  O   UNL     1       4.490   6.281  18.143  0.00  0.00    +0.000 OA
ATOM     27  H   UNL     1       1.607   5.586  19.279  0.00  0.00    +0.000 HD
BRANCH  25  28
ATOM     28  C   UNL     1       3.536   4.184  18.579  0.00  0.00    +0.000 A 
ATOM     29  C   UNL     1       2.860   3.443  17.612  0.00  0.00    +0.000 A 
ATOM     30  C   UNL     1       2.918   2.057  17.681  0.00  0.00    +0.000 A 
ATOM     31  C   UNL     1       3.644   1.462  18.705  0.00  0.00    +0.000 A 
ATOM     32  C   UNL     1       4.289   2.278  19.624  0.00  0.00    +0.000 A 
ATOM     33  N   UNL     1       4.261   3.633  19.589  0.00  0.00    +0.000 NA
ENDBRANCH  25  28
ENDBRANCH  21  24
ENDBRANCH   1  18
TORSDOF 7
ENDMDL
MODEL 4
REMARK VINA RESULT:      -8.5      5.110      7.321
REMARK  Name = 
REMARK  7 active torsions:
REMARK  status: ('A' for Active; 'I' for Inactive)
REMARK    1  A    between atoms: C_2  and  O_3
REMARK    2  A    between atoms: C_2  and  C_4
REMARK    3  A    between atoms: C_4  and  C_5
REMARK    4  A    between atoms: C_8  and  C_9
REMARK    5  A    between atoms: C_9  and  C_11
REMARK    6  A    between atoms: C_14  and  N_15
REMARK    7  A    between atoms: C_16  and  C_18
REMARK                            x       y       z     vdW  Elec       q    Type
REMARK                         _______ _______ _______ _____ _____    ______ ____
ROOT
ATOM      1  C   UNL     1       2.130   6.998  19.816  0.00  0.00    +0.000 C 
ATOM      2  O   UNL     1       1.943   6.608  20.966  0.00  0.00    +0.000 OA
ENDROOT
BRANCH   1   6
ATOM      3  C   UNL     1       4.430   4.782  16.991  0.00  0.00    +0.000 A 
ATOM      4  C   UNL     1       4.628   6.118  17.312  0.00  0.00    +0.000 A 
ATOM      5  N   UNL     1       3.877   6.799  18.186  0.00  0.00    +0.000 NA
ATOM      6  C   UNL     1       2.854   6.148  18.802  0.00  0.00    +0.000 A 
ATOM      7  C   UNL     1       2.538   4.789  18.555  0.00  0.00    +0.000 A 
ATOM      8  C   UNL     1       1.473   4.069  19.162  0.00  0.00    +0.000 A 
ATOM      9  C   UNL     1       1.232   2.725  18.884  0.00  0.00    +0.000 A 
ATOM     10  C   UNL     1       2.029   2.060  17.972  0.00  0.00    +0.000 A 
ATOM     11  C   UNL     1       3.069   2.740  17.339  0.00  0.00    +0.000 A 
ATOM     12  C   UNL     1       3.356   4.098  17.615  0.00  0.00    +0.000 A 
BRANCH   3  13
ATOM     13  C   UNL     1       5.378   4.151  15.997  0.00  0.00    +0.000 C 
BRANCH  13  15
ATOM     14  O   UNL     1       6.820   5.725  14.900  0.00  0.00    +0.000 OA
ATOM     15  C   UNL     1       6.686   4.876  15.772  0.00  0.00    +0.000 C 
BRANCH  15  16
ATOM     16  O   UNL     1       7.687   4.595  16.632  0.00  0.00    +0.000 OA
ATOM     17  H   UNL     1       8.566   4.449  16.233  0.00  0.00    +0.000 HD
ENDBRANCH  15  16
ENDBRANCH  13  15
ENDBRANCH   3  13
ENDBRANCH   1   6
BRANCH   1  18
ATOM     18  C   UNL     1       1.699   8.387  19.473  0.00  0.00    +0.000 A 
ATOM     19  C   UNL     1       1.025   9.122  20.449  0.00  0.00    +0.000 A 
ATOM     20  C   UNL     1       0.705  10.465  20.223  0.00  0.00    +0.000 A 
ATOM     21  C   UNL     1       1.053  11.097  19.026  0.00  0.00    +0.000 A 
ATOM     22  C   UNL     1       1.632  10.331  18.010  0.00  0.00    +0.000 A 
ATOM     23  C   UNL     1       1.953   8.982  18.231  0.00  0.00    +0.000 A 
BRANCH  21  24
ATOM     24  N   UNL     1       0.870  12.478  18.805  0.00  0.00    +0.000 N 
ATOM     25  C   UNL     1       1.711  13.485  19.251  0.00  0.00    +0.000 C 
ATOM     26  O   UNL     1       2.727  13.342  19.923  0.00  0.00    +0.000 OA
ATOM     27  H   UNL     1       0.146  12.783  18.161  0.00  0.00    +0.000 HD
BRANCH  25  28
ATOM     28  C   UNL     1       1.328  14.866  18.821  0.00  0.00    +0.000 A 
ATOM     29  C   UNL     1       2.329  15.742  18.410  0.00  0.00    +0.000 A 
ATOM     30  C   UNL     1       1.966  17.019  18.003  0.00  0.00    +0.000 A 
ATOM     31  C   UNL     1       0.623  17.377  18.023  0.00  0.00    +0.000 A 
ATOM     32  C   UNL     1      -0.309  16.439  18.445  0.00  0.00    +0.000 A 
ATOM     33  N   UNL     1       0.005  15.182  18.844  0.00  0.00    +0.000 NA
ENDBRANCH  25  28
ENDBRANCH  21  24
ENDBRANCH   1  18
TORSDOF 7
ENDMDL
MODEL 5
REMARK VINA RESULT:      -8.4      5.428      8.112
REMARK  Name = 
REMARK  7 active torsions:
REMARK  status: ('A' for Active; 'I' for Inactive)
REMARK    1  A    between atoms: C_2  and  O_3
REMARK    2  A    between atoms: C_2  and  C_4
REMARK    3  A    between atoms: C_4  and  C_5
REMARK    4  A    between atoms: C_8  and  C_9
REMARK    5  A    between atoms: C_9  and  C_11
REMARK    6  A    between atoms: C_14  and  N_15
REMARK    7  A    between atoms: C_16  and  C_18
REMARK                            x       y       z     vdW  Elec       q    Type
REMARK                         _______ _______ _______ _____ _____    ______ ____
ROOT
ATOM      1  C   UNL     1       2.404   8.091  18.189  0.00  0.00    +0.000 C 
ATOM      2  O   UNL     1       2.668   8.634  17.120  0.00  0.00    +0.000 OA
ENDROOT
BRANCH   1   6
ATOM      3  C   UNL     1       3.618   4.125  19.180  0.00  0.00    +0.000 A 
ATOM      4  C   UNL     1       2.399   4.698  19.520  0.00  0.00    +0.000 A 
ATOM      5  N   UNL     1       2.050   5.955  19.218  0.00  0.00    +0.000 NA
ATOM      6  C   UNL     1       2.940   6.724  18.534  0.00  0.00    +0.000 A 
ATOM      7  C   UNL     1       4.221   6.265  18.138  0.00  0.00    +0.000 A 
ATOM      8  C   UNL     1       5.188   7.033  17.435  0.00  0.00    +0.000 A 
ATOM      9  C   UNL     1       6.424   6.508  17.060  0.00  0.00    +0.000 A 
ATOM     10  C   UNL     1       6.746   5.206  17.396  0.00  0.00    +0.000 A 
ATOM     11  C   UNL     1       5.830   4.430  18.106  0.00  0.00    +0.000 A 
ATOM     12  C   UNL     1       4.558   4.924  18.481  0.00  0.00    +0.000 A 
BRANCH   3  13
ATOM     13  C   UNL     1       3.851   2.686  19.578  0.00  0.00    +0.000 C 
BRANCH  13  15
ATOM     14  O   UNL     1       2.682   1.790  17.684  0.00  0.00    +0.000 OA
ATOM     15  C   UNL     1       3.568   1.646  18.517  0.00  0.00    +0.000 C 
BRANCH  15  16
ATOM     16  O   UNL     1       4.389   0.577  18.485  0.00  0.00    +0.000 OA
ATOM     17  H   UNL     1       5.165   0.651  17.897  0.00  0.00    +0.000 HD
ENDBRANCH  15  16
ENDBRANCH  13  15
ENDBRANCH   3  13
ENDBRANCH   1   6
BRANCH   1  18
ATOM     18  C   UNL     1       1.455   8.788  19.108  0.00  0.00    +0.000 A 
ATOM     19  C   UNL     1       1.538   8.503  20.472  0.00  0.00    +0.000 A 
ATOM     20  C   UNL     1       0.755   9.215  21.389  0.00  0.00    +0.000 A 
ATOM     21  C   UNL     1      -0.117  10.220  20.963  0.00  0.00    +0.000 A 
ATOM     22  C   UNL     1      -0.277  10.429  19.591  0.00  0.00    +0.000 A 
ATOM     23  C   UNL     1       0.504   9.717  18.667  0.00  0.00    +0.000 A 
BRANCH  21  24
ATOM     24  N   UNL     1      -0.826  11.050  21.856  0.00  0.00    +0.000 N 
ATOM     25  C   UNL     1      -0.498  12.359  22.174  0.00  0.00    +0.000 C 
ATOM     26  O   UNL     1       0.463  12.993  21.751  0.00  0.00    +0.000 OA
ATOM     27  H   UNL     1      -1.725  10.739  22.212  0.00  0.00    +0.000 HD
BRANCH  25  28
ATOM     28  C   UNL     1      -1.455  13.044  23.098  0.00  0.00    +0.000 A 
ATOM     29  C   UNL     1      -2.729  12.506  23.262  0.00  0.00    +0.000 A 
ATOM     30  C   UNL     1      -3.609  13.141  24.128  0.00  0.00    +0.000 A 
ATOM     31  C   UNL     1      -3.191  14.286  24.796  0.00  0.00    +0.000 A 
ATOM     32  C   UNL     1      -1.902  14.751  24.575  0.00  0.00    +0.000 A 
ATOM     33  N   UNL     1      -1.012  14.157  23.742  0.00  0.00    +0.000 NA
ENDBRANCH  25  28
ENDBRANCH  21  24
ENDBRANCH   1  18
TORSDOF 7
ENDMDL
MODEL 6
REMARK VINA RESULT:      -8.4      6.706     10.012
REMARK  Name = 
REMARK  7 active torsions:
REMARK  status: ('A' for Active; 'I' for Inactive)
REMARK    1  A    between atoms: C_2  and  O_3
REMARK    2  A    between atoms: C_2  and  C_4
REMARK    3  A    between atoms: C_4  and  C_5
REMARK    4  A    between atoms: C_8  and  C_9
REMARK    5  A    between atoms: C_9  and  C_11
REMARK    6  A    between atoms: C_14  and  N_15
REMARK    7  A    between atoms: C_16  and  C_18
REMARK                            x       y       z     vdW  Elec       q    Type
REMARK                         _______ _______ _______ _____ _____    ______ ____
ROOT
ATOM      1  C   UNL     1      -0.477  12.111  20.035  0.00  0.00    +0.000 C 
ATOM      2  O   UNL     1       0.173  13.150  20.122  0.00  0.00    +0.000 OA
ENDROOT
BRANCH   1   6
ATOM      3  C   UNL     1      -4.729  12.382  19.874  0.00  0.00    +0.000 A 
ATOM      4  C   UNL     1      -3.950  12.678  20.985  0.00  0.00    +0.000 A 
ATOM      5  N   UNL     1      -2.617  12.562  21.018  0.00  0.00    +0.000 NA
ATOM      6  C   UNL     1      -1.979  12.129  19.897  0.00  0.00    +0.000 A 
ATOM      7  C   UNL     1      -2.657  11.783  18.702  0.00  0.00    +0.000 A 
ATOM      8  C   UNL     1      -2.038  11.314  17.512  0.00  0.00    +0.000 A 
ATOM      9  C   UNL     1      -2.768  11.009  16.364  0.00  0.00    +0.000 A 
ATOM     10  C   UNL     1      -4.145  11.139  16.374  0.00  0.00    +0.000 A 
ATOM     11  C   UNL     1      -4.789  11.575  17.532  0.00  0.00    +0.000 A 
ATOM     12  C   UNL     1      -4.076  11.915  18.705  0.00  0.00    +0.000 A 
BRANCH   3  13
ATOM     13  C   UNL     1      -6.223  12.584  19.992  0.00  0.00    +0.000 C 
BRANCH  13  15
ATOM     14  O   UNL     1      -7.379  10.482  20.045  0.00  0.00    +0.000 OA
ATOM     15  C   UNL     1      -6.995  11.469  20.660  0.00  0.00    +0.000 C 
BRANCH  15  16
ATOM     16  O   UNL     1      -7.181  11.578  21.991  0.00  0.00    +0.000 OA
ATOM     17  H   UNL     1      -7.711  10.871  22.408  0.00  0.00    +0.000 HD
ENDBRANCH  15  16
ENDBRANCH  13  15
ENDBRANCH   3  13
ENDBRANCH   1   6
BRANCH   1  18
ATOM     18  C   UNL     1       0.258  10.817  20.162  0.00  0.00    +0.000 A 
ATOM     19  C   UNL     1       0.249  10.180  21.405  0.00  0.00    +0.000 A 
ATOM     20  C   UNL     1       0.820   8.910  21.548  0.00  0.00    +0.000 A 
ATOM     21  C   UNL     1       1.403   8.255  20.460  0.00  0.00    +0.000 A 
ATOM     22  C   UNL     1       1.505   8.939  19.245  0.00  0.00    +0.000 A 
ATOM     23  C   UNL     1       0.937  10.214  19.096  0.00  0.00    +0.000 A 
BRANCH  21  24
ATOM     24  N   UNL     1       1.871   6.927  20.524  0.00  0.00    +0.000 N 
ATOM     25  C   UNL     1       2.613   6.284  19.546  0.00  0.00    +0.000 C 
ATOM     26  O   UNL     1       2.961   6.754  18.468  0.00  0.00    +0.000 OA
ATOM     27  H   UNL     1       1.785   6.415  21.398  0.00  0.00    +0.000 HD
BRANCH  25  28
ATOM     28  C   UNL     1       3.044   4.893  19.891  0.00  0.00    +0.000 A 
ATOM     29  C   UNL     1       2.321   4.185  20.847  0.00  0.00    +0.000 A 
ATOM     30  C   UNL     1       2.720   2.892  21.156  0.00  0.00    +0.000 A 
ATOM     31  C   UNL     1       3.823   2.352  20.505  0.00  0.00    +0.000 A 
ATOM     32  C   UNL     1       4.484   3.128  19.563  0.00  0.00    +0.000 A 
ATOM     33  N   UNL     1       4.122   4.391  19.230  0.00  0.00    +0.000 NA
ENDBRANCH  25  28
ENDBRANCH  21  24
ENDBRANCH   1  18
TORSDOF 7
ENDMDL
MODEL 7
REMARK VINA RESULT:      -8.3      7.233     10.538
REMARK  Name = 
REMARK  7 active torsions:
REMARK  status: ('A' for Active; 'I' for Inactive)
REMARK    1  A    between atoms: C_2  and  O_3
REMARK    2  A    between atoms: C_2  and  C_4
REMARK    3  A    between atoms: C_4  and  C_5
REMARK    4  A    between atoms: C_8  and  C_9
REMARK    5  A    between atoms: C_9  and  C_11
REMARK    6  A    between atoms: C_14  and  N_15
REMARK    7  A    between atoms: C_16  and  C_18
REMARK                            x       y       z     vdW  Elec       q    Type
REMARK                         _______ _______ _______ _____ _____    ______ ____
ROOT
ATOM      1  C   UNL     1      -0.883  12.481  21.133  0.00  0.00    +0.000 C 
ATOM      2  O   UNL     1      -0.241  13.499  21.377  0.00  0.00    +0.000 OA
ENDROOT
BRANCH   1   6
ATOM      3  C   UNL     1      -5.081  12.403  20.386  0.00  0.00    +0.000 A 
ATOM      4  C   UNL     1      -4.093  12.285  19.417  0.00  0.00    +0.000 A 
ATOM      5  N   UNL     1      -2.780  12.336  19.674  0.00  0.00    +0.000 NA
ATOM      6  C   UNL     1      -2.382  12.515  20.963  0.00  0.00    +0.000 A 
ATOM      7  C   UNL     1      -3.287  12.662  22.043  0.00  0.00    +0.000 A 
ATOM      8  C   UNL     1      -2.920  12.864  23.401  0.00  0.00    +0.000 A 
ATOM      9  C   UNL     1      -3.868  12.982  24.416  0.00  0.00    +0.000 A 
ATOM     10  C   UNL     1      -5.214  12.927  24.107  0.00  0.00    +0.000 A 
ATOM     11  C   UNL     1      -5.612  12.753  22.782  0.00  0.00    +0.000 A 
ATOM     12  C   UNL     1      -4.676  12.606  21.731  0.00  0.00    +0.000 A 
BRANCH   3  13
ATOM     13  C   UNL     1      -6.520  12.305  19.936  0.00  0.00    +0.000 C 
BRANCH  13  15
ATOM     14  O   UNL     1      -7.545  10.369  20.916  0.00  0.00    +0.000 OA
ATOM     15  C   UNL     1      -7.116  10.915  19.907  0.00  0.00    +0.000 C 
BRANCH  15  16
ATOM     16  O   UNL     1      -7.220  10.328  18.698  0.00  0.00    +0.000 OA
ATOM     17  H   UNL     1      -6.981  10.883  17.931  0.00  0.00    +0.000 HD
ENDBRANCH  15  16
ENDBRANCH  13  15
ENDBRANCH   3  13
ENDBRANCH   1   6
BRANCH   1  18
ATOM     18  C   UNL     1      -0.145  11.183  21.100  0.00  0.00    +0.000 A 
ATOM     19  C   UNL     1      -0.147  10.401  22.257  0.00  0.00    +0.000 A 
ATOM     20  C   UNL     1       0.426   9.124  22.244  0.00  0.00    +0.000 A 
ATOM     21  C   UNL     1       1.006   8.607  21.082  0.00  0.00    +0.000 A 
ATOM     22  C   UNL     1       1.102   9.432  19.958  0.00  0.00    +0.000 A 
ATOM     23  C   UNL     1       0.530  10.714  19.967  0.00  0.00    +0.000 A 
BRANCH  21  24
ATOM     24  N   UNL     1       1.477   7.281  20.984  0.00  0.00    +0.000 N 
ATOM     25  C   UNL     1       2.183   6.752  19.914  0.00  0.00    +0.000 C 
ATOM     26  O   UNL     1       2.490   7.339  18.882  0.00  0.00    +0.000 OA
ATOM     27  H   UNL     1       1.424   6.676  21.799  0.00  0.00    +0.000 HD
BRANCH  25  28
ATOM     28  C   UNL     1       2.628   5.334  20.089  0.00  0.00    +0.000 A 
ATOM     29  C   UNL     1       1.960   4.531  21.011  0.00  0.00    +0.000 A 
ATOM     30  C   UNL     1       2.371   3.214  21.162  0.00  0.00    +0.000 A 
ATOM     31  C   UNL     1       3.430   2.745  20.393  0.00  0.00    +0.000 A 
ATOM     32  C   UNL     1       4.036   3.614  19.497  0.00  0.00    +0.000 A 
ATOM     33  N   UNL     1       3.661   4.904  19.316  0.00  0.00    +0.000 NA
ENDBRANCH  25  28
ENDBRANCH  21  24
ENDBRANCH   1  18
TORSDOF 7
ENDMDL
MODEL 8
REMARK VINA RESULT:      -8.2      5.495      8.176
REMARK  Name = 
REMARK  7 active torsions:
REMARK  status: ('A' for Active; 'I' for Inactive)
REMARK    1  A    between atoms: C_2  and  O_3
REMARK    2  A    between atoms: C_2  and  C_4
REMARK    3  A    between atoms: C_4  and  C_5
REMARK    4  A    between atoms: C_8  and  C_9
REMARK    5  A    between atoms: C_9  and  C_11
REMARK    6  A    between atoms: C_14  and  N_15
REMARK    7  A    between atoms: C_16  and  C_18
REMARK                            x       y       z     vdW  Elec       q    Type
REMARK                         _______ _______ _______ _____ _____    ______ ____
ROOT
ATOM      1  C   UNL     1       2.490   8.166  18.179  0.00  0.00    +0.000 C 
ATOM      2  O   UNL     1       2.969   8.857  17.284  0.00  0.00    +0.000 OA
ENDROOT
BRANCH   1   6
ATOM      3  C   UNL     1       3.228   4.002  18.732  0.00  0.00    +0.000 A 
ATOM      4  C   UNL     1       2.332   4.762  19.473  0.00  0.00    +0.000 A 
ATOM      5  N   UNL     1       2.135   6.074  19.296  0.00  0.00    +0.000 NA
ATOM      6  C   UNL     1       2.854   6.709  18.331  0.00  0.00    +0.000 A 
ATOM      7  C   UNL     1       3.808   6.053  17.514  0.00  0.00    +0.000 A 
ATOM      8  C   UNL     1       4.592   6.675  16.505  0.00  0.00    +0.000 A 
ATOM      9  C   UNL     1       5.501   5.962  15.725  0.00  0.00    +0.000 A 
ATOM     10  C   UNL     1       5.676   4.608  15.944  0.00  0.00    +0.000 A 
ATOM     11  C   UNL     1       4.941   3.969  16.942  0.00  0.00    +0.000 A 
ATOM     12  C   UNL     1       3.994   4.658  17.735  0.00  0.00    +0.000 A 
BRANCH   3  13
ATOM     13  C   UNL     1       3.319   2.525  19.042  0.00  0.00    +0.000 C 
BRANCH  13  15
ATOM     14  O   UNL     1       3.654   2.266  21.404  0.00  0.00    +0.000 OA
ATOM     15  C   UNL     1       4.112   2.151  20.274  0.00  0.00    +0.000 C 
BRANCH  15  16
ATOM     16  O   UNL     1       5.331   1.612  20.066  0.00  0.00    +0.000 OA
ATOM     17  H   UNL     1       5.906   1.538  20.852  0.00  0.00    +0.000 HD
ENDBRANCH  15  16
ENDBRANCH  13  15
ENDBRANCH   3  13
ENDBRANCH   1   6
BRANCH   1  18
ATOM     18  C   UNL     1       1.460   8.787  19.064  0.00  0.00    +0.000 A 
ATOM     19  C   UNL     1       1.507   8.492  20.428  0.00  0.00    +0.000 A 
ATOM     20  C   UNL     1       0.642   9.140  21.318  0.00  0.00    +0.000 A 
ATOM     21  C   UNL     1      -0.277  10.089  20.866  0.00  0.00    +0.000 A 
ATOM     22  C   UNL     1      -0.395  10.304  19.490  0.00  0.00    +0.000 A 
ATOM     23  C   UNL     1       0.468   9.655  18.592  0.00  0.00    +0.000 A 
BRANCH  21  24
ATOM     24  N   UNL     1      -1.075  10.861  21.736  0.00  0.00    +0.000 N 
ATOM     25  C   UNL     1      -0.732  12.094  22.267  0.00  0.00    +0.000 C 
ATOM     26  O   UNL     1       0.320  12.698  22.085  0.00  0.00    +0.000 OA
ATOM     27  H   UNL     1      -2.037  10.579  21.903  0.00  0.00    +0.000 HD
BRANCH  25  28
ATOM     28  C   UNL     1      -1.788  12.737  23.110  0.00  0.00    +0.000 A 
ATOM     29  C   UNL     1      -1.571  14.027  23.587  0.00  0.00    +0.000 A 
ATOM     30  C   UNL     1      -2.558  14.621  24.362  0.00  0.00    +0.000 A 
ATOM     31  C   UNL     1      -3.722  13.911  24.633  0.00  0.00    +0.000 A 
ATOM     32  C   UNL     1      -3.855  12.630  24.114  0.00  0.00    +0.000 A 
ATOM     33  N   UNL     1      -2.917  12.018  23.350  0.00  0.00    +0.000 NA
ENDBRANCH  25  28
ENDBRANCH  21  24
ENDBRANCH   1  18
TORSDOF 7
ENDMDL
MODEL 9
REMARK VINA RESULT:      -8.1      6.384      9.867
REMARK  Name = 
REMARK  7 active torsions:
REMARK  status: ('A' for Active; 'I' for Inactive)
REMARK    1  A    between atoms: C_2  and  O_3
REMARK    2  A    between atoms: C_2  and  C_4
REMARK    3  A    between atoms: C_4  and  C_5
REMARK    4  A    between atoms: C_8  and  C_9
REMARK    5  A    between atoms: C_9  and  C_11
REMARK    6  A    between atoms: C_14  and  N_15
REMARK    7  A    between atoms: C_16  and  C_18
REMARK                            x       y       z     vdW  Elec       q    Type
REMARK                         _______ _______ _______ _____ _____    ______ ____
ROOT
ATOM      1  C   UNL     1      -0.078  11.935  19.970  0.00  0.00    +0.000 C 
ATOM      2  O   UNL     1       0.547  12.897  20.408  0.00  0.00    +0.000 OA
ENDROOT
BRANCH   1   6
ATOM      3  C   UNL     1      -4.309  12.338  19.616  0.00  0.00    +0.000 A 
ATOM      4  C   UNL     1      -3.547  12.799  20.682  0.00  0.00    +0.000 A 
ATOM      5  N   UNL     1      -2.222  12.639  20.782  0.00  0.00    +0.000 NA
ATOM      6  C   UNL     1      -1.574  11.986  19.779  0.00  0.00    +0.000 A 
ATOM      7  C   UNL     1      -2.235  11.457  18.643  0.00  0.00    +0.000 A 
ATOM      8  C   UNL     1      -1.605  10.757  17.579  0.00  0.00    +0.000 A 
ATOM      9  C   UNL     1      -2.317  10.279  16.480  0.00  0.00    +0.000 A 
ATOM     10  C   UNL     1      -3.686  10.462  16.419  0.00  0.00    +0.000 A 
ATOM     11  C   UNL     1      -4.341  11.124  17.456  0.00  0.00    +0.000 A 
ATOM     12  C   UNL     1      -3.645  11.642  18.574  0.00  0.00    +0.000 A 
BRANCH   3  13
ATOM     13  C   UNL     1      -5.794  12.616  19.644  0.00  0.00    +0.000 C 
BRANCH  13  15
ATOM     14  O   UNL     1      -6.688  11.387  21.501  0.00  0.00    +0.000 OA
ATOM     15  C   UNL     1      -6.658  11.556  20.289  0.00  0.00    +0.000 C 
BRANCH  15  16
ATOM     16  O   UNL     1      -7.457  10.846  19.466  0.00  0.00    +0.000 OA
ATOM     17  H   UNL     1      -7.210  10.851  18.521  0.00  0.00    +0.000 HD
ENDBRANCH  15  16
ENDBRANCH  13  15
ENDBRANCH   3  13
ENDBRANCH   1   6
BRANCH   1  18
ATOM     18  C   UNL     1       0.676  10.672  19.716  0.00  0.00    +0.000 A 
ATOM     19  C   UNL     1       0.700   9.710  20.727  0.00  0.00    +0.000 A 
ATOM     20  C   UNL     1       1.290   8.462  20.497  0.00  0.00    +0.000 A 
ATOM     21  C   UNL     1       1.861   8.152  19.260  0.00  0.00    +0.000 A 
ATOM     22  C   UNL     1       1.931   9.152  18.287  0.00  0.00    +0.000 A 
ATOM     23  C   UNL     1       1.343  10.407  18.513  0.00  0.00    +0.000 A 
BRANCH  21  24
ATOM     24  N   UNL     1       2.348   6.867  18.939  0.00  0.00    +0.000 N 
ATOM     25  C   UNL     1       2.158   5.720  19.694  0.00  0.00    +0.000 C 
ATOM     26  O   UNL     1       1.562   5.641  20.763  0.00  0.00    +0.000 OA
ATOM     27  H   UNL     1       2.763   6.711  18.025  0.00  0.00    +0.000 HD
BRANCH  25  28
ATOM     28  C   UNL     1       2.720   4.469  19.095  0.00  0.00    +0.000 A 
ATOM     29  C   UNL     1       3.214   4.513  17.794  0.00  0.00    +0.000 A 
ATOM     30  C   UNL     1       3.742   3.351  17.247  0.00  0.00    +0.000 A 
ATOM     31  C   UNL     1       3.759   2.191  18.014  0.00  0.00    +0.000 A 
ATOM     32  C   UNL     1       3.248   2.240  19.303  0.00  0.00    +0.000 A 
ATOM     33  N   UNL     1       2.729   3.354  19.874  0.00  0.00    +0.000 NA
ENDBRANCH  25  28
ENDBRANCH  21  24
ENDBRANCH   1  18
TORSDOF 7
ENDMDL
