MODEL 1
REMARK VINA RESULT:      -8.6      0.000      0.000
REMARK  Name = 
REMARK  4 active torsions:
REMARK  status: ('A' for Active; 'I' for Inactive)
REMARK    1  A    between atoms: C_1  and  C_2
REMARK    2  A    between atoms: C_5  and  C_6
REMARK    3  A    between atoms: N_10  and  C_11
REMARK    4  A    between atoms: C_11  and  C_12
REMARK                            x       y       z     vdW  Elec       q    Type
REMARK                         _______ _______ _______ _____ _____    ______ ____
ROOT
ATOM      1  C   UNL     1       2.564   6.796  19.128  0.00  0.00    +0.000 A 
ATOM      2  C   UNL     1       3.413   7.215  18.183  0.00  0.00    +0.000 A 
ATOM      3  C   UNL     1       4.081   6.257  17.294  0.00  0.00    +0.000 A 
ATOM      4  O   UNL     1       4.394   6.654  16.174  0.00  0.00    +0.000 OA
ATOM      5  N   UNL     1       4.340   4.989  17.808  0.00  0.00    +0.000 N 
ATOM      6  C   UNL     1       3.333   4.455  18.707  0.00  0.00    +0.000 A 
ATOM      7  C   UNL     1       3.161   3.079  18.939  0.00  0.00    +0.000 A 
ATOM      8  C   UNL     1       2.098   2.603  19.722  0.00  0.00    +0.000 A 
ATOM      9  C   UNL     1       1.190   3.486  20.295  0.00  0.00    +0.000 A 
ATOM     10  C   UNL     1       1.351   4.853  20.097  0.00  0.00    +0.000 A 
ATOM     11  C   UNL     1       2.414   5.344  19.318  0.00  0.00    +0.000 A 
ENDROOT
BRANCH   1  16
ATOM     12  C   UNL     1      -0.083  11.200  21.751  0.00  0.00    +0.000 C 
ATOM     13  C   UNL     1       0.557  10.033  21.062  0.00  0.00    +0.000 A 
ATOM     14  C   UNL     1       0.791  10.063  19.684  0.00  0.00    +0.000 A 
ATOM     15  C   UNL     1       1.418   8.990  19.059  0.00  0.00    +0.000 A 
ATOM     16  C   UNL     1       1.823   7.873  19.802  0.00  0.00    +0.000 A 
ATOM     17  C   UNL     1       1.570   7.826  21.175  0.00  0.00    +0.000 A 
ATOM     18  C   UNL     1       0.938   8.903  21.800  0.00  0.00    +0.000 A 
ENDBRANCH   1  16
BRANCH   5  19
ATOM     19  C   UNL     1       5.258   4.137  17.060  0.00  0.00    +0.000 C 
BRANCH  19  20
ATOM     20  C   UNL     1       6.805   4.400  17.098  0.00  0.00    +0.000 C 
ATOM     21  C   UNL     1       7.394   4.627  18.492  0.00  0.00    +0.000 C 
ATOM     22  C   UNL     1       7.269   6.074  18.943  0.00  0.00    +0.000 C 
ATOM     23  C   UNL     1       7.807   7.063  17.911  0.00  0.00    +0.000 C 
ATOM     24  N   UNL     1       7.434   6.818  16.526  0.00  0.00    +0.000 NA
ATOM     25  C   UNL     1       7.413   5.417  16.114  0.00  0.00    +0.000 C 
ATOM     26  H   UNL     1       6.509   7.210  16.321  0.00  0.00    +0.000 HD
ENDBRANCH  19  20
ENDBRANCH   5  19
TORSDOF 3
ENDMDL
MODEL 2
REMARK VINA RESULT:      -8.0      3.134      6.276
REMARK  Name = 
REMARK  4 active torsions:
REMARK  status: ('A' for Active; 'I' for Inactive)
REMARK    1  A    between atoms: C_1  and  C_2
REMARK    2  A    between atoms: C_5  and  C_6
REMARK    3  A    between atoms: N_10  and  C_11
REMARK    4  A    between atoms: C_11  and  C_12
REMARK                            x       y       z     vdW  Elec       q    Type
REMARK                         _______ _______ _______ _____ _____    ______ ____
ROOT
ATOM      1  C   UNL     1       6.405   5.827  17.630  0.00  0.00    +0.000 A 
ATOM      2  C   UNL     1       5.829   5.312  18.722  0.00  0.00    +0.000 A 
ATOM      3  C   UNL     1       5.159   4.007  18.674  0.00  0.00    +0.000 A 
ATOM      4  O   UNL     1       5.126   3.354  19.714  0.00  0.00    +0.000 OA
ATOM      5  N   UNL     1       4.581   3.634  17.463  0.00  0.00    +0.000 N 
ATOM      6  C   UNL     1       5.297   4.046  16.269  0.00  0.00    +0.000 A 
ATOM      7  C   UNL     1       5.165   3.395  15.030  0.00  0.00    +0.000 A 
ATOM      8  C   UNL     1       5.966   3.753  13.934  0.00  0.00    +0.000 A 
ATOM      9  C   UNL     1       6.909   4.768  14.048  0.00  0.00    +0.000 A 
ATOM     10  C   UNL     1       7.044   5.440  15.257  0.00  0.00    +0.000 A 
ATOM     11  C   UNL     1       6.245   5.096  16.362  0.00  0.00    +0.000 A 
ENDROOT
BRANCH   1  16
ATOM     12  C   UNL     1       9.390  10.605  18.871  0.00  0.00    +0.000 C 
ATOM     13  C   UNL     1       8.650   9.352  18.511  0.00  0.00    +0.000 A 
ATOM     14  C   UNL     1       8.928   8.150  19.168  0.00  0.00    +0.000 A 
ATOM     15  C   UNL     1       8.211   7.000  18.851  0.00  0.00    +0.000 A 
ATOM     16  C   UNL     1       7.205   7.036  17.876  0.00  0.00    +0.000 A 
ATOM     17  C   UNL     1       6.940   8.228  17.199  0.00  0.00    +0.000 A 
ATOM     18  C   UNL     1       7.662   9.381  17.515  0.00  0.00    +0.000 A 
ENDBRANCH   1  16
BRANCH   5  19
ATOM     19  C   UNL     1       3.665   2.499  17.478  0.00  0.00    +0.000 C 
BRANCH  19  20
ATOM     20  C   UNL     1       2.181   2.674  17.959  0.00  0.00    +0.000 C 
ATOM     21  C   UNL     1       1.581   4.064  17.729  0.00  0.00    +0.000 C 
ATOM     22  C   UNL     1       1.921   5.031  18.852  0.00  0.00    +0.000 C 
ATOM     23  C   UNL     1       1.593   4.472  20.234  0.00  0.00    +0.000 C 
ATOM     24  N   UNL     1       1.977   3.090  20.480  0.00  0.00    +0.000 NA
ATOM     25  C   UNL     1       1.786   2.171  19.360  0.00  0.00    +0.000 C 
ATOM     26  H   UNL     1       2.961   3.028  20.761  0.00  0.00    +0.000 HD
ENDBRANCH  19  20
ENDBRANCH   5  19
TORSDOF 3
ENDMDL
MODEL 3
REMARK VINA RESULT:      -7.6      4.837      9.784
REMARK  Name = 
REMARK  4 active torsions:
REMARK  status: ('A' for Active; 'I' for Inactive)
REMARK    1  A    between atoms: C_1  and  C_2
REMARK    2  A    between atoms: C_5  and  C_6
REMARK    3  A    between atoms: N_10  and  C_11
REMARK    4  A    between atoms: C_11  and  C_12
REMARK                            x       y       z     vdW  Elec       q    Type
REMARK                         _______ _______ _______ _____ _____    ______ ____
ROOT
ATOM      1  C   UNL     1       0.382   9.896  20.008  0.00  0.00    +0.000 A 
ATOM      2  C   UNL     1       0.568  10.205  21.296  0.00  0.00    +0.000 A 
ATOM      3  C   UNL     1      -0.425  10.997  22.030  0.00  0.00    +0.000 A 
ATOM      4  O   UNL     1      -0.505  10.815  23.242  0.00  0.00    +0.000 OA
ATOM      5  N   UNL     1      -1.168  11.919  21.297  0.00  0.00    +0.000 N 
ATOM      6  C   UNL     1      -1.521  11.515  19.948  0.00  0.00    +0.000 A 
ATOM      7  C   UNL     1      -2.617  12.048  19.247  0.00  0.00    +0.000 A 
ATOM      8  C   UNL     1      -2.991  11.543  17.993  0.00  0.00    +0.000 A 
ATOM      9  C   UNL     1      -2.279  10.502  17.408  0.00  0.00    +0.000 A 
ATOM     10  C   UNL     1      -1.178   9.972  18.072  0.00  0.00    +0.000 A 
ATOM     11  C   UNL     1      -0.790  10.472  19.328  0.00  0.00    +0.000 A 
ENDROOT
BRANCH   1  16
ATOM     12  C   UNL     1       3.967   6.026  17.673  0.00  0.00    +0.000 C 
ATOM     13  C   UNL     1       3.078   7.055  18.303  0.00  0.00    +0.000 A 
ATOM     14  C   UNL     1       2.761   8.233  17.620  0.00  0.00    +0.000 A 
ATOM     15  C   UNL     1       1.906   9.166  18.198  0.00  0.00    +0.000 A 
ATOM     16  C   UNL     1       1.354   8.934  19.465  0.00  0.00    +0.000 A 
ATOM     17  C   UNL     1       1.685   7.770  20.163  0.00  0.00    +0.000 A 
ATOM     18  C   UNL     1       2.546   6.836  19.582  0.00  0.00    +0.000 A 
ENDBRANCH   1  16
BRANCH   5  19
ATOM     19  C   UNL     1      -1.931  12.913  22.046  0.00  0.00    +0.000 C 
BRANCH  19  20
ATOM     20  C   UNL     1      -3.328  12.550  22.664  0.00  0.00    +0.000 C 
ATOM     21  C   UNL     1      -4.539  13.093  21.902  0.00  0.00    +0.000 C 
ATOM     22  C   UNL     1      -4.879  14.520  22.301  0.00  0.00    +0.000 C 
ATOM     23  C   UNL     1      -5.010  14.695  23.813  0.00  0.00    +0.000 C 
ATOM     24  N   UNL     1      -3.987  14.059  24.628  0.00  0.00    +0.000 NA
ATOM     25  C   UNL     1      -3.546  12.741  24.176  0.00  0.00    +0.000 C 
ATOM     26  H   UNL     1      -3.153  14.652  24.698  0.00  0.00    +0.000 HD
ENDBRANCH  19  20
ENDBRANCH   5  19
TORSDOF 3
ENDMDL
MODEL 4
REMARK VINA RESULT:      -7.4      4.302      8.774
REMARK  Name = 
REMARK  4 active torsions:
REMARK  status: ('A' for Active; 'I' for Inactive)
REMARK    1  A    between atoms: C_1  and  C_2
REMARK    2  A    between atoms: C_5  and  C_6
REMARK    3  A    between atoms: N_10  and  C_11
REMARK    4  A    between atoms: C_11  and  C_12
REMARK                            x       y       z     vdW  Elec       q    Type
REMARK                         _______ _______ _______ _____ _____    ______ ____
ROOT
ATOM      1  C   UNL     1       0.397   9.923  19.883  0.00  0.00    +0.000 A 
ATOM      2  C   UNL     1       0.621  10.342  21.133  0.00  0.00    +0.000 A 
ATOM      3  C   UNL     1      -0.348  11.200  21.824  0.00  0.00    +0.000 A 
ATOM      4  O   UNL     1      -0.393  11.125  23.049  0.00  0.00    +0.000 OA
ATOM      5  N   UNL     1      -1.111  12.058  21.035  0.00  0.00    +0.000 N 
ATOM      6  C   UNL     1      -1.504  11.540  19.737  0.00  0.00    +0.000 A 
ATOM      7  C   UNL     1      -2.619  12.015  19.025  0.00  0.00    +0.000 A 
ATOM      8  C   UNL     1      -3.031  11.403  17.831  0.00  0.00    +0.000 A 
ATOM      9  C   UNL     1      -2.339  10.312  17.319  0.00  0.00    +0.000 A 
ATOM     10  C   UNL     1      -1.220   9.837  17.995  0.00  0.00    +0.000 A 
ATOM     11  C   UNL     1      -0.793  10.443  19.190  0.00  0.00    +0.000 A 
ENDROOT
BRANCH   1  16
ATOM     12  C   UNL     1       3.911   5.861  17.777  0.00  0.00    +0.000 C 
ATOM     13  C   UNL     1       3.040   6.940  18.347  0.00  0.00    +0.000 A 
ATOM     14  C   UNL     1       2.767   8.096  17.609  0.00  0.00    +0.000 A 
ATOM     15  C   UNL     1       1.929   9.075  18.132  0.00  0.00    +0.000 A 
ATOM     16  C   UNL     1       1.350   8.913  19.398  0.00  0.00    +0.000 A 
ATOM     17  C   UNL     1       1.638   7.771  20.150  0.00  0.00    +0.000 A 
ATOM     18  C   UNL     1       2.481   6.790  19.625  0.00  0.00    +0.000 A 
ENDBRANCH   1  16
BRANCH   5  19
ATOM     19  C   UNL     1      -1.849  13.117  21.716  0.00  0.00    +0.000 C 
BRANCH  19  20
ATOM     20  C   UNL     1      -1.288  14.582  21.762  0.00  0.00    +0.000 C 
ATOM     21  C   UNL     1      -0.986  15.208  20.398  0.00  0.00    +0.000 C 
ATOM     22  C   UNL     1       0.395  14.834  19.885  0.00  0.00    +0.000 C 
ATOM     23  C   UNL     1       1.497  15.099  20.909  0.00  0.00    +0.000 C 
ATOM     24  N   UNL     1       1.221  14.688  22.277  0.00  0.00    +0.000 NA
ATOM     25  C   UNL     1      -0.146  14.913  22.741  0.00  0.00    +0.000 C 
ATOM     26  H   UNL     1       1.428  13.693  22.410  0.00  0.00    +0.000 HD
ENDBRANCH  19  20
ENDBRANCH   5  19
TORSDOF 3
ENDMDL
MODEL 5
REMARK VINA RESULT:      -7.3      4.132      8.948
REMARK  Name = 
REMARK  4 active torsions:
REMARK  status: ('A' for Active; 'I' for Inactive)
REMARK    1  A    between atoms: C_1  and  C_2
REMARK    2  A    between atoms: C_5  and  C_6
REMARK    3  A    between atoms: N_10  and  C_11
REMARK    4  A    between atoms: C_11  and  C_12
REMARK                            x       y       z     vdW  Elec       q    Type
REMARK                         _______ _______ _______ _____ _____    ______ ____
ROOT
ATOM      1  C   UNL     1       0.679   9.530  20.158  0.00  0.00    +0.000 A 
ATOM      2  C   UNL     1       0.929   9.625  21.468  0.00  0.00    +0.000 A 
ATOM      3  C   UNL     1       0.042  10.394  22.350  0.00  0.00    +0.000 A 
ATOM      4  O   UNL     1      -0.024  10.044  23.525  0.00  0.00    +0.000 OA
ATOM      5  N   UNL     1      -0.622  11.482  21.788  0.00  0.00    +0.000 N 
ATOM      6  C   UNL     1      -1.050  11.318  20.410  0.00  0.00    +0.000 A 
ATOM      7  C   UNL     1      -2.103  12.053  19.840  0.00  0.00    +0.000 A 
ATOM      8  C   UNL     1      -2.560  11.777  18.541  0.00  0.00    +0.000 A 
ATOM      9  C   UNL     1      -1.974  10.769  17.784  0.00  0.00    +0.000 A 
ATOM     10  C   UNL     1      -0.917  10.042  18.320  0.00  0.00    +0.000 A 
ATOM     11  C   UNL     1      -0.446  10.311  19.617  0.00  0.00    +0.000 A 
ENDROOT
BRANCH   1  16
ATOM     12  C   UNL     1       4.263   5.836  17.553  0.00  0.00    +0.000 C 
ATOM     13  C   UNL     1       3.291   6.772  18.205  0.00  0.00    +0.000 A 
ATOM     14  C   UNL     1       2.742   6.468  19.454  0.00  0.00    +0.000 A 
ATOM     15  C   UNL     1       1.868   7.360  20.068  0.00  0.00    +0.000 A 
ATOM     16  C   UNL     1       1.532   8.569  19.443  0.00  0.00    +0.000 A 
ATOM     17  C   UNL     1       2.059   8.867  18.184  0.00  0.00    +0.000 A 
ATOM     18  C   UNL     1       2.933   7.970  17.568  0.00  0.00    +0.000 A 
ENDBRANCH   1  16
BRANCH   5  19
ATOM     19  C   UNL     1      -1.259  12.424  22.703  0.00  0.00    +0.000 C 
BRANCH  19  20
ATOM     20  C   UNL     1      -0.738  13.900  22.823  0.00  0.00    +0.000 C 
ATOM     21  C   UNL     1      -1.823  14.979  22.789  0.00  0.00    +0.000 C 
ATOM     22  C   UNL     1      -2.206  15.368  21.370  0.00  0.00    +0.000 C 
ATOM     23  C   UNL     1      -0.996  15.725  20.508  0.00  0.00    +0.000 C 
ATOM     24  N   UNL     1       0.154  14.840  20.611  0.00  0.00    +0.000 NA
ATOM     25  C   UNL     1       0.453  14.343  21.952  0.00  0.00    +0.000 C 
ATOM     26  H   UNL     1       0.044  14.023  20.001  0.00  0.00    +0.000 HD
ENDBRANCH  19  20
ENDBRANCH   5  19
TORSDOF 3
ENDMDL
MODEL 6
REMARK VINA RESULT:      -7.2      4.291      8.850
REMARK  Name = 
REMARK  4 active torsions:
REMARK  status: ('A' for Active; 'I' for Inactive)
REMARK    1  A    between atoms: C_1  and  C_2
REMARK    2  A    between atoms: C_5  and  C_6
REMARK    3  A    between atoms: N_10  and  C_11
REMARK    4  A    between atoms: C_11  and  C_12
REMARK                            x       y       z     vdW  Elec       q    Type
REMARK                         _______ _______ _______ _____ _____    ______ ____
ROOT
ATOM      1  C   UNL     1       0.375   9.923  19.804  0.00  0.00    +0.000 A 
ATOM      2  C   UNL     1       0.653  10.309  21.054  0.00  0.00    +0.000 A 
ATOM      3  C   UNL     1      -0.277  11.163  21.802  0.00  0.00    +0.000 A 
ATOM      4  O   UNL     1      -0.275  11.058  23.026  0.00  0.00    +0.000 OA
ATOM      5  N   UNL     1      -1.057  12.049  21.065  0.00  0.00    +0.000 N 
ATOM      6  C   UNL     1      -1.508  11.568  19.771  0.00  0.00    +0.000 A 
ATOM      7  C   UNL     1      -2.643  12.074  19.115  0.00  0.00    +0.000 A 
ATOM      8  C   UNL     1      -3.109  11.497  17.923  0.00  0.00    +0.000 A 
ATOM      9  C   UNL     1      -2.453  10.410  17.359  0.00  0.00    +0.000 A 
ATOM     10  C   UNL     1      -1.315   9.904  17.979  0.00  0.00    +0.000 A 
ATOM     11  C   UNL     1      -0.834  10.475  19.171  0.00  0.00    +0.000 A 
ENDROOT
BRANCH   1  16
ATOM     12  C   UNL     1       4.204   6.067  17.868  0.00  0.00    +0.000 C 
ATOM     13  C   UNL     1       3.170   7.041  18.346  0.00  0.00    +0.000 A 
ATOM     14  C   UNL     1       2.547   6.864  19.585  0.00  0.00    +0.000 A 
ATOM     15  C   UNL     1       1.615   7.793  20.037  0.00  0.00    +0.000 A 
ATOM     16  C   UNL     1       1.294   8.913  19.258  0.00  0.00    +0.000 A 
ATOM     17  C   UNL     1       1.896   9.084  18.009  0.00  0.00    +0.000 A 
ATOM     18  C   UNL     1       2.829   8.149  17.556  0.00  0.00    +0.000 A 
ENDBRANCH   1  16
BRANCH   5  19
ATOM     19  C   UNL     1      -1.754  13.100  21.799  0.00  0.00    +0.000 C 
BRANCH  19  20
ATOM     20  C   UNL     1      -1.208  14.572  21.800  0.00  0.00    +0.000 C 
ATOM     21  C   UNL     1      -1.457  15.361  20.513  0.00  0.00    +0.000 C 
ATOM     22  C   UNL     1      -0.388  15.105  19.463  0.00  0.00    +0.000 C 
ATOM     23  C   UNL     1       1.028  15.295  20.003  0.00  0.00    +0.000 C 
ATOM     24  N   UNL     1       1.303  14.719  21.311  0.00  0.00    +0.000 NA
ATOM     25  C   UNL     1       0.227  14.835  22.292  0.00  0.00    +0.000 C 
ATOM     26  H   UNL     1       1.538  13.724  21.231  0.00  0.00    +0.000 HD
ENDBRANCH  19  20
ENDBRANCH   5  19
TORSDOF 3
ENDMDL
MODEL 7
REMARK VINA RESULT:      -7.2      4.725      9.639
REMARK  Name = 
REMARK  4 active torsions:
REMARK  status: ('A' for Active; 'I' for Inactive)
REMARK    1  A    between atoms: C_1  and  C_2
REMARK    2  A    between atoms: C_5  and  C_6
REMARK    3  A    between atoms: N_10  and  C_11
REMARK    4  A    between atoms: C_11  and  C_12
REMARK                            x       y       z     vdW  Elec       q    Type
REMARK                         _______ _______ _______ _____ _____    ______ ____
ROOT
ATOM      1  C   UNL     1       0.161  10.459  19.594  0.00  0.00    +0.000 A 
ATOM      2  C   UNL     1       0.497  11.200  20.655  0.00  0.00    +0.000 A 
ATOM      3  C   UNL     1      -0.438  12.186  21.210  0.00  0.00    +0.000 A 
ATOM      4  O   UNL     1      -0.343  12.438  22.409  0.00  0.00    +0.000 OA
ATOM      5  N   UNL     1      -1.329  12.784  20.323  0.00  0.00    +0.000 N 
ATOM      6  C   UNL     1      -1.833  11.930  19.262  0.00  0.00    +0.000 A 
ATOM      7  C   UNL     1      -3.043  12.171  18.590  0.00  0.00    +0.000 A 
ATOM      8  C   UNL     1      -3.548  11.254  17.655  0.00  0.00    +0.000 A 
ATOM      9  C   UNL     1      -2.856  10.084  17.366  0.00  0.00    +0.000 A 
ATOM     10  C   UNL     1      -1.645   9.834  18.002  0.00  0.00    +0.000 A 
ATOM     11  C   UNL     1      -1.125  10.746  18.938  0.00  0.00    +0.000 A 
ENDROOT
BRANCH   1  16
ATOM     12  C   UNL     1       3.666   6.108  18.158  0.00  0.00    +0.000 C 
ATOM     13  C   UNL     1       2.797   7.264  18.552  0.00  0.00    +0.000 A 
ATOM     14  C   UNL     1       2.565   8.314  17.658  0.00  0.00    +0.000 A 
ATOM     15  C   UNL     1       1.728   9.365  18.020  0.00  0.00    +0.000 A 
ATOM     16  C   UNL     1       1.111   9.381  19.278  0.00  0.00    +0.000 A 
ATOM     17  C   UNL     1       1.358   8.347  20.184  0.00  0.00    +0.000 A 
ATOM     18  C   UNL     1       2.200   7.294  19.821  0.00  0.00    +0.000 A 
ENDBRANCH   1  16
BRANCH   5  19
ATOM     19  C   UNL     1      -2.047  13.966  20.788  0.00  0.00    +0.000 C 
BRANCH  19  20
ATOM     20  C   UNL     1      -3.438  13.828  21.503  0.00  0.00    +0.000 C 
ATOM     21  C   UNL     1      -3.774  14.943  22.497  0.00  0.00    +0.000 C 
ATOM     22  C   UNL     1      -3.187  14.684  23.875  0.00  0.00    +0.000 C 
ATOM     23  C   UNL     1      -3.531  13.296  24.412  0.00  0.00    +0.000 C 
ATOM     24  N   UNL     1      -3.403  12.190  23.474  0.00  0.00    +0.000 NA
ATOM     25  C   UNL     1      -3.834  12.467  22.106  0.00  0.00    +0.000 C 
ATOM     26  H   UNL     1      -2.433  11.860  23.427  0.00  0.00    +0.000 HD
ENDBRANCH  19  20
ENDBRANCH   5  19
TORSDOF 3
ENDMDL
MODEL 8
REMARK VINA RESULT:      -7.1      1.063      1.117
REMARK  Name = 
REMARK  4 active torsions:
REMARK  status: ('A' for Active; 'I' for Inactive)
REMARK    1  A    between atoms: C_1  and  C_2
REMARK    2  A    between atoms: C_5  and  C_6
REMARK    3  A    between atoms: N_10  and  C_11
REMARK    4  A    between atoms: C_11  and  C_12
REMARK                            x       y       z     vdW  Elec       q    Type
REMARK                         _______ _______ _______ _____ _____    ______ ____
ROOT
ATOM      1  C   UNL     1       2.165   6.498  19.792  0.00  0.00    +0.000 A 
ATOM      2  C   UNL     1       2.932   7.114  18.885  0.00  0.00    +0.000 A 
ATOM      3  C   UNL     1       3.523   6.366  17.769  0.00  0.00    +0.000 A 
ATOM      4  O   UNL     1       3.741   6.986  16.731  0.00  0.00    +0.000 OA
ATOM      5  N   UNL     1       3.824   5.025  17.993  0.00  0.00    +0.000 N 
ATOM      6  C   UNL     1       2.896   4.303  18.845  0.00  0.00    +0.000 A 
ATOM      7  C   UNL     1       2.745   2.907  18.807  0.00  0.00    +0.000 A 
ATOM      8  C   UNL     1       1.752   2.264  19.562  0.00  0.00    +0.000 A 
ATOM      9  C   UNL     1       0.894   2.998  20.374  0.00  0.00    +0.000 A 
ATOM     10  C   UNL     1       1.038   4.379  20.444  0.00  0.00    +0.000 A 
ATOM     11  C   UNL     1       2.032   5.035  19.696  0.00  0.00    +0.000 A 
ENDROOT
BRANCH   1  16
ATOM     12  C   UNL     1      -0.602  10.228  23.215  0.00  0.00    +0.000 C 
ATOM     13  C   UNL     1       0.118   9.224  22.366  0.00  0.00    +0.000 A 
ATOM     14  C   UNL     1      -0.596   8.312  21.585  0.00  0.00    +0.000 A 
ATOM     15  C   UNL     1       0.082   7.407  20.773  0.00  0.00    +0.000 A 
ATOM     16  C   UNL     1       1.482   7.404  20.729  0.00  0.00    +0.000 A 
ATOM     17  C   UNL     1       2.203   8.297  21.525  0.00  0.00    +0.000 A 
ATOM     18  C   UNL     1       1.521   9.202  22.342  0.00  0.00    +0.000 A 
ENDBRANCH   1  16
BRANCH   5  19
ATOM     19  C   UNL     1       4.677   4.357  17.015  0.00  0.00    +0.000 C 
BRANCH  19  20
ATOM     20  C   UNL     1       6.240   4.493  17.090  0.00  0.00    +0.000 C 
ATOM     21  C   UNL     1       6.817   4.608  18.503  0.00  0.00    +0.000 C 
ATOM     22  C   UNL     1       6.799   6.037  19.020  0.00  0.00    +0.000 C 
ATOM     23  C   UNL     1       7.434   7.026  18.045  0.00  0.00    +0.000 C 
ATOM     24  N   UNL     1       7.069   6.877  16.644  0.00  0.00    +0.000 NA
ATOM     25  C   UNL     1       6.945   5.502  16.165  0.00  0.00    +0.000 C 
ATOM     26  H   UNL     1       6.182   7.351  16.444  0.00  0.00    +0.000 HD
ENDBRANCH  19  20
ENDBRANCH   5  19
TORSDOF 3
ENDMDL
MODEL 9
REMARK VINA RESULT:      -7.1      4.388      9.198
REMARK  Name = 
REMARK  4 active torsions:
REMARK  status: ('A' for Active; 'I' for Inactive)
REMARK    1  A    between atoms: C_1  and  C_2
REMARK    2  A    between atoms: C_5  and  C_6
REMARK    3  A    between atoms: N_10  and  C_11
REMARK    4  A    between atoms: C_11  and  C_12
REMARK                            x       y       z     vdW  Elec       q    Type
REMARK                         _______ _______ _______ _____ _____    ______ ____
ROOT
ATOM      1  C   UNL     1       0.708   9.552  20.217  0.00  0.00    +0.000 A 
ATOM      2  C   UNL     1       0.906   9.661  21.535  0.00  0.00    +0.000 A 
ATOM      3  C   UNL     1      -0.027  10.421  22.376  0.00  0.00    +0.000 A 
ATOM      4  O   UNL     1      -0.133  10.078  23.550  0.00  0.00    +0.000 OA
ATOM      5  N   UNL     1      -0.686  11.495  21.781  0.00  0.00    +0.000 N 
ATOM      6  C   UNL     1      -1.057  11.315  20.389  0.00  0.00    +0.000 A 
ATOM      7  C   UNL     1      -2.099  12.028  19.772  0.00  0.00    +0.000 A 
ATOM      8  C   UNL     1      -2.500  11.736  18.459  0.00  0.00    +0.000 A 
ATOM      9  C   UNL     1      -1.870  10.732  17.733  0.00  0.00    +0.000 A 
ATOM     10  C   UNL     1      -0.823  10.026  18.314  0.00  0.00    +0.000 A 
ATOM     11  C   UNL     1      -0.407  10.312  19.627  0.00  0.00    +0.000 A 
ENDROOT
BRANCH   1  16
ATOM     12  C   UNL     1       3.978   5.743  17.375  0.00  0.00    +0.000 C 
ATOM     13  C   UNL     1       3.173   6.753  18.135  0.00  0.00    +0.000 A 
ATOM     14  C   UNL     1       2.864   7.991  17.564  0.00  0.00    +0.000 A 
ATOM     15  C   UNL     1       2.086   8.908  18.264  0.00  0.00    +0.000 A 
ATOM     16  C   UNL     1       1.603   8.600  19.543  0.00  0.00    +0.000 A 
ATOM     17  C   UNL     1       1.928   7.374  20.129  0.00  0.00    +0.000 A 
ATOM     18  C   UNL     1       2.711   6.456  19.426  0.00  0.00    +0.000 A 
ENDBRANCH   1  16
BRANCH   5  19
ATOM     19  C   UNL     1      -1.372  12.432  22.663  0.00  0.00    +0.000 C 
BRANCH  19  20
ATOM     20  C   UNL     1      -0.771  13.855  22.943  0.00  0.00    +0.000 C 
ATOM     21  C   UNL     1      -1.506  14.677  24.003  0.00  0.00    +0.000 C 
ATOM     22  C   UNL     1      -2.691  15.436  23.427  0.00  0.00    +0.000 C 
ATOM     23  C   UNL     1      -2.322  16.262  22.196  0.00  0.00    +0.000 C 
ATOM     24  N   UNL     1      -1.474  15.609  21.210  0.00  0.00    +0.000 NA
ATOM     25  C   UNL     1      -0.413  14.761  21.750  0.00  0.00    +0.000 C 
ATOM     26  H   UNL     1      -2.032  15.030  20.573  0.00  0.00    +0.000 HD
ENDBRANCH  19  20
ENDBRANCH   5  19
TORSDOF 3
ENDMDL
