MODEL 1
REMARK VINA RESULT:      -8.3      0.000      0.000
REMARK  Name = 
REMARK  12 active torsions:
REMARK  status: ('A' for Active; 'I' for Inactive)
REMARK    1  A    between atoms: C_1  and  C_2
REMARK    2  A    between atoms: C_2  and  C_3
REMARK    3  A    between atoms: C_2  and  C_4
REMARK    4  A    between atoms: C_2  and  N_15
REMARK    5  A    between atoms: C_4  and  C_5
REMARK    6  A    between atoms: N_15  and  C_16
REMARK    7  A    between atoms: C_16  and  C_17
REMARK    8  A    between atoms: C_17  and  O_18
REMARK    9  A    between atoms: C_17  and  C_19
REMARK   10  A    between atoms: N_23  and  C_24
REMARK   11  A    between atoms: C_24  and  C_25
REMARK   12  A    between atoms: C_29  and  N_30
REMARK                            x       y       z     vdW  Elec       q    Type
REMARK                         _______ _______ _______ _____ _____    ______ ____
ROOT
ATOM      1  C   UNL     1       1.779   5.009  20.606  0.00  0.00    +0.000 C 
ENDROOT
BRANCH   1   2
ATOM      2  C   UNL     1       2.464   3.912  19.735  0.00  0.00    +0.000 C 
ATOM      3  C   UNL     1       1.964   2.516  20.107  0.00  0.00    +0.000 C 
ATOM      4  C   UNL     1       0.688   2.379  19.303  0.00  0.00    +0.000 C 
ATOM      5  C   UNL     1       0.881   3.292  18.100  0.00  0.00    +0.000 C 
ATOM      6  N   UNL     1       2.150   4.028  18.286  0.00  0.00    +0.000 NA
BRANCH   6   7
ATOM      7  C   UNL     1       3.247   3.469  17.465  0.00  0.00    +0.000 C 
BRANCH   7   8
ATOM      8  C   UNL     1       4.177   4.525  16.891  0.00  0.00    +0.000 A 
ATOM      9  C   UNL     1       4.246   5.796  17.483  0.00  0.00    +0.000 A 
ATOM     10  C   UNL     1       5.142   6.762  17.015  0.00  0.00    +0.000 A 
ATOM     11  C   UNL     1       5.998   6.463  15.957  0.00  0.00    +0.000 A 
ATOM     12  C   UNL     1       5.933   5.198  15.357  0.00  0.00    +0.000 A 
ATOM     13  C   UNL     1       5.007   4.241  15.796  0.00  0.00    +0.000 A 
BRANCH  12  14
ATOM     14  N   UNL     1       6.894   4.856  14.298  0.00  0.00    +0.000 N 
ATOM     15  O   UNL     1       6.659   3.861  13.604  0.00  0.00    +0.000 OA
ATOM     16  O   UNL     1       7.876   5.602  14.153  0.00  0.00    +0.000 OA
ENDBRANCH  12  14
ENDBRANCH   7   8
ENDBRANCH   6   7
ENDBRANCH   1   2
BRANCH   1  17
ATOM     17  O   UNL     1       2.500   5.126  21.844  0.00  0.00    +0.000 OA
ATOM     18  H   UNL     1       2.868   6.025  21.884  0.00  0.00    +0.000 HD
ENDBRANCH   1  17
BRANCH   1  19
ATOM     19  C   UNL     1       1.747   6.368  19.862  0.00  0.00    +0.000 C 
BRANCH  19  20
ATOM     20  N   UNL     1       2.135   7.495  20.728  0.00  0.00    +0.000 NA
ATOM     21  H   UNL     1       2.441   7.127  21.629  0.00  0.00    +0.000 HD
BRANCH  20  23
ATOM     22  C   UNL     1       1.440   9.194  22.291  0.00  0.00    +0.000 C 
ATOM     23  C   UNL     1       1.089   8.536  20.937  0.00  0.00    +0.000 C 
ATOM     24  C   UNL     1      -0.302   7.881  21.076  0.00  0.00    +0.000 C 
BRANCH  23  25
ATOM     25  C   UNL     1       1.133   9.589  19.785  0.00  0.00    +0.000 C 
BRANCH  25  26
ATOM     26  C   UNL     1      -0.201  10.107  19.285  0.00  0.00    +0.000 A 
ATOM     27  C   UNL     1      -0.931  11.037  20.031  0.00  0.00    +0.000 A 
ATOM     28  C   UNL     1      -2.125  11.563  19.533  0.00  0.00    +0.000 A 
ATOM     29  C   UNL     1      -2.605  11.187  18.269  0.00  0.00    +0.000 A 
ATOM     30  C   UNL     1      -3.766  11.758  17.722  0.00  0.00    +0.000 A 
ATOM     31  C   UNL     1      -4.208  11.396  16.449  0.00  0.00    +0.000 A 
ATOM     32  C   UNL     1      -3.509  10.443  15.714  0.00  0.00    +0.000 A 
ATOM     33  C   UNL     1      -2.364   9.853  16.250  0.00  0.00    +0.000 A 
ATOM     34  C   UNL     1      -1.893  10.224  17.522  0.00  0.00    +0.000 A 
ATOM     35  C   UNL     1      -0.714   9.677  18.051  0.00  0.00    +0.000 A 
ENDBRANCH  25  26
ENDBRANCH  23  25
ENDBRANCH  20  23
ENDBRANCH  19  20
ENDBRANCH   1  19
TORSDOF 10
ENDMDL
MODEL 2
REMARK VINA RESULT:      -8.2      2.065      2.574
REMARK  Name = 
REMARK  12 active torsions:
REMARK  status: ('A' for Active; 'I' for Inactive)
REMARK    1  A    between atoms: C_1  and  C_2
REMARK    2  A    between atoms: C_2  and  C_3
REMARK    3  A    between atoms: C_2  and  C_4
REMARK    4  A    between atoms: C_2  and  N_15
REMARK    5  A    between atoms: C_4  and  C_5
REMARK    6  A    between atoms: N_15  and  C_16
REMARK    7  A    between atoms: C_16  and  C_17
REMARK    8  A    between atoms: C_17  and  O_18
REMARK    9  A    between atoms: C_17  and  C_19
REMARK   10  A    between atoms: N_23  and  C_24
REMARK   11  A    between atoms: C_24  and  C_25
REMARK   12  A    between atoms: C_29  and  N_30
REMARK                            x       y       z     vdW  Elec       q    Type
REMARK                         _______ _______ _______ _____ _____    ______ ____
ROOT
ATOM      1  C   UNL     1       2.268   5.017  20.377  0.00  0.00    +0.000 C 
ENDROOT
BRANCH   1   2
ATOM      2  C   UNL     1       2.830   3.781  19.610  0.00  0.00    +0.000 C 
ATOM      3  C   UNL     1       2.031   2.518  19.933  0.00  0.00    +0.000 C 
ATOM      4  C   UNL     1       0.858   2.595  18.979  0.00  0.00    +0.000 C 
ATOM      5  C   UNL     1       1.365   3.414  17.798  0.00  0.00    +0.000 C 
ATOM      6  N   UNL     1       2.720   3.903  18.132  0.00  0.00    +0.000 NA
BRANCH   6   7
ATOM      7  C   UNL     1       3.780   3.120  17.460  0.00  0.00    +0.000 C 
BRANCH   7   8
ATOM      8  C   UNL     1       5.034   3.923  17.160  0.00  0.00    +0.000 A 
ATOM      9  C   UNL     1       5.398   4.185  15.829  0.00  0.00    +0.000 A 
ATOM     10  C   UNL     1       6.510   4.978  15.529  0.00  0.00    +0.000 A 
ATOM     11  C   UNL     1       7.263   5.540  16.557  0.00  0.00    +0.000 A 
ATOM     12  C   UNL     1       6.909   5.282  17.888  0.00  0.00    +0.000 A 
ATOM     13  C   UNL     1       5.821   4.452  18.194  0.00  0.00    +0.000 A 
BRANCH  12  14
ATOM     14  N   UNL     1       7.653   5.943  18.970  0.00  0.00    +0.000 N 
ATOM     15  O   UNL     1       7.642   5.414  20.086  0.00  0.00    +0.000 OA
ATOM     16  O   UNL     1       8.265   6.986  18.690  0.00  0.00    +0.000 OA
ENDBRANCH  12  14
ENDBRANCH   7   8
ENDBRANCH   6   7
ENDBRANCH   1   2
BRANCH   1  17
ATOM     17  O   UNL     1       2.311   4.739  21.786  0.00  0.00    +0.000 OA
ATOM     18  H   UNL     1       2.135   5.574  22.253  0.00  0.00    +0.000 HD
ENDBRANCH   1  17
BRANCH   1  19
ATOM     19  C   UNL     1       3.084   6.293  20.046  0.00  0.00    +0.000 C 
BRANCH  19  20
ATOM     20  N   UNL     1       2.229   7.415  19.623  0.00  0.00    +0.000 NA
ATOM     21  H   UNL     1       1.255   7.177  19.813  0.00  0.00    +0.000 HD
BRANCH  20  23
ATOM     22  C   UNL     1       1.243   7.107  17.445  0.00  0.00    +0.000 C 
ATOM     23  C   UNL     1       2.377   7.836  18.200  0.00  0.00    +0.000 C 
ATOM     24  C   UNL     1       3.723   7.339  17.629  0.00  0.00    +0.000 C 
BRANCH  23  25
ATOM     25  C   UNL     1       2.218   9.384  18.072  0.00  0.00    +0.000 C 
BRANCH  25  26
ATOM     26  C   UNL     1       0.864   9.961  18.435  0.00  0.00    +0.000 A 
ATOM     27  C   UNL     1       0.720  10.804  19.539  0.00  0.00    +0.000 A 
ATOM     28  C   UNL     1      -0.515  11.389  19.827  0.00  0.00    +0.000 A 
ATOM     29  C   UNL     1      -1.629  11.159  19.006  0.00  0.00    +0.000 A 
ATOM     30  C   UNL     1      -2.861  11.793  19.239  0.00  0.00    +0.000 A 
ATOM     31  C   UNL     1      -3.947  11.577  18.390  0.00  0.00    +0.000 A 
ATOM     32  C   UNL     1      -3.825  10.709  17.309  0.00  0.00    +0.000 A 
ATOM     33  C   UNL     1      -2.613  10.058  17.074  0.00  0.00    +0.000 A 
ATOM     34  C   UNL     1      -1.504  10.282  17.906  0.00  0.00    +0.000 A 
ATOM     35  C   UNL     1      -0.265   9.673  17.651  0.00  0.00    +0.000 A 
ENDBRANCH  25  26
ENDBRANCH  23  25
ENDBRANCH  20  23
ENDBRANCH  19  20
ENDBRANCH   1  19
TORSDOF 10
ENDMDL
MODEL 3
REMARK VINA RESULT:      -8.0      1.920      2.529
REMARK  Name = 
REMARK  12 active torsions:
REMARK  status: ('A' for Active; 'I' for Inactive)
REMARK    1  A    between atoms: C_1  and  C_2
REMARK    2  A    between atoms: C_2  and  C_3
REMARK    3  A    between atoms: C_2  and  C_4
REMARK    4  A    between atoms: C_2  and  N_15
REMARK    5  A    between atoms: C_4  and  C_5
REMARK    6  A    between atoms: N_15  and  C_16
REMARK    7  A    between atoms: C_16  and  C_17
REMARK    8  A    between atoms: C_17  and  O_18
REMARK    9  A    between atoms: C_17  and  C_19
REMARK   10  A    between atoms: N_23  and  C_24
REMARK   11  A    between atoms: C_24  and  C_25
REMARK   12  A    between atoms: C_29  and  N_30
REMARK                            x       y       z     vdW  Elec       q    Type
REMARK                         _______ _______ _______ _____ _____    ______ ____
ROOT
ATOM      1  C   UNL     1       1.649   5.296  19.511  0.00  0.00    +0.000 C 
ENDROOT
BRANCH   1   2
ATOM      2  C   UNL     1       2.820   4.298  19.251  0.00  0.00    +0.000 C 
ATOM      3  C   UNL     1       2.858   3.200  20.313  0.00  0.00    +0.000 C 
ATOM      4  C   UNL     1       1.859   2.184  19.798  0.00  0.00    +0.000 C 
ATOM      5  C   UNL     1       1.843   2.380  18.288  0.00  0.00    +0.000 C 
ATOM      6  N   UNL     1       2.687   3.553  17.972  0.00  0.00    +0.000 NA
BRANCH   6   7
ATOM      7  C   UNL     1       4.015   3.163  17.450  0.00  0.00    +0.000 C 
BRANCH   7   8
ATOM      8  C   UNL     1       4.970   4.332  17.281  0.00  0.00    +0.000 A 
ATOM      9  C   UNL     1       4.829   5.202  16.189  0.00  0.00    +0.000 A 
ATOM     10  C   UNL     1       5.653   6.323  16.048  0.00  0.00    +0.000 A 
ATOM     11  C   UNL     1       6.620   6.602  17.011  0.00  0.00    +0.000 A 
ATOM     12  C   UNL     1       6.771   5.738  18.104  0.00  0.00    +0.000 A 
ATOM     13  C   UNL     1       5.976   4.589  18.226  0.00  0.00    +0.000 A 
BRANCH  12  14
ATOM     14  N   UNL     1       7.733   6.079  19.162  0.00  0.00    +0.000 N 
ATOM     15  O   UNL     1       8.489   7.036  18.968  0.00  0.00    +0.000 OA
ATOM     16  O   UNL     1       7.713   5.394  20.197  0.00  0.00    +0.000 OA
ENDBRANCH  12  14
ENDBRANCH   7   8
ENDBRANCH   6   7
ENDBRANCH   1   2
BRANCH   1  17
ATOM     17  O   UNL     1       1.001   4.930  20.740  0.00  0.00    +0.000 OA
ATOM     18  H   UNL     1       0.574   5.729  21.093  0.00  0.00    +0.000 HD
ENDBRANCH   1  17
BRANCH   1  19
ATOM     19  C   UNL     1       2.169   6.754  19.581  0.00  0.00    +0.000 C 
BRANCH  19  20
ATOM     20  N   UNL     1       2.021   7.343  20.923  0.00  0.00    +0.000 NA
ATOM     21  H   UNL     1       1.720   6.614  21.571  0.00  0.00    +0.000 HD
BRANCH  20  23
ATOM     22  C   UNL     1       1.540   9.272  22.287  0.00  0.00    +0.000 C 
ATOM     23  C   UNL     1       1.099   8.511  21.015  0.00  0.00    +0.000 C 
ATOM     24  C   UNL     1      -0.354   8.034  21.228  0.00  0.00    +0.000 C 
BRANCH  23  25
ATOM     25  C   UNL     1       1.244   9.418  19.753  0.00  0.00    +0.000 C 
BRANCH  25  26
ATOM     26  C   UNL     1      -0.034  10.001  19.184  0.00  0.00    +0.000 A 
ATOM     27  C   UNL     1      -0.491   9.620  17.919  0.00  0.00    +0.000 A 
ATOM     28  C   UNL     1      -1.706  10.107  17.430  0.00  0.00    +0.000 A 
ATOM     29  C   UNL     1      -2.499  10.970  18.202  0.00  0.00    +0.000 A 
ATOM     30  C   UNL     1      -3.755  11.413  17.755  0.00  0.00    +0.000 A 
ATOM     31  C   UNL     1      -4.544  12.244  18.552  0.00  0.00    +0.000 A 
ATOM     32  C   UNL     1      -4.080  12.659  19.797  0.00  0.00    +0.000 A 
ATOM     33  C   UNL     1      -2.827  12.242  20.248  0.00  0.00    +0.000 A 
ATOM     34  C   UNL     1      -2.031  11.387  19.466  0.00  0.00    +0.000 A 
ATOM     35  C   UNL     1      -0.791  10.918  19.930  0.00  0.00    +0.000 A 
ENDBRANCH  25  26
ENDBRANCH  23  25
ENDBRANCH  20  23
ENDBRANCH  19  20
ENDBRANCH   1  19
TORSDOF 10
ENDMDL
MODEL 4
REMARK VINA RESULT:      -7.8      1.351      1.934
REMARK  Name = 
REMARK  12 active torsions:
REMARK  status: ('A' for Active; 'I' for Inactive)
REMARK    1  A    between atoms: C_1  and  C_2
REMARK    2  A    between atoms: C_2  and  C_3
REMARK    3  A    between atoms: C_2  and  C_4
REMARK    4  A    between atoms: C_2  and  N_15
REMARK    5  A    between atoms: C_4  and  C_5
REMARK    6  A    between atoms: N_15  and  C_16
REMARK    7  A    between atoms: C_16  and  C_17
REMARK    8  A    between atoms: C_17  and  O_18
REMARK    9  A    between atoms: C_17  and  C_19
REMARK   10  A    between atoms: N_23  and  C_24
REMARK   11  A    between atoms: C_24  and  C_25
REMARK   12  A    between atoms: C_29  and  N_30
REMARK                            x       y       z     vdW  Elec       q    Type
REMARK                         _______ _______ _______ _____ _____    ______ ____
ROOT
ATOM      1  C   UNL     1       2.776   6.696  19.552  0.00  0.00    +0.000 C 
ENDROOT
BRANCH   1   2
ATOM      2  C   UNL     1       3.244   5.212  19.447  0.00  0.00    +0.000 C 
ATOM      3  C   UNL     1       2.560   4.339  20.499  0.00  0.00    +0.000 C 
ATOM      4  C   UNL     1       1.239   3.983  19.848  0.00  0.00    +0.000 C 
ATOM      5  C   UNL     1       1.507   4.053  18.350  0.00  0.00    +0.000 C 
ATOM      6  N   UNL     1       2.880   4.568  18.157  0.00  0.00    +0.000 NA
BRANCH   6   7
ATOM      7  C   UNL     1       3.839   3.493  17.818  0.00  0.00    +0.000 C 
BRANCH   7   8
ATOM      8  C   UNL     1       5.103   3.996  17.142  0.00  0.00    +0.000 A 
ATOM      9  C   UNL     1       6.184   4.443  17.919  0.00  0.00    +0.000 A 
ATOM     10  C   UNL     1       7.382   4.848  17.323  0.00  0.00    +0.000 A 
ATOM     11  C   UNL     1       7.524   4.792  15.938  0.00  0.00    +0.000 A 
ATOM     12  C   UNL     1       6.450   4.351  15.154  0.00  0.00    +0.000 A 
ATOM     13  C   UNL     1       5.232   3.985  15.745  0.00  0.00    +0.000 A 
BRANCH  12  14
ATOM     14  N   UNL     1       6.630   4.212  13.701  0.00  0.00    +0.000 N 
ATOM     15  O   UNL     1       5.884   3.434  13.098  0.00  0.00    +0.000 OA
ATOM     16  O   UNL     1       7.511   4.903  13.165  0.00  0.00    +0.000 OA
ENDBRANCH  12  14
ENDBRANCH   7   8
ENDBRANCH   6   7
ENDBRANCH   1   2
BRANCH   1  17
ATOM     17  O   UNL     1       2.221   7.091  18.287  0.00  0.00    +0.000 OA
ATOM     18  H   UNL     1       2.044   6.280  17.780  0.00  0.00    +0.000 HD
ENDBRANCH   1  17
BRANCH   1  19
ATOM     19  C   UNL     1       1.732   6.870  20.685  0.00  0.00    +0.000 C 
BRANCH  19  20
ATOM     20  N   UNL     1       1.820   8.189  21.335  0.00  0.00    +0.000 NA
ATOM     21  H   UNL     1       2.005   8.053  22.330  0.00  0.00    +0.000 HD
BRANCH  20  23
ATOM     22  C   UNL     1       0.550   9.901  22.462  0.00  0.00    +0.000 C 
ATOM     23  C   UNL     1       0.633   9.073  21.159  0.00  0.00    +0.000 C 
ATOM     24  C   UNL     1      -0.656   8.230  21.051  0.00  0.00    +0.000 C 
BRANCH  23  25
ATOM     25  C   UNL     1       0.831  10.009  19.925  0.00  0.00    +0.000 C 
BRANCH  25  26
ATOM     26  C   UNL     1      -0.406  10.333  19.111  0.00  0.00    +0.000 A 
ATOM     27  C   UNL     1      -0.595   9.769  17.847  0.00  0.00    +0.000 A 
ATOM     28  C   UNL     1      -1.770  10.016  17.131  0.00  0.00    +0.000 A 
ATOM     29  C   UNL     1      -2.788  10.815  17.673  0.00  0.00    +0.000 A 
ATOM     30  C   UNL     1      -4.004  11.017  16.998  0.00  0.00    +0.000 A 
ATOM     31  C   UNL     1      -5.017  11.787  17.569  0.00  0.00    +0.000 A 
ATOM     32  C   UNL     1      -4.823  12.384  18.811  0.00  0.00    +0.000 A 
ATOM     33  C   UNL     1      -3.614  12.208  19.486  0.00  0.00    +0.000 A 
ATOM     34  C   UNL     1      -2.592  11.417  18.935  0.00  0.00    +0.000 A 
ATOM     35  C   UNL     1      -1.392  11.189  19.626  0.00  0.00    +0.000 A 
ENDBRANCH  25  26
ENDBRANCH  23  25
ENDBRANCH  20  23
ENDBRANCH  19  20
ENDBRANCH   1  19
TORSDOF 10
ENDMDL
MODEL 5
REMARK VINA RESULT:      -7.8      2.563      3.416
REMARK  Name = 
REMARK  12 active torsions:
REMARK  status: ('A' for Active; 'I' for Inactive)
REMARK    1  A    between atoms: C_1  and  C_2
REMARK    2  A    between atoms: C_2  and  C_3
REMARK    3  A    between atoms: C_2  and  C_4
REMARK    4  A    between atoms: C_2  and  N_15
REMARK    5  A    between atoms: C_4  and  C_5
REMARK    6  A    between atoms: N_15  and  C_16
REMARK    7  A    between atoms: C_16  and  C_17
REMARK    8  A    between atoms: C_17  and  O_18
REMARK    9  A    between atoms: C_17  and  C_19
REMARK   10  A    between atoms: N_23  and  C_24
REMARK   11  A    between atoms: C_24  and  C_25
REMARK   12  A    between atoms: C_29  and  N_30
REMARK                            x       y       z     vdW  Elec       q    Type
REMARK                         _______ _______ _______ _____ _____    ______ ____
ROOT
ATOM      1  C   UNL     1       1.938   5.310  20.463  0.00  0.00    +0.000 C 
ENDROOT
BRANCH   1   2
ATOM      2  C   UNL     1       2.773   4.381  19.528  0.00  0.00    +0.000 C 
ATOM      3  C   UNL     1       2.904   2.976  20.115  0.00  0.00    +0.000 C 
ATOM      4  C   UNL     1       1.625   2.295  19.673  0.00  0.00    +0.000 C 
ATOM      5  C   UNL     1       1.214   3.019  18.398  0.00  0.00    +0.000 C 
ATOM      6  N   UNL     1       2.139   4.156  18.202  0.00  0.00    +0.000 NA
BRANCH   6   7
ATOM      7  C   UNL     1       3.163   3.874  17.171  0.00  0.00    +0.000 C 
BRANCH   7   8
ATOM      8  C   UNL     1       4.361   4.807  17.232  0.00  0.00    +0.000 A 
ATOM      9  C   UNL     1       4.217   6.158  16.879  0.00  0.00    +0.000 A 
ATOM     10  C   UNL     1       5.288   7.050  16.990  0.00  0.00    +0.000 A 
ATOM     11  C   UNL     1       6.516   6.607  17.477  0.00  0.00    +0.000 A 
ATOM     12  C   UNL     1       6.670   5.259  17.829  0.00  0.00    +0.000 A 
ATOM     13  C   UNL     1       5.611   4.352  17.679  0.00  0.00    +0.000 A 
BRANCH  12  14
ATOM     14  N   UNL     1       7.939   4.813  18.422  0.00  0.00    +0.000 N 
ATOM     15  O   UNL     1       8.637   4.030  17.770  0.00  0.00    +0.000 OA
ATOM     16  O   UNL     1       8.241   5.266  19.537  0.00  0.00    +0.000 OA
ENDBRANCH  12  14
ENDBRANCH   7   8
ENDBRANCH   6   7
ENDBRANCH   1   2
BRANCH   1  17
ATOM     17  O   UNL     1       2.322   5.052  21.824  0.00  0.00    +0.000 OA
ATOM     18  H   UNL     1       3.262   5.285  21.911  0.00  0.00    +0.000 HD
ENDBRANCH   1  17
BRANCH   1  19
ATOM     19  C   UNL     1       2.160   6.801  20.106  0.00  0.00    +0.000 C 
BRANCH  19  20
ATOM     20  N   UNL     1       1.861   7.702  21.232  0.00  0.00    +0.000 NA
ATOM     21  H   UNL     1       1.567   7.141  22.033  0.00  0.00    +0.000 HD
BRANCH  20  23
ATOM     22  C   UNL     1      -0.521   8.049  21.088  0.00  0.00    +0.000 C 
ATOM     23  C   UNL     1       0.846   8.759  20.958  0.00  0.00    +0.000 C 
ATOM     24  C   UNL     1       0.979   9.270  19.507  0.00  0.00    +0.000 C 
BRANCH  23  25
ATOM     25  C   UNL     1       0.968   9.913  22.004  0.00  0.00    +0.000 C 
BRANCH  25  26
ATOM     26  C   UNL     1      -0.074  11.011  21.930  0.00  0.00    +0.000 A 
ATOM     27  C   UNL     1      -0.072  11.926  20.874  0.00  0.00    +0.000 A 
ATOM     28  C   UNL     1      -1.077  12.893  20.774  0.00  0.00    +0.000 A 
ATOM     29  C   UNL     1      -2.115  12.951  21.716  0.00  0.00    +0.000 A 
ATOM     30  C   UNL     1      -3.171  13.870  21.591  0.00  0.00    +0.000 A 
ATOM     31  C   UNL     1      -4.213  13.890  22.520  0.00  0.00    +0.000 A 
ATOM     32  C   UNL     1      -4.203  13.007  23.596  0.00  0.00    +0.000 A 
ATOM     33  C   UNL     1      -3.153  12.100  23.743  0.00  0.00    +0.000 A 
ATOM     34  C   UNL     1      -2.108  12.053  22.804  0.00  0.00    +0.000 A 
ATOM     35  C   UNL     1      -1.072  11.111  22.912  0.00  0.00    +0.000 A 
ENDBRANCH  25  26
ENDBRANCH  23  25
ENDBRANCH  20  23
ENDBRANCH  19  20
ENDBRANCH   1  19
TORSDOF 10
ENDMDL
MODEL 6
REMARK VINA RESULT:      -7.7      1.432      1.634
REMARK  Name = 
REMARK  12 active torsions:
REMARK  status: ('A' for Active; 'I' for Inactive)
REMARK    1  A    between atoms: C_1  and  C_2
REMARK    2  A    between atoms: C_2  and  C_3
REMARK    3  A    between atoms: C_2  and  C_4
REMARK    4  A    between atoms: C_2  and  N_15
REMARK    5  A    between atoms: C_4  and  C_5
REMARK    6  A    between atoms: N_15  and  C_16
REMARK    7  A    between atoms: C_16  and  C_17
REMARK    8  A    between atoms: C_17  and  O_18
REMARK    9  A    between atoms: C_17  and  C_19
REMARK   10  A    between atoms: N_23  and  C_24
REMARK   11  A    between atoms: C_24  and  C_25
REMARK   12  A    between atoms: C_29  and  N_30
REMARK                            x       y       z     vdW  Elec       q    Type
REMARK                         _______ _______ _______ _____ _____    ______ ____
ROOT
ATOM      1  C   UNL     1       2.677   7.029  19.479  0.00  0.00    +0.000 C 
ENDROOT
BRANCH   1   2
ATOM      2  C   UNL     1       3.216   5.570  19.602  0.00  0.00    +0.000 C 
ATOM      3  C   UNL     1       2.566   4.836  20.774  0.00  0.00    +0.000 C 
ATOM      4  C   UNL     1       1.268   4.323  20.186  0.00  0.00    +0.000 C 
ATOM      5  C   UNL     1       1.544   4.176  18.695  0.00  0.00    +0.000 C 
ATOM      6  N   UNL     1       2.892   4.720  18.425  0.00  0.00    +0.000 NA
BRANCH   6   7
ATOM      7  C   UNL     1       3.903   3.653  18.254  0.00  0.00    +0.000 C 
BRANCH   7   8
ATOM      8  C   UNL     1       5.165   4.118  17.549  0.00  0.00    +0.000 A 
ATOM      9  C   UNL     1       6.315   4.422  18.295  0.00  0.00    +0.000 A 
ATOM     10  C   UNL     1       7.508   4.787  17.664  0.00  0.00    +0.000 A 
ATOM     11  C   UNL     1       7.575   4.834  16.273  0.00  0.00    +0.000 A 
ATOM     12  C   UNL     1       6.431   4.535  15.520  0.00  0.00    +0.000 A 
ATOM     13  C   UNL     1       5.221   4.210  16.149  0.00  0.00    +0.000 A 
BRANCH  12  14
ATOM     14  N   UNL     1       6.526   4.503  14.053  0.00  0.00    +0.000 N 
ATOM     15  O   UNL     1       5.756   3.756  13.441  0.00  0.00    +0.000 OA
ATOM     16  O   UNL     1       7.364   5.245  13.517  0.00  0.00    +0.000 OA
ENDBRANCH  12  14
ENDBRANCH   7   8
ENDBRANCH   6   7
ENDBRANCH   1   2
BRANCH   1  17
ATOM     17  O   UNL     1       2.005   7.163  18.216  0.00  0.00    +0.000 OA
ATOM     18  H   UNL     1       1.856   6.267  17.868  0.00  0.00    +0.000 HD
ENDBRANCH   1  17
BRANCH   1  19
ATOM     19  C   UNL     1       1.718   7.366  20.648  0.00  0.00    +0.000 C 
BRANCH  19  20
ATOM     20  N   UNL     1       0.773   8.444  20.309  0.00  0.00    +0.000 NA
ATOM     21  H   UNL     1       1.101   8.916  19.465  0.00  0.00    +0.000 HD
BRANCH  20  23
ATOM     22  C   UNL     1       1.811   9.436  22.245  0.00  0.00    +0.000 C 
ATOM     23  C   UNL     1       0.527   9.447  21.384  0.00  0.00    +0.000 C 
ATOM     24  C   UNL     1      -0.648   8.998  22.280  0.00  0.00    +0.000 C 
BRANCH  23  25
ATOM     25  C   UNL     1       0.291  10.860  20.766  0.00  0.00    +0.000 C 
BRANCH  25  26
ATOM     26  C   UNL     1      -0.964  11.038  19.933  0.00  0.00    +0.000 A 
ATOM     27  C   UNL     1      -2.004  11.859  20.377  0.00  0.00    +0.000 A 
ATOM     28  C   UNL     1      -3.127  12.075  19.573  0.00  0.00    +0.000 A 
ATOM     29  C   UNL     1      -3.224  11.490  18.301  0.00  0.00    +0.000 A 
ATOM     30  C   UNL     1      -4.312  11.752  17.452  0.00  0.00    +0.000 A 
ATOM     31  C   UNL     1      -4.374  11.188  16.177  0.00  0.00    +0.000 A 
ATOM     32  C   UNL     1      -3.361  10.339  15.741  0.00  0.00    +0.000 A 
ATOM     33  C   UNL     1      -2.282  10.055  16.579  0.00  0.00    +0.000 A 
ATOM     34  C   UNL     1      -2.194  10.633  17.857  0.00  0.00    +0.000 A 
ATOM     35  C   UNL     1      -1.089  10.397  18.691  0.00  0.00    +0.000 A 
ENDBRANCH  25  26
ENDBRANCH  23  25
ENDBRANCH  20  23
ENDBRANCH  19  20
ENDBRANCH   1  19
TORSDOF 10
ENDMDL
MODEL 7
REMARK VINA RESULT:      -7.6      2.040      2.786
REMARK  Name = 
REMARK  12 active torsions:
REMARK  status: ('A' for Active; 'I' for Inactive)
REMARK    1  A    between atoms: C_1  and  C_2
REMARK    2  A    between atoms: C_2  and  C_3
REMARK    3  A    between atoms: C_2  and  C_4
REMARK    4  A    between atoms: C_2  and  N_15
REMARK    5  A    between atoms: C_4  and  C_5
REMARK    6  A    between atoms: N_15  and  C_16
REMARK    7  A    between atoms: C_16  and  C_17
REMARK    8  A    between atoms: C_17  and  O_18
REMARK    9  A    between atoms: C_17  and  C_19
REMARK   10  A    between atoms: N_23  and  C_24
REMARK   11  A    between atoms: C_24  and  C_25
REMARK   12  A    between atoms: C_29  and  N_30
REMARK                            x       y       z     vdW  Elec       q    Type
REMARK                         _______ _______ _______ _____ _____    ______ ____
ROOT
ATOM      1  C   UNL     1       1.745   5.359  19.619  0.00  0.00    +0.000 C 
ENDROOT
BRANCH   1   2
ATOM      2  C   UNL     1       2.869   4.278  19.599  0.00  0.00    +0.000 C 
ATOM      3  C   UNL     1       2.561   3.139  20.571  0.00  0.00    +0.000 C 
ATOM      4  C   UNL     1       1.654   2.232  19.766  0.00  0.00    +0.000 C 
ATOM      5  C   UNL     1       2.032   2.487  18.313  0.00  0.00    +0.000 C 
ATOM      6  N   UNL     1       3.009   3.597  18.284  0.00  0.00    +0.000 NA
BRANCH   6   7
ATOM      7  C   UNL     1       4.395   3.118  18.086  0.00  0.00    +0.000 C 
BRANCH   7   8
ATOM      8  C   UNL     1       5.322   4.165  17.493  0.00  0.00    +0.000 A 
ATOM      9  C   UNL     1       5.864   5.167  18.313  0.00  0.00    +0.000 A 
ATOM     10  C   UNL     1       6.772   6.102  17.804  0.00  0.00    +0.000 A 
ATOM     11  C   UNL     1       7.167   6.035  16.470  0.00  0.00    +0.000 A 
ATOM     12  C   UNL     1       6.628   5.040  15.643  0.00  0.00    +0.000 A 
ATOM     13  C   UNL     1       5.685   4.128  16.138  0.00  0.00    +0.000 A 
BRANCH  12  14
ATOM     14  N   UNL     1       7.109   4.919  14.259  0.00  0.00    +0.000 N 
ATOM     15  O   UNL     1       8.046   5.642  13.908  0.00  0.00    +0.000 OA
ATOM     16  O   UNL     1       6.553   4.081  13.531  0.00  0.00    +0.000 OA
ENDBRANCH  12  14
ENDBRANCH   7   8
ENDBRANCH   6   7
ENDBRANCH   1   2
BRANCH   1  17
ATOM     17  O   UNL     1       0.810   5.028  20.659  0.00  0.00    +0.000 OA
ATOM     18  H   UNL     1       0.860   5.730  21.330  0.00  0.00    +0.000 HD
ENDBRANCH   1  17
BRANCH   1  19
ATOM     19  C   UNL     1       2.338   6.772  19.847  0.00  0.00    +0.000 C 
BRANCH  19  20
ATOM     20  N   UNL     1       1.878   7.381  21.107  0.00  0.00    +0.000 NA
ATOM     21  H   UNL     1       1.401   6.669  21.661  0.00  0.00    +0.000 HD
BRANCH  20  23
ATOM     22  C   UNL     1       1.581   9.625  21.937  0.00  0.00    +0.000 C 
ATOM     23  C   UNL     1       1.001   8.577  20.960  0.00  0.00    +0.000 C 
ATOM     24  C   UNL     1      -0.438   8.249  21.416  0.00  0.00    +0.000 C 
BRANCH  23  25
ATOM     25  C   UNL     1       1.047   9.109  19.493  0.00  0.00    +0.000 C 
BRANCH  25  26
ATOM     26  C   UNL     1       0.671  10.562  19.282  0.00  0.00    +0.000 A 
ATOM     27  C   UNL     1      -0.657  10.980  19.403  0.00  0.00    +0.000 A 
ATOM     28  C   UNL     1      -0.988  12.331  19.278  0.00  0.00    +0.000 A 
ATOM     29  C   UNL     1       0.005  13.297  19.049  0.00  0.00    +0.000 A 
ATOM     30  C   UNL     1      -0.300  14.667  18.990  0.00  0.00    +0.000 A 
ATOM     31  C   UNL     1       0.707  15.614  18.796  0.00  0.00    +0.000 A 
ATOM     32  C   UNL     1       2.027  15.204  18.637  0.00  0.00    +0.000 A 
ATOM     33  C   UNL     1       2.344  13.846  18.675  0.00  0.00    +0.000 A 
ATOM     34  C   UNL     1       1.345  12.882  18.892  0.00  0.00    +0.000 A 
ATOM     35  C   UNL     1       1.657  11.516  18.985  0.00  0.00    +0.000 A 
ENDBRANCH  25  26
ENDBRANCH  23  25
ENDBRANCH  20  23
ENDBRANCH  19  20
ENDBRANCH   1  19
TORSDOF 10
ENDMDL
MODEL 8
REMARK VINA RESULT:      -7.6      1.528      2.127
REMARK  Name = 
REMARK  12 active torsions:
REMARK  status: ('A' for Active; 'I' for Inactive)
REMARK    1  A    between atoms: C_1  and  C_2
REMARK    2  A    between atoms: C_2  and  C_3
REMARK    3  A    between atoms: C_2  and  C_4
REMARK    4  A    between atoms: C_2  and  N_15
REMARK    5  A    between atoms: C_4  and  C_5
REMARK    6  A    between atoms: N_15  and  C_16
REMARK    7  A    between atoms: C_16  and  C_17
REMARK    8  A    between atoms: C_17  and  O_18
REMARK    9  A    between atoms: C_17  and  C_19
REMARK   10  A    between atoms: N_23  and  C_24
REMARK   11  A    between atoms: C_24  and  C_25
REMARK   12  A    between atoms: C_29  and  N_30
REMARK                            x       y       z     vdW  Elec       q    Type
REMARK                         _______ _______ _______ _____ _____    ______ ____
ROOT
ATOM      1  C   UNL     1       1.686   6.213  20.292  0.00  0.00    +0.000 C 
ENDROOT
BRANCH   1   2
ATOM      2  C   UNL     1       2.626   4.974  20.405  0.00  0.00    +0.000 C 
ATOM      3  C   UNL     1       2.006   3.886  21.281  0.00  0.00    +0.000 C 
ATOM      4  C   UNL     1       1.109   3.135  20.319  0.00  0.00    +0.000 C 
ATOM      5  C   UNL     1       1.740   3.345  18.949  0.00  0.00    +0.000 C 
ATOM      6  N   UNL     1       2.864   4.293  19.105  0.00  0.00    +0.000 NA
BRANCH   6   7
ATOM      7  C   UNL     1       4.177   3.610  19.102  0.00  0.00    +0.000 C 
BRANCH   7   8
ATOM      8  C   UNL     1       5.275   4.408  18.420  0.00  0.00    +0.000 A 
ATOM      9  C   UNL     1       6.091   5.266  19.175  0.00  0.00    +0.000 A 
ATOM     10  C   UNL     1       7.151   5.960  18.582  0.00  0.00    +0.000 A 
ATOM     11  C   UNL     1       7.424   5.789  17.226  0.00  0.00    +0.000 A 
ATOM     12  C   UNL     1       6.613   4.936  16.464  0.00  0.00    +0.000 A 
ATOM     13  C   UNL     1       5.523   4.273  17.045  0.00  0.00    +0.000 A 
BRANCH  12  14
ATOM     14  N   UNL     1       6.953   4.692  15.055  0.00  0.00    +0.000 N 
ATOM     15  O   UNL     1       6.351   3.791  14.463  0.00  0.00    +0.000 OA
ATOM     16  O   UNL     1       7.815   5.422  14.539  0.00  0.00    +0.000 OA
ENDBRANCH  12  14
ENDBRANCH   7   8
ENDBRANCH   6   7
ENDBRANCH   1   2
BRANCH   1  17
ATOM     17  O   UNL     1       1.454   6.734  21.612  0.00  0.00    +0.000 OA
ATOM     18  H   UNL     1       0.501   6.666  21.788  0.00  0.00    +0.000 HD
ENDBRANCH   1  17
BRANCH   1  19
ATOM     19  C   UNL     1       2.307   7.299  19.377  0.00  0.00    +0.000 C 
BRANCH  19  20
ATOM     20  N   UNL     1       1.601   8.588  19.472  0.00  0.00    +0.000 NA
ATOM     21  H   UNL     1       0.640   8.416  19.772  0.00  0.00    +0.000 HD
BRANCH  20  23
ATOM     22  C   UNL     1       2.723   8.819  17.351  0.00  0.00    +0.000 C 
ATOM     23  C   UNL     1       1.601   9.415  18.232  0.00  0.00    +0.000 C 
ATOM     24  C   UNL     1       1.981  10.876  18.558  0.00  0.00    +0.000 C 
BRANCH  23  25
ATOM     25  C   UNL     1       0.221   9.311  17.509  0.00  0.00    +0.000 C 
BRANCH  25  26
ATOM     26  C   UNL     1      -0.924  10.100  18.114  0.00  0.00    +0.000 A 
ATOM     27  C   UNL     1      -0.732  10.869  19.264  0.00  0.00    +0.000 A 
ATOM     28  C   UNL     1      -1.772  11.648  19.776  0.00  0.00    +0.000 A 
ATOM     29  C   UNL     1      -3.021  11.692  19.137  0.00  0.00    +0.000 A 
ATOM     30  C   UNL     1      -4.055  12.524  19.597  0.00  0.00    +0.000 A 
ATOM     31  C   UNL     1      -5.278  12.578  18.927  0.00  0.00    +0.000 A 
ATOM     32  C   UNL     1      -5.492  11.787  17.801  0.00  0.00    +0.000 A 
ATOM     33  C   UNL     1      -4.481  10.943  17.342  0.00  0.00    +0.000 A 
ATOM     34  C   UNL     1      -3.236  10.893  17.993  0.00  0.00    +0.000 A 
ATOM     35  C   UNL     1      -2.192  10.087  17.511  0.00  0.00    +0.000 A 
ENDBRANCH  25  26
ENDBRANCH  23  25
ENDBRANCH  20  23
ENDBRANCH  19  20
ENDBRANCH   1  19
TORSDOF 10
ENDMDL
MODEL 9
REMARK VINA RESULT:      -7.5      1.451      1.664
REMARK  Name = 
REMARK  12 active torsions:
REMARK  status: ('A' for Active; 'I' for Inactive)
REMARK    1  A    between atoms: C_1  and  C_2
REMARK    2  A    between atoms: C_2  and  C_3
REMARK    3  A    between atoms: C_2  and  C_4
REMARK    4  A    between atoms: C_2  and  N_15
REMARK    5  A    between atoms: C_4  and  C_5
REMARK    6  A    between atoms: N_15  and  C_16
REMARK    7  A    between atoms: C_16  and  C_17
REMARK    8  A    between atoms: C_17  and  O_18
REMARK    9  A    between atoms: C_17  and  C_19
REMARK   10  A    between atoms: N_23  and  C_24
REMARK   11  A    between atoms: C_24  and  C_25
REMARK   12  A    between atoms: C_29  and  N_30
REMARK                            x       y       z     vdW  Elec       q    Type
REMARK                         _______ _______ _______ _____ _____    ______ ____
ROOT
ATOM      1  C   UNL     1       3.184   6.938  18.952  0.00  0.00    +0.000 C 
ENDROOT
BRANCH   1   2
ATOM      2  C   UNL     1       3.580   5.437  18.804  0.00  0.00    +0.000 C 
ATOM      3  C   UNL     1       2.934   4.583  19.895  0.00  0.00    +0.000 C 
ATOM      4  C   UNL     1       1.557   4.290  19.336  0.00  0.00    +0.000 C 
ATOM      5  C   UNL     1       1.723   4.364  17.823  0.00  0.00    +0.000 C 
ATOM      6  N   UNL     1       3.100   4.822  17.538  0.00  0.00    +0.000 NA
BRANCH   6   7
ATOM      7  C   UNL     1       3.986   3.710  17.126  0.00  0.00    +0.000 C 
BRANCH   7   8
ATOM      8  C   UNL     1       5.168   4.155  16.281  0.00  0.00    +0.000 A 
ATOM      9  C   UNL     1       6.270   4.776  16.888  0.00  0.00    +0.000 A 
ATOM     10  C   UNL     1       7.398   5.134  16.142  0.00  0.00    +0.000 A 
ATOM     11  C   UNL     1       7.446   4.857  14.778  0.00  0.00    +0.000 A 
ATOM     12  C   UNL     1       6.349   4.241  14.162  0.00  0.00    +0.000 A 
ATOM     13  C   UNL     1       5.200   3.919  14.898  0.00  0.00    +0.000 A 
BRANCH  12  14
ATOM     14  N   UNL     1       6.436   3.873  12.741  0.00  0.00    +0.000 N 
ATOM     15  O   UNL     1       5.703   2.967  12.333  0.00  0.00    +0.000 OA
ATOM     16  O   UNL     1       7.231   4.511  12.032  0.00  0.00    +0.000 OA
ENDBRANCH  12  14
ENDBRANCH   7   8
ENDBRANCH   6   7
ENDBRANCH   1   2
BRANCH   1  17
ATOM     17  O   UNL     1       3.093   7.518  17.640  0.00  0.00    +0.000 OA
ATOM     18  H   UNL     1       2.605   8.355  17.724  0.00  0.00    +0.000 HD
ENDBRANCH   1  17
BRANCH   1  19
ATOM     19  C   UNL     1       1.841   7.086  19.710  0.00  0.00    +0.000 C 
BRANCH  19  20
ATOM     20  N   UNL     1       1.989   7.809  20.985  0.00  0.00    +0.000 NA
ATOM     21  H   UNL     1       1.954   7.135  21.751  0.00  0.00    +0.000 HD
BRANCH  20  23
ATOM     22  C   UNL     1       1.419   9.533  22.571  0.00  0.00    +0.000 C 
ATOM     23  C   UNL     1       1.000   8.898  21.226  0.00  0.00    +0.000 C 
ATOM     24  C   UNL     1      -0.417   8.309  21.401  0.00  0.00    +0.000 C 
BRANCH  23  25
ATOM     25  C   UNL     1       1.062   9.953  20.076  0.00  0.00    +0.000 C 
BRANCH  25  26
ATOM     26  C   UNL     1      -0.256  10.346  19.441  0.00  0.00    +0.000 A 
ATOM     27  C   UNL     1      -1.089  11.289  20.052  0.00  0.00    +0.000 A 
ATOM     28  C   UNL     1      -2.269  11.700  19.427  0.00  0.00    +0.000 A 
ATOM     29  C   UNL     1      -2.632  11.193  18.170  0.00  0.00    +0.000 A 
ATOM     30  C   UNL     1      -3.778  11.647  17.496  0.00  0.00    +0.000 A 
ATOM     31  C   UNL     1      -4.104  11.155  16.231  0.00  0.00    +0.000 A 
ATOM     32  C   UNL     1      -3.301  10.188  15.632  0.00  0.00    +0.000 A 
ATOM     33  C   UNL     1      -2.169   9.714  16.296  0.00  0.00    +0.000 A 
ATOM     34  C   UNL     1      -1.815  10.216  17.560  0.00  0.00    +0.000 A 
ATOM     35  C   UNL     1      -0.651   9.786  18.217  0.00  0.00    +0.000 A 
ENDBRANCH  25  26
ENDBRANCH  23  25
ENDBRANCH  20  23
ENDBRANCH  19  20
ENDBRANCH   1  19
TORSDOF 10
ENDMDL
