MODEL 1
REMARK VINA RESULT:      -7.5      0.000      0.000
REMARK  Name = 
REMARK  6 active torsions:
REMARK  status: ('A' for Active; 'I' for Inactive)
REMARK    1  A    between atoms: C_1  and  C_2
REMARK    2  A    between atoms: C_7  and  N_8
REMARK    3  A    between atoms: C_9  and  C_11
REMARK    4  A    between atoms: C_11  and  N_12
REMARK    5  A    between atoms: N_15  and  C_16
REMARK    6  A    between atoms: C_16  and  C_17
REMARK                            x       y       z     vdW  Elec       q    Type
REMARK                         _______ _______ _______ _____ _____    ______ ____
ROOT
ATOM      1  N   UNL     1       1.997   8.392  19.230  0.00  0.00    +0.000 N 
ATOM      2  C   UNL     1       2.416   8.556  17.853  0.00  0.00    +0.000 C 
ATOM      3  C   UNL     1       3.350   7.371  17.643  0.00  0.00    +0.000 C 
ATOM      4  N   UNL     1       2.896   6.427  18.641  0.00  0.00    +0.000 N 
ATOM      5  C   UNL     1       2.196   7.079  19.647  0.00  0.00    +0.000 C 
ATOM      6  O   UNL     1       1.766   6.592  20.680  0.00  0.00    +0.000 OA
ENDROOT
BRANCH   1   7
ATOM      7  C   UNL     1       1.121   9.333  19.907  0.00  0.00    +0.000 C 
BRANCH   7   9
ATOM      8  N   UNL     1      -0.876   9.867  18.598  0.00  0.00    +0.000 N 
ATOM      9  C   UNL     1       0.385  10.287  18.946  0.00  0.00    +0.000 C 
ATOM     10  O   UNL     1       0.869  11.367  18.604  0.00  0.00    +0.000 OA
ATOM     11  H   UNL     1      -1.150   8.915  18.856  0.00  0.00    +0.000 HD
BRANCH   8  18
ATOM     12  C   UNL     1      -2.653  12.029  19.652  0.00  0.00    +0.000 C 
ATOM     13  C   UNL     1      -3.010  11.134  18.464  0.00  0.00    +0.000 C 
ATOM     14  C   UNL     1      -3.934  11.900  17.503  0.00  0.00    +0.000 C 
ATOM     15  C   UNL     1      -4.324  11.051  16.297  0.00  0.00    +0.000 C 
ATOM     16  C   UNL     1      -3.095  10.528  15.563  0.00  0.00    +0.000 C 
ATOM     17  C   UNL     1      -2.157   9.775  16.500  0.00  0.00    +0.000 C 
ATOM     18  C   UNL     1      -1.753  10.627  17.717  0.00  0.00    +0.000 C 
ENDBRANCH   8  18
ENDBRANCH   7   9
ENDBRANCH   1   7
BRANCH   4  19
ATOM     19  C   UNL     1       3.329   5.049  18.689  0.00  0.00    +0.000 C 
BRANCH  19  20
ATOM     20  C   UNL     1       4.710   4.836  18.098  0.00  0.00    +0.000 A 
ATOM     21  C   UNL     1       5.867   5.174  18.816  0.00  0.00    +0.000 A 
ATOM     22  C   UNL     1       7.129   5.085  18.224  0.00  0.00    +0.000 A 
ATOM     23  C   UNL     1       7.252   4.656  16.902  0.00  0.00    +0.000 A 
ATOM     24  C   UNL     1       6.116   4.297  16.188  0.00  0.00    +0.000 A 
ATOM     25 CL   UNL     1       6.260   3.767  14.559  0.00  0.00    +0.000 Cl
ATOM     26  C   UNL     1       4.851   4.378  16.775  0.00  0.00    +0.000 A 
ENDBRANCH  19  20
ENDBRANCH   4  19
TORSDOF 5
ENDMDL
MODEL 2
REMARK VINA RESULT:      -7.4      6.119      8.741
REMARK  Name = 
REMARK  6 active torsions:
REMARK  status: ('A' for Active; 'I' for Inactive)
REMARK    1  A    between atoms: C_1  and  C_2
REMARK    2  A    between atoms: C_7  and  N_8
REMARK    3  A    between atoms: C_9  and  C_11
REMARK    4  A    between atoms: C_11  and  N_12
REMARK    5  A    between atoms: N_15  and  C_16
REMARK    6  A    between atoms: C_16  and  C_17
REMARK                            x       y       z     vdW  Elec       q    Type
REMARK                         _______ _______ _______ _____ _____    ______ ____
ROOT
ATOM      1  N   UNL     1       7.244   6.832  18.142  0.00  0.00    +0.000 N 
ATOM      2  C   UNL     1       7.253   5.801  19.159  0.00  0.00    +0.000 C 
ATOM      3  C   UNL     1       5.803   5.336  19.179  0.00  0.00    +0.000 C 
ATOM      4  N   UNL     1       5.336   5.695  17.858  0.00  0.00    +0.000 N 
ATOM      5  C   UNL     1       6.140   6.684  17.307  0.00  0.00    +0.000 C 
ATOM      6  O   UNL     1       5.964   7.274  16.254  0.00  0.00    +0.000 OA
ENDROOT
BRANCH   1   7
ATOM      7  C   UNL     1       8.420   7.615  17.799  0.00  0.00    +0.000 C 
BRANCH   7   9
ATOM      8  N   UNL     1       9.193   9.530  19.112  0.00  0.00    +0.000 N 
ATOM      9  C   UNL     1       8.291   9.107  18.165  0.00  0.00    +0.000 C 
ATOM     10  O   UNL     1       7.504   9.854  17.583  0.00  0.00    +0.000 OA
ATOM     11  H   UNL     1       9.741   8.817  19.602  0.00  0.00    +0.000 HD
BRANCH   8  18
ATOM     12  C   UNL     1      10.765  11.611  17.649  0.00  0.00    +0.000 C 
ATOM     13  C   UNL     1      10.584  11.588  19.168  0.00  0.00    +0.000 C 
ATOM     14  C   UNL     1      10.644  13.025  19.714  0.00  0.00    +0.000 C 
ATOM     15  C   UNL     1      10.471  13.061  21.229  0.00  0.00    +0.000 C 
ATOM     16  C   UNL     1       9.180  12.373  21.659  0.00  0.00    +0.000 C 
ATOM     17  C   UNL     1       9.093  10.951  21.117  0.00  0.00    +0.000 C 
ATOM     18  C   UNL     1       9.261  10.905  19.588  0.00  0.00    +0.000 C 
ENDBRANCH   8  18
ENDBRANCH   7   9
ENDBRANCH   1   7
BRANCH   4  19
ATOM     19  C   UNL     1       4.072   5.253  17.313  0.00  0.00    +0.000 C 
BRANCH  19  20
ATOM     20  C   UNL     1       3.513   4.031  18.017  0.00  0.00    +0.000 A 
ATOM     21  C   UNL     1       3.839   2.734  17.589  0.00  0.00    +0.000 A 
ATOM     22  C   UNL     1       3.231   1.616  18.165  0.00  0.00    +0.000 A 
ATOM     23  C   UNL     1       2.287   1.779  19.180  0.00  0.00    +0.000 A 
ATOM     24  C   UNL     1       1.973   3.056  19.628  0.00  0.00    +0.000 A 
ATOM     25 CL   UNL     1       0.810   3.265  20.877  0.00  0.00    +0.000 Cl
ATOM     26  C   UNL     1       2.581   4.179  19.059  0.00  0.00    +0.000 A 
ENDBRANCH  19  20
ENDBRANCH   4  19
TORSDOF 5
ENDMDL
MODEL 3
REMARK VINA RESULT:      -7.3      5.423      8.825
REMARK  Name = 
REMARK  6 active torsions:
REMARK  status: ('A' for Active; 'I' for Inactive)
REMARK    1  A    between atoms: C_1  and  C_2
REMARK    2  A    between atoms: C_7  and  N_8
REMARK    3  A    between atoms: C_9  and  C_11
REMARK    4  A    between atoms: C_11  and  N_12
REMARK    5  A    between atoms: N_15  and  C_16
REMARK    6  A    between atoms: C_16  and  C_17
REMARK                            x       y       z     vdW  Elec       q    Type
REMARK                         _______ _______ _______ _____ _____    ______ ____
ROOT
ATOM      1  N   UNL     1       7.327   6.843  18.015  0.00  0.00    +0.000 N 
ATOM      2  C   UNL     1       7.554   5.867  19.061  0.00  0.00    +0.000 C 
ATOM      3  C   UNL     1       6.177   5.238  19.237  0.00  0.00    +0.000 C 
ATOM      4  N   UNL     1       5.551   5.481  17.956  0.00  0.00    +0.000 N 
ATOM      5  C   UNL     1       6.176   6.530  17.297  0.00  0.00    +0.000 C 
ATOM      6  O   UNL     1       5.835   7.049  16.247  0.00  0.00    +0.000 OA
ENDROOT
BRANCH   1   7
ATOM      7  C   UNL     1       8.364   7.741  17.534  0.00  0.00    +0.000 C 
BRANCH   7   9
ATOM      8  N   UNL     1       9.199   9.603  18.885  0.00  0.00    +0.000 N 
ATOM      9  C   UNL     1       8.201   9.190  18.034  0.00  0.00    +0.000 C 
ATOM     10  O   UNL     1       7.300   9.922  17.625  0.00  0.00    +0.000 OA
ATOM     11  H   UNL     1       9.849   8.895  19.238  0.00  0.00    +0.000 HD
BRANCH   8  18
ATOM     12  C   UNL     1      10.745  11.801  17.575  0.00  0.00    +0.000 C 
ATOM     13  C   UNL     1      10.567  11.667  19.088  0.00  0.00    +0.000 C 
ATOM     14  C   UNL     1      10.612  13.061  19.736  0.00  0.00    +0.000 C 
ATOM     15  C   UNL     1      10.440  12.986  21.250  0.00  0.00    +0.000 C 
ATOM     16  C   UNL     1       9.159  12.255  21.630  0.00  0.00    +0.000 C 
ATOM     17  C   UNL     1       9.086  10.874  20.988  0.00  0.00    +0.000 C 
ATOM     18  C   UNL     1       9.252  10.941  19.459  0.00  0.00    +0.000 C 
ENDBRANCH   8  18
ENDBRANCH   7   9
ENDBRANCH   1   7
BRANCH   4  19
ATOM     19  C   UNL     1       4.305   4.871  17.551  0.00  0.00    +0.000 C 
BRANCH  19  20
ATOM     20  C   UNL     1       3.276   4.817  18.666  0.00  0.00    +0.000 A 
ATOM     21  C   UNL     1       2.639   3.615  19.008  0.00  0.00    +0.000 A 
ATOM     22  C   UNL     1       1.610   3.592  19.953  0.00  0.00    +0.000 A 
ATOM     23  C   UNL     1       1.205   4.776  20.572  0.00  0.00    +0.000 A 
ATOM     24  C   UNL     1       1.844   5.969  20.259  0.00  0.00    +0.000 A 
ATOM     25 CL   UNL     1       1.348   7.430  21.017  0.00  0.00    +0.000 Cl
ATOM     26  C   UNL     1       2.876   5.998  19.317  0.00  0.00    +0.000 A 
ENDBRANCH  19  20
ENDBRANCH   4  19
TORSDOF 5
ENDMDL
MODEL 4
REMARK VINA RESULT:      -7.2      2.278      2.930
REMARK  Name = 
REMARK  6 active torsions:
REMARK  status: ('A' for Active; 'I' for Inactive)
REMARK    1  A    between atoms: C_1  and  C_2
REMARK    2  A    between atoms: C_7  and  N_8
REMARK    3  A    between atoms: C_9  and  C_11
REMARK    4  A    between atoms: C_11  and  N_12
REMARK    5  A    between atoms: N_15  and  C_16
REMARK    6  A    between atoms: C_16  and  C_17
REMARK                            x       y       z     vdW  Elec       q    Type
REMARK                         _______ _______ _______ _____ _____    ______ ____
ROOT
ATOM      1  N   UNL     1       1.227   9.010  20.096  0.00  0.00    +0.000 N 
ATOM      2  C   UNL     1       1.303   8.007  21.138  0.00  0.00    +0.000 C 
ATOM      3  C   UNL     1       1.659   6.745  20.362  0.00  0.00    +0.000 C 
ATOM      4  N   UNL     1       2.292   7.270  19.173  0.00  0.00    +0.000 N 
ATOM      5  C   UNL     1       1.918   8.591  18.963  0.00  0.00    +0.000 C 
ATOM      6  O   UNL     1       2.195   9.291  18.003  0.00  0.00    +0.000 OA
ENDROOT
BRANCH   1   7
ATOM      7  C   UNL     1       0.859  10.393  20.355  0.00  0.00    +0.000 C 
BRANCH   7   9
ATOM      8  N   UNL     1      -1.106  10.507  18.900  0.00  0.00    +0.000 N 
ATOM      9  C   UNL     1       0.120  11.062  19.179  0.00  0.00    +0.000 C 
ATOM     10  O   UNL     1       0.569  12.059  18.613  0.00  0.00    +0.000 OA
ATOM     11  H   UNL     1      -1.348   9.626  19.362  0.00  0.00    +0.000 HD
BRANCH   8  18
ATOM     12  C   UNL     1      -3.489  12.207  19.511  0.00  0.00    +0.000 C 
ATOM     13  C   UNL     1      -3.425  11.210  18.352  0.00  0.00    +0.000 C 
ATOM     14  C   UNL     1      -4.333  11.694  17.208  0.00  0.00    +0.000 C 
ATOM     15  C   UNL     1      -4.309  10.733  16.024  0.00  0.00    +0.000 C 
ATOM     16  C   UNL     1      -2.888  10.499  15.525  0.00  0.00    +0.000 C 
ATOM     17  C   UNL     1      -1.967  10.031  16.646  0.00  0.00    +0.000 C 
ATOM     18  C   UNL     1      -1.980  10.999  17.843  0.00  0.00    +0.000 C 
ENDBRANCH   8  18
ENDBRANCH   7   9
ENDBRANCH   1   7
BRANCH   4  19
ATOM     19  C   UNL     1       3.008   6.450  18.223  0.00  0.00    +0.000 C 
BRANCH  19  20
ATOM     20  C   UNL     1       2.795   4.963  18.439  0.00  0.00    +0.000 A 
ATOM     21  C   UNL     1       1.647   4.317  17.954  0.00  0.00    +0.000 A 
ATOM     22  C   UNL     1       1.399   2.975  18.255  0.00  0.00    +0.000 A 
ATOM     23  C   UNL     1       2.298   2.259  19.046  0.00  0.00    +0.000 A 
ATOM     24  C   UNL     1       3.450   2.881  19.512  0.00  0.00    +0.000 A 
ATOM     25 CL   UNL     1       4.561   2.005  20.488  0.00  0.00    +0.000 Cl
ATOM     26  C   UNL     1       3.706   4.222  19.212  0.00  0.00    +0.000 A 
ENDBRANCH  19  20
ENDBRANCH   4  19
TORSDOF 5
ENDMDL
MODEL 5
REMARK VINA RESULT:      -7.2      3.484      4.662
REMARK  Name = 
REMARK  6 active torsions:
REMARK  status: ('A' for Active; 'I' for Inactive)
REMARK    1  A    between atoms: C_1  and  C_2
REMARK    2  A    between atoms: C_7  and  N_8
REMARK    3  A    between atoms: C_9  and  C_11
REMARK    4  A    between atoms: C_11  and  N_12
REMARK    5  A    between atoms: N_15  and  C_16
REMARK    6  A    between atoms: C_16  and  C_17
REMARK                            x       y       z     vdW  Elec       q    Type
REMARK                         _______ _______ _______ _____ _____    ______ ____
ROOT
ATOM      1  N   UNL     1       0.925   9.557  19.229  0.00  0.00    +0.000 N 
ATOM      2  C   UNL     1       0.932   9.234  20.641  0.00  0.00    +0.000 C 
ATOM      3  C   UNL     1       1.497   7.819  20.658  0.00  0.00    +0.000 C 
ATOM      4  N   UNL     1       2.249   7.762  19.424  0.00  0.00    +0.000 N 
ATOM      5  C   UNL     1       1.804   8.731  18.535  0.00  0.00    +0.000 C 
ATOM      6  O   UNL     1       2.157   8.887  17.377  0.00  0.00    +0.000 OA
ENDROOT
BRANCH   1   7
ATOM      7  C   UNL     1       0.413  10.814  18.708  0.00  0.00    +0.000 C 
BRANCH   7   9
ATOM      8  N   UNL     1      -1.156  11.888  20.250  0.00  0.00    +0.000 N 
ATOM      9  C   UNL     1       0.143  11.867  19.802  0.00  0.00    +0.000 C 
ATOM     10  O   UNL     1       1.046  12.555  20.278  0.00  0.00    +0.000 OA
ATOM     11  H   UNL     1      -1.850  11.346  19.727  0.00  0.00    +0.000 HD
BRANCH   8  18
ATOM     12  C   UNL     1      -1.269  11.034  23.113  0.00  0.00    +0.000 C 
ATOM     13  C   UNL     1      -2.254  12.015  22.475  0.00  0.00    +0.000 C 
ATOM     14  C   UNL     1      -2.770  12.993  23.545  0.00  0.00    +0.000 C 
ATOM     15  C   UNL     1      -3.761  13.996  22.962  0.00  0.00    +0.000 C 
ATOM     16  C   UNL     1      -3.160  14.752  21.783  0.00  0.00    +0.000 C 
ATOM     17  C   UNL     1      -2.629  13.802  20.715  0.00  0.00    +0.000 C 
ATOM     18  C   UNL     1      -1.623  12.790  21.294  0.00  0.00    +0.000 C 
ENDBRANCH   8  18
ENDBRANCH   7   9
ENDBRANCH   1   7
BRANCH   4  19
ATOM     19  C   UNL     1       3.158   6.688  19.095  0.00  0.00    +0.000 C 
BRANCH  19  20
ATOM     20  C   UNL     1       2.495   5.324  19.092  0.00  0.00    +0.000 A 
ATOM     21  C   UNL     1       1.939   4.789  17.919  0.00  0.00    +0.000 A 
ATOM     22  C   UNL     1       1.228   3.587  17.947  0.00  0.00    +0.000 A 
ATOM     23  C   UNL     1       1.062   2.901  19.151  0.00  0.00    +0.000 A 
ATOM     24  C   UNL     1       1.626   3.408  20.314  0.00  0.00    +0.000 A 
ATOM     25 CL   UNL     1       1.425   2.568  21.800  0.00  0.00    +0.000 Cl
ATOM     26  C   UNL     1       2.343   4.608  20.293  0.00  0.00    +0.000 A 
ENDBRANCH  19  20
ENDBRANCH   4  19
TORSDOF 5
ENDMDL
MODEL 6
REMARK VINA RESULT:      -7.2      1.299      1.704
REMARK  Name = 
REMARK  6 active torsions:
REMARK  status: ('A' for Active; 'I' for Inactive)
REMARK    1  A    between atoms: C_1  and  C_2
REMARK    2  A    between atoms: C_7  and  N_8
REMARK    3  A    between atoms: C_9  and  C_11
REMARK    4  A    between atoms: C_11  and  N_12
REMARK    5  A    between atoms: N_15  and  C_16
REMARK    6  A    between atoms: C_16  and  C_17
REMARK                            x       y       z     vdW  Elec       q    Type
REMARK                         _______ _______ _______ _____ _____    ______ ____
ROOT
ATOM      1  N   UNL     1       1.486   9.361  19.568  0.00  0.00    +0.000 N 
ATOM      2  C   UNL     1       1.792   9.208  18.161  0.00  0.00    +0.000 C 
ATOM      3  C   UNL     1       2.672   7.964  18.143  0.00  0.00    +0.000 C 
ATOM      4  N   UNL     1       2.277   7.278  19.353  0.00  0.00    +0.000 N 
ATOM      5  C   UNL     1       1.682   8.161  20.244  0.00  0.00    +0.000 C 
ATOM      6  O   UNL     1       1.327   7.926  21.387  0.00  0.00    +0.000 OA
ENDROOT
BRANCH   1   7
ATOM      7  C   UNL     1       0.696  10.465  20.089  0.00  0.00    +0.000 C 
BRANCH   7   9
ATOM      8  N   UNL     1      -1.306  10.631  18.689  0.00  0.00    +0.000 N 
ATOM      9  C   UNL     1      -0.102  11.215  19.003  0.00  0.00    +0.000 C 
ATOM     10  O   UNL     1       0.284  12.287  18.537  0.00  0.00    +0.000 OA
ATOM     11  H   UNL     1      -1.493   9.695  19.060  0.00  0.00    +0.000 HD
BRANCH   8  18
ATOM     12  C   UNL     1      -3.698  12.222  19.516  0.00  0.00    +0.000 C 
ATOM     13  C   UNL     1      -3.657  11.322  18.279  0.00  0.00    +0.000 C 
ATOM     14  C   UNL     1      -4.614  11.874  17.210  0.00  0.00    +0.000 C 
ATOM     15  C   UNL     1      -4.614  11.012  15.952  0.00  0.00    +0.000 C 
ATOM     16  C   UNL     1      -3.208  10.850  15.387  0.00  0.00    +0.000 C 
ATOM     17  C   UNL     1      -2.237  10.316  16.435  0.00  0.00    +0.000 C 
ATOM     18  C   UNL     1      -2.226  11.184  17.706  0.00  0.00    +0.000 C 
ENDBRANCH   8  18
ENDBRANCH   7   9
ENDBRANCH   1   7
BRANCH   4  19
ATOM     19  C   UNL     1       2.673   5.924  19.667  0.00  0.00    +0.000 C 
BRANCH  19  20
ATOM     20  C   UNL     1       3.661   5.345  18.670  0.00  0.00    +0.000 A 
ATOM     21  C   UNL     1       3.226   4.570  17.584  0.00  0.00    +0.000 A 
ATOM     22  C   UNL     1       4.144   3.944  16.737  0.00  0.00    +0.000 A 
ATOM     23  C   UNL     1       5.513   4.085  16.965  0.00  0.00    +0.000 A 
ATOM     24  C   UNL     1       5.957   4.868  18.024  0.00  0.00    +0.000 A 
ATOM     25 CL   UNL     1       7.642   5.045  18.311  0.00  0.00    +0.000 Cl
ATOM     26  C   UNL     1       5.044   5.501  18.872  0.00  0.00    +0.000 A 
ENDBRANCH  19  20
ENDBRANCH   4  19
TORSDOF 5
ENDMDL
MODEL 7
REMARK VINA RESULT:      -7.2      3.576      4.993
REMARK  Name = 
REMARK  6 active torsions:
REMARK  status: ('A' for Active; 'I' for Inactive)
REMARK    1  A    between atoms: C_1  and  C_2
REMARK    2  A    between atoms: C_7  and  N_8
REMARK    3  A    between atoms: C_9  and  C_11
REMARK    4  A    between atoms: C_11  and  N_12
REMARK    5  A    between atoms: N_15  and  C_16
REMARK    6  A    between atoms: C_16  and  C_17
REMARK                            x       y       z     vdW  Elec       q    Type
REMARK                         _______ _______ _______ _____ _____    ______ ____
ROOT
ATOM      1  N   UNL     1       0.901   9.424  19.409  0.00  0.00    +0.000 N 
ATOM      2  C   UNL     1       1.006   9.391  17.964  0.00  0.00    +0.000 C 
ATOM      3  C   UNL     1       2.254   8.547  17.738  0.00  0.00    +0.000 C 
ATOM      4  N   UNL     1       2.333   7.764  18.951  0.00  0.00    +0.000 N 
ATOM      5  C   UNL     1       1.619   8.374  19.974  0.00  0.00    +0.000 C 
ATOM      6  O   UNL     1       1.564   8.028  21.143  0.00  0.00    +0.000 OA
ENDROOT
BRANCH   1   7
ATOM      7  C   UNL     1      -0.131  10.170  20.109  0.00  0.00    +0.000 C 
BRANCH   7   9
ATOM      8  N   UNL     1       0.893  12.367  19.770  0.00  0.00    +0.000 N 
ATOM      9  C   UNL     1       0.370  11.503  20.702  0.00  0.00    +0.000 C 
ATOM     10  O   UNL     1       0.222  11.781  21.892  0.00  0.00    +0.000 OA
ATOM     11  H   UNL     1       1.059  12.008  18.825  0.00  0.00    +0.000 HD
BRANCH   8  18
ATOM     12  C   UNL     1      -0.902  14.756  19.869  0.00  0.00    +0.000 C 
ATOM     13  C   UNL     1       0.568  14.809  19.449  0.00  0.00    +0.000 C 
ATOM     14  C   UNL     1       1.150  16.190  19.794  0.00  0.00    +0.000 C 
ATOM     15  C   UNL     1       2.618  16.300  19.394  0.00  0.00    +0.000 C 
ATOM     16  C   UNL     1       3.452  15.189  20.021  0.00  0.00    +0.000 C 
ATOM     17  C   UNL     1       2.884  13.810  19.702  0.00  0.00    +0.000 C 
ATOM     18  C   UNL     1       1.405  13.688  20.109  0.00  0.00    +0.000 C 
ENDBRANCH   8  18
ENDBRANCH   7   9
ENDBRANCH   1   7
BRANCH   4  19
ATOM     19  C   UNL     1       3.230   6.644  19.119  0.00  0.00    +0.000 C 
BRANCH  19  20
ATOM     20  C   UNL     1       2.518   5.303  19.111  0.00  0.00    +0.000 A 
ATOM     21  C   UNL     1       1.976   4.776  17.929  0.00  0.00    +0.000 A 
ATOM     22  C   UNL     1       1.221   3.601  17.948  0.00  0.00    +0.000 A 
ATOM     23  C   UNL     1       0.999   2.933  19.154  0.00  0.00    +0.000 A 
ATOM     24  C   UNL     1       1.549   3.433  20.327  0.00  0.00    +0.000 A 
ATOM     25 CL   UNL     1       1.278   2.616  21.815  0.00  0.00    +0.000 Cl
ATOM     26  C   UNL     1       2.309   4.606  20.314  0.00  0.00    +0.000 A 
ENDBRANCH  19  20
ENDBRANCH   4  19
TORSDOF 5
ENDMDL
MODEL 8
REMARK VINA RESULT:      -7.1      2.400      3.416
REMARK  Name = 
REMARK  6 active torsions:
REMARK  status: ('A' for Active; 'I' for Inactive)
REMARK    1  A    between atoms: C_1  and  C_2
REMARK    2  A    between atoms: C_7  and  N_8
REMARK    3  A    between atoms: C_9  and  C_11
REMARK    4  A    between atoms: C_11  and  N_12
REMARK    5  A    between atoms: N_15  and  C_16
REMARK    6  A    between atoms: C_16  and  C_17
REMARK                            x       y       z     vdW  Elec       q    Type
REMARK                         _______ _______ _______ _____ _____    ______ ____
ROOT
ATOM      1  N   UNL     1       2.060   7.674  20.248  0.00  0.00    +0.000 N 
ATOM      2  C   UNL     1       1.841   8.447  19.042  0.00  0.00    +0.000 C 
ATOM      3  C   UNL     1       2.528   7.604  17.975  0.00  0.00    +0.000 C 
ATOM      4  N   UNL     1       2.509   6.280  18.554  0.00  0.00    +0.000 N 
ATOM      5  C   UNL     1       2.354   6.351  19.932  0.00  0.00    +0.000 C 
ATOM      6  O   UNL     1       2.396   5.426  20.727  0.00  0.00    +0.000 OA
ENDROOT
BRANCH   1   7
ATOM      7  C   UNL     1       1.617   8.115  21.560  0.00  0.00    +0.000 C 
BRANCH   7   9
ATOM      8  N   UNL     1       0.170  10.088  21.618  0.00  0.00    +0.000 N 
ATOM      9  C   UNL     1       0.197   8.715  21.560  0.00  0.00    +0.000 C 
ATOM     10  O   UNL     1      -0.805   8.012  21.430  0.00  0.00    +0.000 OA
ATOM     11  H   UNL     1       1.048  10.574  21.819  0.00  0.00    +0.000 HD
BRANCH   8  18
ATOM     12  C   UNL     1      -0.899  11.286  19.096  0.00  0.00    +0.000 C 
ATOM     13  C   UNL     1      -1.065  11.918  20.479  0.00  0.00    +0.000 C 
ATOM     14  C   UNL     1      -2.364  12.742  20.514  0.00  0.00    +0.000 C 
ATOM     15  C   UNL     1      -2.579  13.398  21.874  0.00  0.00    +0.000 C 
ATOM     16  C   UNL     1      -2.560  12.370  22.999  0.00  0.00    +0.000 C 
ATOM     17  C   UNL     1      -1.286  11.532  22.975  0.00  0.00    +0.000 C 
ATOM     18  C   UNL     1      -1.065  10.860  21.608  0.00  0.00    +0.000 C 
ENDBRANCH   8  18
ENDBRANCH   7   9
ENDBRANCH   1   7
BRANCH   4  19
ATOM     19  C   UNL     1       2.849   5.083  17.818  0.00  0.00    +0.000 C 
BRANCH  19  20
ATOM     20  C   UNL     1       4.325   4.992  17.477  0.00  0.00    +0.000 A 
ATOM     21  C   UNL     1       4.759   4.377  16.293  0.00  0.00    +0.000 A 
ATOM     22  C   UNL     1       6.121   4.192  16.040  0.00  0.00    +0.000 A 
ATOM     23  C   UNL     1       7.069   4.620  16.970  0.00  0.00    +0.000 A 
ATOM     24  C   UNL     1       6.652   5.250  18.136  0.00  0.00    +0.000 A 
ATOM     25 CL   UNL     1       7.815   5.779  19.286  0.00  0.00    +0.000 Cl
ATOM     26  C   UNL     1       5.292   5.443  18.393  0.00  0.00    +0.000 A 
ENDBRANCH  19  20
ENDBRANCH   4  19
TORSDOF 5
ENDMDL
MODEL 9
REMARK VINA RESULT:      -7.1      3.610      5.219
REMARK  Name = 
REMARK  6 active torsions:
REMARK  status: ('A' for Active; 'I' for Inactive)
REMARK    1  A    between atoms: C_1  and  C_2
REMARK    2  A    between atoms: C_7  and  N_8
REMARK    3  A    between atoms: C_9  and  C_11
REMARK    4  A    between atoms: C_11  and  N_12
REMARK    5  A    between atoms: N_15  and  C_16
REMARK    6  A    between atoms: C_16  and  C_17
REMARK                            x       y       z     vdW  Elec       q    Type
REMARK                         _______ _______ _______ _____ _____    ______ ____
ROOT
ATOM      1  N   UNL     1       0.859   9.401  19.453  0.00  0.00    +0.000 N 
ATOM      2  C   UNL     1       1.035   9.417  18.015  0.00  0.00    +0.000 C 
ATOM      3  C   UNL     1       2.302   8.593  17.823  0.00  0.00    +0.000 C 
ATOM      4  N   UNL     1       2.329   7.771  19.012  0.00  0.00    +0.000 N 
ATOM      5  C   UNL     1       1.560   8.340  20.018  0.00  0.00    +0.000 C 
ATOM      6  O   UNL     1       1.451   7.953  21.170  0.00  0.00    +0.000 OA
ENDROOT
BRANCH   1   7
ATOM      7  C   UNL     1      -0.215  10.113  20.126  0.00  0.00    +0.000 C 
BRANCH   7   9
ATOM      8  N   UNL     1       0.956  12.247  20.382  0.00  0.00    +0.000 N 
ATOM      9  C   UNL     1      -0.177  11.637  19.898  0.00  0.00    +0.000 C 
ATOM     10  O   UNL     1      -1.053  12.222  19.260  0.00  0.00    +0.000 OA
ATOM     11  H   UNL     1       1.578  11.694  20.978  0.00  0.00    +0.000 HD
BRANCH   8  18
ATOM     12  C   UNL     1       2.697  13.340  18.211  0.00  0.00    +0.000 C 
ATOM     13  C   UNL     1       2.581  13.959  19.605  0.00  0.00    +0.000 C 
ATOM     14  C   UNL     1       2.833  15.473  19.517  0.00  0.00    +0.000 C 
ATOM     15  C   UNL     1       2.731  16.143  20.884  0.00  0.00    +0.000 C 
ATOM     16  C   UNL     1       1.389  15.856  21.546  0.00  0.00    +0.000 C 
ATOM     17  C   UNL     1       1.111  14.359  21.632  0.00  0.00    +0.000 C 
ATOM     18  C   UNL     1       1.206  13.677  20.256  0.00  0.00    +0.000 C 
ENDBRANCH   8  18
ENDBRANCH   7   9
ENDBRANCH   1   7
BRANCH   4  19
ATOM     19  C   UNL     1       3.229   6.654  19.187  0.00  0.00    +0.000 C 
BRANCH  19  20
ATOM     20  C   UNL     1       2.526   5.310  19.151  0.00  0.00    +0.000 A 
ATOM     21  C   UNL     1       2.002   4.796  17.955  0.00  0.00    +0.000 A 
ATOM     22  C   UNL     1       1.255   3.616  17.948  0.00  0.00    +0.000 A 
ATOM     23  C   UNL     1       1.021   2.930  19.141  0.00  0.00    +0.000 A 
ATOM     24  C   UNL     1       1.553   3.416  20.329  0.00  0.00    +0.000 A 
ATOM     25 CL   UNL     1       1.268   2.577  21.802  0.00  0.00    +0.000 Cl
ATOM     26  C   UNL     1       2.306   4.594  20.342  0.00  0.00    +0.000 A 
ENDBRANCH  19  20
ENDBRANCH   4  19
TORSDOF 5
ENDMDL
