MODEL 1
REMARK VINA RESULT:      -7.7      0.000      0.000
REMARK  Name = 
REMARK  15 active torsions:
REMARK  status: ('A' for Active; 'I' for Inactive)
REMARK    1  A    between atoms: C_1  and  O_2
REMARK    2  A    between atoms: O_2  and  C_3
REMARK    3  A    between atoms: C_3  and  C_4
REMARK    4  A    between atoms: N_6  and  C_7
REMARK    5  A    between atoms: C_10  and  N_11
REMARK    6  A    between atoms: N_11  and  C_12
REMARK    7  A    between atoms: N_11  and  C_13
REMARK    8  A    between atoms: C_14  and  C_15
REMARK    9  A    between atoms: C_15  and  N_16
REMARK   10  A    between atoms: N_16  and  C_23
REMARK   11  A    between atoms: N_19  and  C_20
REMARK   12  A    between atoms: C_20  and  C_21
REMARK   13  A    between atoms: C_20  and  C_22
REMARK   14  A    between atoms: C_23  and  C_24
REMARK   15  A    between atoms: C_23  and  C_25
REMARK                            x       y       z     vdW  Elec       q    Type
REMARK                         _______ _______ _______ _____ _____    ______ ____
ROOT
ATOM      1  C   UNL     1       4.406   7.163  16.706  0.00  0.00    +0.000 C 
ENDROOT
BRANCH   1   6
ATOM      2  C   UNL     1       5.917   4.429  14.567  0.00  0.00    +0.000 A 
ATOM      3  C   UNL     1       6.978   4.069  15.401  0.00  0.00    +0.000 A 
ATOM      4  C   UNL     1       7.403   4.889  16.465  0.00  0.00    +0.000 A 
ATOM      5  C   UNL     1       6.721   6.045  16.832  0.00  0.00    +0.000 A 
ATOM      6  C   UNL     1       5.508   6.310  16.110  0.00  0.00    +0.000 A 
ATOM      7  C   UNL     1       5.233   5.603  14.887  0.00  0.00    +0.000 A 
BRANCH   2  10
ATOM      8  C   UNL     1       6.059   3.373  12.303  0.00  0.00    +0.000 C 
ATOM      9  O   UNL     1       7.015   4.007  11.862  0.00  0.00    +0.000 OA
ATOM     10  N   UNL     1       5.419   3.611  13.514  0.00  0.00    +0.000 N 
ATOM     11  H   UNL     1       4.603   3.041  13.711  0.00  0.00    +0.000 HD
BRANCH   8  12
ATOM     12  C   UNL     1       5.595   2.105  11.540  0.00  0.00    +0.000 C 
BRANCH  12  14
ATOM     13  C   UNL     1       6.102  -0.187  11.259  0.00  0.00    +0.000 C 
ATOM     14  O   UNL     1       6.523   1.154  11.058  0.00  0.00    +0.000 OA
ENDBRANCH  12  14
ENDBRANCH   8  12
ENDBRANCH   2  10
BRANCH   5  15
ATOM     15  N   UNL     1       7.152   6.879  17.897  0.00  0.00    +0.000 N 
ATOM     16  C   UNL     1       8.027   6.232  18.890  0.00  0.00    +0.000 C 
ATOM     17  C   UNL     1       7.795   8.173  17.560  0.00  0.00    +0.000 C 
ENDBRANCH   5  15
ENDBRANCH   1   6
BRANCH   1  18
ATOM     18  N   UNL     1       3.479   6.671  17.748  0.00  0.00    +0.000 N 
ATOM     19  C   UNL     1       2.518   7.454  18.388  0.00  0.00    +0.000 C 
ATOM     20  O   UNL     1       1.743   7.025  19.236  0.00  0.00    +0.000 OA
ATOM     21  N   UNL     1       2.491   8.758  17.984  0.00  0.00    +0.000 N 
ATOM     22  H   UNL     1       3.374   9.058  17.670  0.00  0.00    +0.000 HD
BRANCH  21  23
ATOM     23  C   UNL     1       1.678   9.862  18.480  0.00  0.00    +0.000 C 
ATOM     24  C   UNL     1       2.301  11.209  18.085  0.00  0.00    +0.000 C 
ATOM     25  C   UNL     1       0.221   9.729  17.998  0.00  0.00    +0.000 C 
ENDBRANCH  21  23
BRANCH  18  26
ATOM     26  C   UNL     1       3.891   5.405  18.461  0.00  0.00    +0.000 C 
ATOM     27  C   UNL     1       4.716   5.613  19.747  0.00  0.00    +0.000 C 
BRANCH  26  28
ATOM     28  C   UNL     1       2.657   4.526  18.733  0.00  0.00    +0.000 A 
ATOM     29  C   UNL     1       2.279   4.246  20.054  0.00  0.00    +0.000 A 
ATOM     30  C   UNL     1       1.356   3.234  20.328  0.00  0.00    +0.000 A 
ATOM     31  C   UNL     1       0.770   2.517  19.288  0.00  0.00    +0.000 A 
ATOM     32  C   UNL     1       1.038   2.871  17.969  0.00  0.00    +0.000 A 
ATOM     33  C   UNL     1       1.963   3.880  17.694  0.00  0.00    +0.000 A 
ENDBRANCH  26  28
ENDBRANCH  18  26
ENDBRANCH   1  18
TORSDOF 9
ENDMDL
MODEL 2
REMARK VINA RESULT:      -7.4      0.702      1.228
REMARK  Name = 
REMARK  15 active torsions:
REMARK  status: ('A' for Active; 'I' for Inactive)
REMARK    1  A    between atoms: C_1  and  O_2
REMARK    2  A    between atoms: O_2  and  C_3
REMARK    3  A    between atoms: C_3  and  C_4
REMARK    4  A    between atoms: N_6  and  C_7
REMARK    5  A    between atoms: C_10  and  N_11
REMARK    6  A    between atoms: N_11  and  C_12
REMARK    7  A    between atoms: N_11  and  C_13
REMARK    8  A    between atoms: C_14  and  C_15
REMARK    9  A    between atoms: C_15  and  N_16
REMARK   10  A    between atoms: N_16  and  C_23
REMARK   11  A    between atoms: N_19  and  C_20
REMARK   12  A    between atoms: C_20  and  C_21
REMARK   13  A    between atoms: C_20  and  C_22
REMARK   14  A    between atoms: C_23  and  C_24
REMARK   15  A    between atoms: C_23  and  C_25
REMARK                            x       y       z     vdW  Elec       q    Type
REMARK                         _______ _______ _______ _____ _____    ______ ____
ROOT
ATOM      1  C   UNL     1       4.304   6.850  17.055  0.00  0.00    +0.000 C 
ENDROOT
BRANCH   1   6
ATOM      2  C   UNL     1       5.908   4.513  14.545  0.00  0.00    +0.000 A 
ATOM      3  C   UNL     1       7.097   4.251  15.228  0.00  0.00    +0.000 A 
ATOM      4  C   UNL     1       7.529   5.048  16.307  0.00  0.00    +0.000 A 
ATOM      5  C   UNL     1       6.746   6.067  16.841  0.00  0.00    +0.000 A 
ATOM      6  C   UNL     1       5.432   6.205  16.276  0.00  0.00    +0.000 A 
ATOM      7  C   UNL     1       5.114   5.553  15.034  0.00  0.00    +0.000 A 
BRANCH   2  10
ATOM      8  C   UNL     1       6.070   3.425  12.297  0.00  0.00    +0.000 C 
ATOM      9  O   UNL     1       7.067   4.009  11.880  0.00  0.00    +0.000 OA
ATOM     10  N   UNL     1       5.405   3.707  13.485  0.00  0.00    +0.000 N 
ATOM     11  H   UNL     1       4.557   3.178  13.662  0.00  0.00    +0.000 HD
BRANCH   8  12
ATOM     12  C   UNL     1       5.571   2.172  11.533  0.00  0.00    +0.000 C 
BRANCH  12  14
ATOM     13  C   UNL     1       6.188  -0.104  11.351  0.00  0.00    +0.000 C 
ATOM     14  O   UNL     1       6.475   1.236  10.980  0.00  0.00    +0.000 OA
ENDBRANCH  12  14
ENDBRANCH   8  12
ENDBRANCH   2  10
BRANCH   5  15
ATOM     15  N   UNL     1       7.183   6.879  17.920  0.00  0.00    +0.000 N 
ATOM     16  C   UNL     1       8.054   6.208  18.901  0.00  0.00    +0.000 C 
ATOM     17  C   UNL     1       7.833   8.175  17.608  0.00  0.00    +0.000 C 
ENDBRANCH   5  15
ENDBRANCH   1   6
BRANCH   1  18
ATOM     18  N   UNL     1       3.505   6.124  18.066  0.00  0.00    +0.000 N 
ATOM     19  C   UNL     1       2.487   6.695  18.832  0.00  0.00    +0.000 C 
ATOM     20  O   UNL     1       1.821   6.073  19.653  0.00  0.00    +0.000 OA
ATOM     21  N   UNL     1       2.272   8.021  18.586  0.00  0.00    +0.000 N 
ATOM     22  H   UNL     1       3.091   8.469  18.276  0.00  0.00    +0.000 HD
BRANCH  21  23
ATOM     23  C   UNL     1       1.353   8.943  19.241  0.00  0.00    +0.000 C 
ATOM     24  C   UNL     1       1.540   8.900  20.765  0.00  0.00    +0.000 C 
ATOM     25  C   UNL     1       1.509  10.367  18.674  0.00  0.00    +0.000 C 
ENDBRANCH  21  23
BRANCH  18  26
ATOM     26  C   UNL     1       4.114   4.853  18.608  0.00  0.00    +0.000 C 
ATOM     27  C   UNL     1       5.008   5.029  19.851  0.00  0.00    +0.000 C 
BRANCH  26  28
ATOM     28  C   UNL     1       3.013   3.807  18.864  0.00  0.00    +0.000 A 
ATOM     29  C   UNL     1       2.125   3.465  17.832  0.00  0.00    +0.000 A 
ATOM     30  C   UNL     1       0.957   2.751  18.110  0.00  0.00    +0.000 A 
ATOM     31  C   UNL     1       0.680   2.336  19.410  0.00  0.00    +0.000 A 
ATOM     32  C   UNL     1       1.613   2.557  20.419  0.00  0.00    +0.000 A 
ATOM     33  C   UNL     1       2.778   3.273  20.143  0.00  0.00    +0.000 A 
ENDBRANCH  26  28
ENDBRANCH  18  26
ENDBRANCH   1  18
TORSDOF 9
ENDMDL
MODEL 3
REMARK VINA RESULT:      -7.1      1.371      2.086
REMARK  Name = 
REMARK  15 active torsions:
REMARK  status: ('A' for Active; 'I' for Inactive)
REMARK    1  A    between atoms: C_1  and  O_2
REMARK    2  A    between atoms: O_2  and  C_3
REMARK    3  A    between atoms: C_3  and  C_4
REMARK    4  A    between atoms: N_6  and  C_7
REMARK    5  A    between atoms: C_10  and  N_11
REMARK    6  A    between atoms: N_11  and  C_12
REMARK    7  A    between atoms: N_11  and  C_13
REMARK    8  A    between atoms: C_14  and  C_15
REMARK    9  A    between atoms: C_15  and  N_16
REMARK   10  A    between atoms: N_16  and  C_23
REMARK   11  A    between atoms: N_19  and  C_20
REMARK   12  A    between atoms: C_20  and  C_21
REMARK   13  A    between atoms: C_20  and  C_22
REMARK   14  A    between atoms: C_23  and  C_24
REMARK   15  A    between atoms: C_23  and  C_25
REMARK                            x       y       z     vdW  Elec       q    Type
REMARK                         _______ _______ _______ _____ _____    ______ ____
ROOT
ATOM      1  C   UNL     1       4.741   4.462  17.709  0.00  0.00    +0.000 C 
ENDROOT
BRANCH   1   6
ATOM      2  C   UNL     1       6.296   4.103  14.276  0.00  0.00    +0.000 A 
ATOM      3  C   UNL     1       7.498   4.771  14.516  0.00  0.00    +0.000 A 
ATOM      4  C   UNL     1       7.679   5.600  15.640  0.00  0.00    +0.000 A 
ATOM      5  C   UNL     1       6.724   5.712  16.646  0.00  0.00    +0.000 A 
ATOM      6  C   UNL     1       5.571   4.865  16.507  0.00  0.00    +0.000 A 
ATOM      7  C   UNL     1       5.301   4.222  15.248  0.00  0.00    +0.000 A 
BRANCH   2  10
ATOM      8  C   UNL     1       6.725   3.279  11.952  0.00  0.00    +0.000 C 
ATOM      9  O   UNL     1       7.380   4.232  11.536  0.00  0.00    +0.000 OA
ATOM     10  N   UNL     1       6.083   3.215  13.184  0.00  0.00    +0.000 N 
ATOM     11  H   UNL     1       5.527   2.384  13.358  0.00  0.00    +0.000 HD
BRANCH   8  12
ATOM     12  C   UNL     1       6.712   1.969  11.123  0.00  0.00    +0.000 C 
BRANCH  12  14
ATOM     13  C   UNL     1       6.162  -0.325  11.277  0.00  0.00    +0.000 C 
ATOM     14  O   UNL     1       5.683   1.011  11.272  0.00  0.00    +0.000 OA
ENDBRANCH  12  14
ENDBRANCH   8  12
ENDBRANCH   2  10
BRANCH   5  15
ATOM     15  N   UNL     1       6.898   6.555  17.774  0.00  0.00    +0.000 N 
ATOM     16  C   UNL     1       7.661   5.966  18.889  0.00  0.00    +0.000 C 
ATOM     17  C   UNL     1       7.460   7.911  17.559  0.00  0.00    +0.000 C 
ENDBRANCH   5  15
ENDBRANCH   1   6
BRANCH   1  18
ATOM     18  N   UNL     1       3.262   4.443  17.697  0.00  0.00    +0.000 N 
ATOM     19  C   UNL     1       2.452   5.538  18.005  0.00  0.00    +0.000 C 
ATOM     20  O   UNL     1       1.227   5.511  17.971  0.00  0.00    +0.000 OA
ATOM     21  N   UNL     1       3.138   6.671  18.340  0.00  0.00    +0.000 N 
ATOM     22  H   UNL     1       4.012   6.459  18.740  0.00  0.00    +0.000 HD
BRANCH  21  23
ATOM     23  C   UNL     1       2.626   7.962  18.782  0.00  0.00    +0.000 C 
ATOM     24  C   UNL     1       1.769   8.607  17.682  0.00  0.00    +0.000 C 
ATOM     25  C   UNL     1       1.861   7.823  20.112  0.00  0.00    +0.000 C 
ENDBRANCH  21  23
BRANCH  18  26
ATOM     26  C   UNL     1       2.613   3.084  17.801  0.00  0.00    +0.000 C 
ATOM     27  C   UNL     1       3.384   1.933  17.125  0.00  0.00    +0.000 C 
BRANCH  26  28
ATOM     28  C   UNL     1       2.309   2.756  19.274  0.00  0.00    +0.000 A 
ATOM     29  C   UNL     1       0.991   2.835  19.747  0.00  0.00    +0.000 A 
ATOM     30  C   UNL     1       0.729   2.827  21.120  0.00  0.00    +0.000 A 
ATOM     31  C   UNL     1       1.772   2.700  22.033  0.00  0.00    +0.000 A 
ATOM     32  C   UNL     1       3.069   2.492  21.575  0.00  0.00    +0.000 A 
ATOM     33  C   UNL     1       3.333   2.503  20.205  0.00  0.00    +0.000 A 
ENDBRANCH  26  28
ENDBRANCH  18  26
ENDBRANCH   1  18
TORSDOF 9
ENDMDL
MODEL 4
REMARK VINA RESULT:      -7.1      2.075      7.923
REMARK  Name = 
REMARK  15 active torsions:
REMARK  status: ('A' for Active; 'I' for Inactive)
REMARK    1  A    between atoms: C_1  and  O_2
REMARK    2  A    between atoms: O_2  and  C_3
REMARK    3  A    between atoms: C_3  and  C_4
REMARK    4  A    between atoms: N_6  and  C_7
REMARK    5  A    between atoms: C_10  and  N_11
REMARK    6  A    between atoms: N_11  and  C_12
REMARK    7  A    between atoms: N_11  and  C_13
REMARK    8  A    between atoms: C_14  and  C_15
REMARK    9  A    between atoms: C_15  and  N_16
REMARK   10  A    between atoms: N_16  and  C_23
REMARK   11  A    between atoms: N_19  and  C_20
REMARK   12  A    between atoms: C_20  and  C_21
REMARK   13  A    between atoms: C_20  and  C_22
REMARK   14  A    between atoms: C_23  and  C_24
REMARK   15  A    between atoms: C_23  and  C_25
REMARK                            x       y       z     vdW  Elec       q    Type
REMARK                         _______ _______ _______ _____ _____    ______ ____
ROOT
ATOM      1  C   UNL     1       4.494   4.439  16.524  0.00  0.00    +0.000 C 
ENDROOT
BRANCH   1   6
ATOM      2  C   UNL     1       2.523   6.892  18.627  0.00  0.00    +0.000 A 
ATOM      3  C   UNL     1       2.688   6.284  19.873  0.00  0.00    +0.000 A 
ATOM      4  C   UNL     1       3.136   4.955  20.002  0.00  0.00    +0.000 A 
ATOM      5  C   UNL     1       3.561   4.203  18.910  0.00  0.00    +0.000 A 
ATOM      6  C   UNL     1       3.590   4.894  17.651  0.00  0.00    +0.000 A 
ATOM      7  C   UNL     1       2.906   6.152  17.507  0.00  0.00    +0.000 A 
BRANCH   2  10
ATOM      8  C   UNL     1       1.452   9.022  19.388  0.00  0.00    +0.000 C 
ATOM      9  O   UNL     1       0.897   8.600  20.400  0.00  0.00    +0.000 OA
ATOM     10  N   UNL     1       2.123   8.247  18.449  0.00  0.00    +0.000 N 
ATOM     11  H   UNL     1       2.475   8.735  17.632  0.00  0.00    +0.000 HD
BRANCH   8  12
ATOM     12  C   UNL     1       1.557  10.556  19.186  0.00  0.00    +0.000 C 
BRANCH  12  14
ATOM     13  C   UNL     1       2.437  12.513  18.193  0.00  0.00    +0.000 C 
ATOM     14  O   UNL     1       2.253  11.109  18.087  0.00  0.00    +0.000 OA
ENDBRANCH  12  14
ENDBRANCH   8  12
ENDBRANCH   2  10
BRANCH   5  15
ATOM     15  N   UNL     1       4.003   2.860  19.035  0.00  0.00    +0.000 N 
ATOM     16  C   UNL     1       4.357   2.437  20.401  0.00  0.00    +0.000 C 
ATOM     17  C   UNL     1       3.149   1.784  18.476  0.00  0.00    +0.000 C 
ENDBRANCH   5  15
ENDBRANCH   1   6
BRANCH   1  18
ATOM     18  N   UNL     1       5.905   4.865  16.399  0.00  0.00    +0.000 N 
ATOM     19  C   UNL     1       6.677   4.726  15.245  0.00  0.00    +0.000 C 
ATOM     20  O   UNL     1       7.840   5.103  15.153  0.00  0.00    +0.000 OA
ATOM     21  N   UNL     1       6.026   4.140  14.197  0.00  0.00    +0.000 N 
ATOM     22  H   UNL     1       5.322   3.526  14.507  0.00  0.00    +0.000 HD
BRANCH  21  23
ATOM     23  C   UNL     1       6.535   3.776  12.881  0.00  0.00    +0.000 C 
ATOM     24  C   UNL     1       5.401   3.238  11.995  0.00  0.00    +0.000 C 
ATOM     25  C   UNL     1       7.271   4.963  12.231  0.00  0.00    +0.000 C 
ENDBRANCH  21  23
BRANCH  18  26
ATOM     26  C   UNL     1       6.665   5.036  17.693  0.00  0.00    +0.000 C 
ATOM     27  C   UNL     1       7.916   4.148  17.843  0.00  0.00    +0.000 C 
BRANCH  26  28
ATOM     28  C   UNL     1       7.012   6.520  17.910  0.00  0.00    +0.000 A 
ATOM     29  C   UNL     1       6.283   7.510  17.235  0.00  0.00    +0.000 A 
ATOM     30  C   UNL     1       6.752   8.826  17.185  0.00  0.00    +0.000 A 
ATOM     31  C   UNL     1       7.930   9.176  17.840  0.00  0.00    +0.000 A 
ATOM     32  C   UNL     1       8.594   8.233  18.619  0.00  0.00    +0.000 A 
ATOM     33  C   UNL     1       8.128   6.919  18.667  0.00  0.00    +0.000 A 
ENDBRANCH  26  28
ENDBRANCH  18  26
ENDBRANCH   1  18
TORSDOF 9
ENDMDL
MODEL 5
REMARK VINA RESULT:      -7.1      1.994      7.901
REMARK  Name = 
REMARK  15 active torsions:
REMARK  status: ('A' for Active; 'I' for Inactive)
REMARK    1  A    between atoms: C_1  and  O_2
REMARK    2  A    between atoms: O_2  and  C_3
REMARK    3  A    between atoms: C_3  and  C_4
REMARK    4  A    between atoms: N_6  and  C_7
REMARK    5  A    between atoms: C_10  and  N_11
REMARK    6  A    between atoms: N_11  and  C_12
REMARK    7  A    between atoms: N_11  and  C_13
REMARK    8  A    between atoms: C_14  and  C_15
REMARK    9  A    between atoms: C_15  and  N_16
REMARK   10  A    between atoms: N_16  and  C_23
REMARK   11  A    between atoms: N_19  and  C_20
REMARK   12  A    between atoms: C_20  and  C_21
REMARK   13  A    between atoms: C_20  and  C_22
REMARK   14  A    between atoms: C_23  and  C_24
REMARK   15  A    between atoms: C_23  and  C_25
REMARK                            x       y       z     vdW  Elec       q    Type
REMARK                         _______ _______ _______ _____ _____    ______ ____
ROOT
ATOM      1  C   UNL     1       4.569   4.252  16.870  0.00  0.00    +0.000 C 
ENDROOT
BRANCH   1   6
ATOM      2  C   UNL     1       2.788   7.198  18.446  0.00  0.00    +0.000 A 
ATOM      3  C   UNL     1       2.451   6.613  19.668  0.00  0.00    +0.000 A 
ATOM      4  C   UNL     1       2.497   5.219  19.866  0.00  0.00    +0.000 A 
ATOM      5  C   UNL     1       2.996   4.346  18.905  0.00  0.00    +0.000 A 
ATOM      6  C   UNL     1       3.539   4.961  17.726  0.00  0.00    +0.000 A 
ATOM      7  C   UNL     1       3.261   6.345  17.446  0.00  0.00    +0.000 A 
BRANCH   2  10
ATOM      8  C   UNL     1       1.709   9.379  17.865  0.00  0.00    +0.000 C 
ATOM      9  O   UNL     1       0.625   8.952  17.474  0.00  0.00    +0.000 OA
ATOM     10  N   UNL     1       2.808   8.602  18.213  0.00  0.00    +0.000 N 
ATOM     11  H   UNL     1       3.655   9.105  18.458  0.00  0.00    +0.000 HD
BRANCH   8  12
ATOM     12  C   UNL     1       1.850  10.898  18.142  0.00  0.00    +0.000 C 
BRANCH  12  14
ATOM     13  C   UNL     1       0.510  10.917  20.089  0.00  0.00    +0.000 C 
ATOM     14  O   UNL     1       1.660  11.433  19.436  0.00  0.00    +0.000 OA
ENDBRANCH  12  14
ENDBRANCH   8  12
ENDBRANCH   2  10
BRANCH   5  15
ATOM     15  N   UNL     1       3.034   2.940  19.097  0.00  0.00    +0.000 N 
ATOM     16  C   UNL     1       4.079   2.457  20.017  0.00  0.00    +0.000 C 
ATOM     17  C   UNL     1       1.782   2.251  19.495  0.00  0.00    +0.000 C 
ENDBRANCH   5  15
ENDBRANCH   1   6
BRANCH   1  18
ATOM     18  N   UNL     1       5.929   4.784  16.639  0.00  0.00    +0.000 N 
ATOM     19  C   UNL     1       6.617   4.702  15.427  0.00  0.00    +0.000 C 
ATOM     20  O   UNL     1       7.738   5.166  15.247  0.00  0.00    +0.000 OA
ATOM     21  N   UNL     1       5.932   4.068  14.430  0.00  0.00    +0.000 N 
ATOM     22  H   UNL     1       5.303   3.403  14.791  0.00  0.00    +0.000 HD
BRANCH  21  23
ATOM     23  C   UNL     1       6.364   3.743  13.076  0.00  0.00    +0.000 C 
ATOM     24  C   UNL     1       5.154   3.408  12.191  0.00  0.00    +0.000 C 
ATOM     25  C   UNL     1       7.222   4.879  12.487  0.00  0.00    +0.000 C 
ENDBRANCH  21  23
BRANCH  18  26
ATOM     26  C   UNL     1       6.772   5.012  17.870  0.00  0.00    +0.000 C 
ATOM     27  C   UNL     1       8.058   4.165  17.954  0.00  0.00    +0.000 C 
BRANCH  26  28
ATOM     28  C   UNL     1       7.087   6.511  18.025  0.00  0.00    +0.000 A 
ATOM     29  C   UNL     1       6.339   7.456  17.307  0.00  0.00    +0.000 A 
ATOM     30  C   UNL     1       6.780   8.778  17.203  0.00  0.00    +0.000 A 
ATOM     31  C   UNL     1       7.949   9.181  17.844  0.00  0.00    +0.000 A 
ATOM     32  C   UNL     1       8.630   8.286  18.663  0.00  0.00    +0.000 A 
ATOM     33  C   UNL     1       8.192   6.965  18.766  0.00  0.00    +0.000 A 
ENDBRANCH  26  28
ENDBRANCH  18  26
ENDBRANCH   1  18
TORSDOF 9
ENDMDL
MODEL 6
REMARK VINA RESULT:      -7.1      1.048      1.504
REMARK  Name = 
REMARK  15 active torsions:
REMARK  status: ('A' for Active; 'I' for Inactive)
REMARK    1  A    between atoms: C_1  and  O_2
REMARK    2  A    between atoms: O_2  and  C_3
REMARK    3  A    between atoms: C_3  and  C_4
REMARK    4  A    between atoms: N_6  and  C_7
REMARK    5  A    between atoms: C_10  and  N_11
REMARK    6  A    between atoms: N_11  and  C_12
REMARK    7  A    between atoms: N_11  and  C_13
REMARK    8  A    between atoms: C_14  and  C_15
REMARK    9  A    between atoms: C_15  and  N_16
REMARK   10  A    between atoms: N_16  and  C_23
REMARK   11  A    between atoms: N_19  and  C_20
REMARK   12  A    between atoms: C_20  and  C_21
REMARK   13  A    between atoms: C_20  and  C_22
REMARK   14  A    between atoms: C_23  and  C_24
REMARK   15  A    between atoms: C_23  and  C_25
REMARK                            x       y       z     vdW  Elec       q    Type
REMARK                         _______ _______ _______ _____ _____    ______ ____
ROOT
ATOM      1  C   UNL     1       4.609   7.299  16.991  0.00  0.00    +0.000 C 
ENDROOT
BRANCH   1   6
ATOM      2  C   UNL     1       5.873   4.503  14.773  0.00  0.00    +0.000 A 
ATOM      3  C   UNL     1       6.840   3.974  15.629  0.00  0.00    +0.000 A 
ATOM      4  C   UNL     1       7.311   4.681  16.752  0.00  0.00    +0.000 A 
ATOM      5  C   UNL     1       6.760   5.895  17.153  0.00  0.00    +0.000 A 
ATOM      6  C   UNL     1       5.624   6.344  16.396  0.00  0.00    +0.000 A 
ATOM      7  C   UNL     1       5.323   5.737  15.127  0.00  0.00    +0.000 A 
BRANCH   2  10
ATOM      8  C   UNL     1       5.987   3.559  12.458  0.00  0.00    +0.000 C 
ATOM      9  O   UNL     1       7.027   4.099  12.088  0.00  0.00    +0.000 OA
ATOM     10  N   UNL     1       5.328   3.806  13.657  0.00  0.00    +0.000 N 
ATOM     11  H   UNL     1       4.445   3.326  13.792  0.00  0.00    +0.000 HD
BRANCH   8  12
ATOM     12  C   UNL     1       5.413   2.396  11.608  0.00  0.00    +0.000 C 
BRANCH  12  14
ATOM     13  C   UNL     1       3.762   3.749  10.591  0.00  0.00    +0.000 C 
ATOM     14  O   UNL     1       4.111   2.455  11.060  0.00  0.00    +0.000 OA
ENDBRANCH  12  14
ENDBRANCH   8  12
ENDBRANCH   2  10
BRANCH   5  15
ATOM     15  N   UNL     1       7.240   6.616  18.277  0.00  0.00    +0.000 N 
ATOM     16  C   UNL     1       7.917   5.805  19.305  0.00  0.00    +0.000 C 
ATOM     17  C   UNL     1       8.111   7.793  18.039  0.00  0.00    +0.000 C 
ENDBRANCH   5  15
ENDBRANCH   1   6
BRANCH   1  18
ATOM     18  N   UNL     1       3.539   6.865  17.916  0.00  0.00    +0.000 N 
ATOM     19  C   UNL     1       2.458   7.657  18.305  0.00  0.00    +0.000 C 
ATOM     20  O   UNL     1       1.568   7.274  19.057  0.00  0.00    +0.000 OA
ATOM     21  N   UNL     1       2.453   8.911  17.764  0.00  0.00    +0.000 N 
ATOM     22  H   UNL     1       3.365   9.223  17.567  0.00  0.00    +0.000 HD
BRANCH  21  23
ATOM     23  C   UNL     1       1.531  10.015  18.001  0.00  0.00    +0.000 C 
ATOM     24  C   UNL     1       0.758   9.798  19.310  0.00  0.00    +0.000 C 
ATOM     25  C   UNL     1       2.273  11.364  17.977  0.00  0.00    +0.000 C 
ENDBRANCH  21  23
BRANCH  18  26
ATOM     26  C   UNL     1       3.871   5.700  18.817  0.00  0.00    +0.000 C 
ATOM     27  C   UNL     1       3.519   5.899  20.305  0.00  0.00    +0.000 C 
BRANCH  26  28
ATOM     28  C   UNL     1       3.238   4.409  18.267  0.00  0.00    +0.000 A 
ATOM     29  C   UNL     1       1.863   4.183  18.434  0.00  0.00    +0.000 A 
ATOM     30  C   UNL     1       1.321   2.915  18.209  0.00  0.00    +0.000 A 
ATOM     31  C   UNL     1       2.135   1.870  17.778  0.00  0.00    +0.000 A 
ATOM     32  C   UNL     1       3.473   2.112  17.486  0.00  0.00    +0.000 A 
ATOM     33  C   UNL     1       4.016   3.377  17.714  0.00  0.00    +0.000 A 
ENDBRANCH  26  28
ENDBRANCH  18  26
ENDBRANCH   1  18
TORSDOF 9
ENDMDL
MODEL 7
REMARK VINA RESULT:      -7.0      0.895      1.473
REMARK  Name = 
REMARK  15 active torsions:
REMARK  status: ('A' for Active; 'I' for Inactive)
REMARK    1  A    between atoms: C_1  and  O_2
REMARK    2  A    between atoms: O_2  and  C_3
REMARK    3  A    between atoms: C_3  and  C_4
REMARK    4  A    between atoms: N_6  and  C_7
REMARK    5  A    between atoms: C_10  and  N_11
REMARK    6  A    between atoms: N_11  and  C_12
REMARK    7  A    between atoms: N_11  and  C_13
REMARK    8  A    between atoms: C_14  and  C_15
REMARK    9  A    between atoms: C_15  and  N_16
REMARK   10  A    between atoms: N_16  and  C_23
REMARK   11  A    between atoms: N_19  and  C_20
REMARK   12  A    between atoms: C_20  and  C_21
REMARK   13  A    between atoms: C_20  and  C_22
REMARK   14  A    between atoms: C_23  and  C_24
REMARK   15  A    between atoms: C_23  and  C_25
REMARK                            x       y       z     vdW  Elec       q    Type
REMARK                         _______ _______ _______ _____ _____    ______ ____
ROOT
ATOM      1  C   UNL     1       4.354   7.012  17.017  0.00  0.00    +0.000 C 
ENDROOT
BRANCH   1   6
ATOM      2  C   UNL     1       5.940   4.622  14.545  0.00  0.00    +0.000 A 
ATOM      3  C   UNL     1       7.095   4.310  15.264  0.00  0.00    +0.000 A 
ATOM      4  C   UNL     1       7.525   5.083  16.360  0.00  0.00    +0.000 A 
ATOM      5  C   UNL     1       6.768   6.131  16.875  0.00  0.00    +0.000 A 
ATOM      6  C   UNL     1       5.479   6.325  16.270  0.00  0.00    +0.000 A 
ATOM      7  C   UNL     1       5.174   5.692  15.015  0.00  0.00    +0.000 A 
BRANCH   2  10
ATOM      8  C   UNL     1       6.121   3.553  12.290  0.00  0.00    +0.000 C 
ATOM      9  O   UNL     1       7.144   4.112  11.902  0.00  0.00    +0.000 OA
ATOM     10  N   UNL     1       5.438   3.842  13.466  0.00  0.00    +0.000 N 
ATOM     11  H   UNL     1       4.571   3.335  13.618  0.00  0.00    +0.000 HD
BRANCH   8  12
ATOM     12  C   UNL     1       5.604   2.323  11.502  0.00  0.00    +0.000 C 
BRANCH  12  14
ATOM     13  C   UNL     1       3.707   3.387  10.575  0.00  0.00    +0.000 C 
ATOM     14  O   UNL     1       4.244   2.199  11.136  0.00  0.00    +0.000 OA
ENDBRANCH  12  14
ENDBRANCH   8  12
ENDBRANCH   2  10
BRANCH   5  15
ATOM     15  N   UNL     1       7.203   6.920  17.972  0.00  0.00    +0.000 N 
ATOM     16  C   UNL     1       8.062   6.225  18.947  0.00  0.00    +0.000 C 
ATOM     17  C   UNL     1       7.866   8.216  17.687  0.00  0.00    +0.000 C 
ENDBRANCH   5  15
ENDBRANCH   1   6
BRANCH   1  18
ATOM     18  N   UNL     1       3.546   6.338  18.056  0.00  0.00    +0.000 N 
ATOM     19  C   UNL     1       2.583   6.969  18.845  0.00  0.00    +0.000 C 
ATOM     20  O   UNL     1       1.908   6.390  19.690  0.00  0.00    +0.000 OA
ATOM     21  N   UNL     1       2.432   8.302  18.594  0.00  0.00    +0.000 N 
ATOM     22  H   UNL     1       3.265   8.703  18.257  0.00  0.00    +0.000 HD
BRANCH  21  23
ATOM     23  C   UNL     1       1.582   9.278  19.265  0.00  0.00    +0.000 C 
ATOM     24  C   UNL     1       0.398   9.669  18.368  0.00  0.00    +0.000 C 
ATOM     25  C   UNL     1       1.125   8.752  20.639  0.00  0.00    +0.000 C 
ENDBRANCH  21  23
BRANCH  18  26
ATOM     26  C   UNL     1       4.101   5.040  18.592  0.00  0.00    +0.000 C 
ATOM     27  C   UNL     1       4.926   5.162  19.889  0.00  0.00    +0.000 C 
BRANCH  26  28
ATOM     28  C   UNL     1       2.970   4.008  18.751  0.00  0.00    +0.000 A 
ATOM     29  C   UNL     1       2.023   3.850  17.728  0.00  0.00    +0.000 A 
ATOM     30  C   UNL     1       0.840   3.144  17.961  0.00  0.00    +0.000 A 
ATOM     31  C   UNL     1       0.605   2.557  19.201  0.00  0.00    +0.000 A 
ATOM     32  C   UNL     1       1.591   2.597  20.182  0.00  0.00    +0.000 A 
ATOM     33  C   UNL     1       2.772   3.303  19.952  0.00  0.00    +0.000 A 
ENDBRANCH  26  28
ENDBRANCH  18  26
ENDBRANCH   1  18
TORSDOF 9
ENDMDL
MODEL 8
REMARK VINA RESULT:      -7.0      2.209      8.244
REMARK  Name = 
REMARK  15 active torsions:
REMARK  status: ('A' for Active; 'I' for Inactive)
REMARK    1  A    between atoms: C_1  and  O_2
REMARK    2  A    between atoms: O_2  and  C_3
REMARK    3  A    between atoms: C_3  and  C_4
REMARK    4  A    between atoms: N_6  and  C_7
REMARK    5  A    between atoms: C_10  and  N_11
REMARK    6  A    between atoms: N_11  and  C_12
REMARK    7  A    between atoms: N_11  and  C_13
REMARK    8  A    between atoms: C_14  and  C_15
REMARK    9  A    between atoms: C_15  and  N_16
REMARK   10  A    between atoms: N_16  and  C_23
REMARK   11  A    between atoms: N_19  and  C_20
REMARK   12  A    between atoms: C_20  and  C_21
REMARK   13  A    between atoms: C_20  and  C_22
REMARK   14  A    between atoms: C_23  and  C_24
REMARK   15  A    between atoms: C_23  and  C_25
REMARK                            x       y       z     vdW  Elec       q    Type
REMARK                         _______ _______ _______ _____ _____    ______ ____
ROOT
ATOM      1  C   UNL     1       4.355   4.693  16.509  0.00  0.00    +0.000 C 
ENDROOT
BRANCH   1   6
ATOM      2  C   UNL     1       2.524   6.715  19.134  0.00  0.00    +0.000 A 
ATOM      3  C   UNL     1       2.806   5.922  20.248  0.00  0.00    +0.000 A 
ATOM      4  C   UNL     1       3.288   4.604  20.123  0.00  0.00    +0.000 A 
ATOM      5  C   UNL     1       3.632   4.050  18.893  0.00  0.00    +0.000 A 
ATOM      6  C   UNL     1       3.542   4.933  17.764  0.00  0.00    +0.000 A 
ATOM      7  C   UNL     1       2.825   6.176  17.881  0.00  0.00    +0.000 A 
BRANCH   2  10
ATOM      8  C   UNL     1       1.347   8.620  20.250  0.00  0.00    +0.000 C 
ATOM      9  O   UNL     1       0.763   7.989  21.127  0.00  0.00    +0.000 OA
ATOM     10  N   UNL     1       2.085   8.067  19.210  0.00  0.00    +0.000 N 
ATOM     11  H   UNL     1       2.457   8.719  18.526  0.00  0.00    +0.000 HD
BRANCH   8  12
ATOM     12  C   UNL     1       1.407  10.166  20.363  0.00  0.00    +0.000 C 
BRANCH  12  14
ATOM     13  C   UNL     1      -0.414  11.324  21.328  0.00  0.00    +0.000 C 
ATOM     14  O   UNL     1       0.910  10.842  21.501  0.00  0.00    +0.000 OA
ENDBRANCH  12  14
ENDBRANCH   8  12
ENDBRANCH   2  10
BRANCH   5  15
ATOM     15  N   UNL     1       4.108   2.719  18.763  0.00  0.00    +0.000 N 
ATOM     16  C   UNL     1       4.574   2.091  20.012  0.00  0.00    +0.000 C 
ATOM     17  C   UNL     1       3.235   1.722  18.098  0.00  0.00    +0.000 C 
ENDBRANCH   5  15
ENDBRANCH   1   6
BRANCH   1  18
ATOM     18  N   UNL     1       5.803   4.984  16.418  0.00  0.00    +0.000 N 
ATOM     19  C   UNL     1       6.591   4.740  15.292  0.00  0.00    +0.000 C 
ATOM     20  O   UNL     1       7.787   5.005  15.227  0.00  0.00    +0.000 OA
ATOM     21  N   UNL     1       5.919   4.188  14.240  0.00  0.00    +0.000 N 
ATOM     22  H   UNL     1       5.152   3.651  14.543  0.00  0.00    +0.000 HD
BRANCH  21  23
ATOM     23  C   UNL     1       6.430   3.741  12.950  0.00  0.00    +0.000 C 
ATOM     24  C   UNL     1       5.278   3.273  12.047  0.00  0.00    +0.000 C 
ATOM     25  C   UNL     1       7.282   4.841  12.288  0.00  0.00    +0.000 C 
ENDBRANCH  21  23
BRANCH  18  26
ATOM     26  C   UNL     1       6.537   5.119  17.730  0.00  0.00    +0.000 C 
ATOM     27  C   UNL     1       7.732   4.162  17.918  0.00  0.00    +0.000 C 
BRANCH  26  28
ATOM     28  C   UNL     1       6.963   6.583  17.948  0.00  0.00    +0.000 A 
ATOM     29  C   UNL     1       6.294   7.610  17.266  0.00  0.00    +0.000 A 
ATOM     30  C   UNL     1       6.835   8.898  17.219  0.00  0.00    +0.000 A 
ATOM     31  C   UNL     1       8.025   9.185  17.883  0.00  0.00    +0.000 A 
ATOM     32  C   UNL     1       8.630   8.208  18.668  0.00  0.00    +0.000 A 
ATOM     33  C   UNL     1       8.093   6.921  18.713  0.00  0.00    +0.000 A 
ENDBRANCH  26  28
ENDBRANCH  18  26
ENDBRANCH   1  18
TORSDOF 9
ENDMDL
MODEL 9
REMARK VINA RESULT:      -6.9      6.632     11.731
REMARK  Name = 
REMARK  15 active torsions:
REMARK  status: ('A' for Active; 'I' for Inactive)
REMARK    1  A    between atoms: C_1  and  O_2
REMARK    2  A    between atoms: O_2  and  C_3
REMARK    3  A    between atoms: C_3  and  C_4
REMARK    4  A    between atoms: N_6  and  C_7
REMARK    5  A    between atoms: C_10  and  N_11
REMARK    6  A    between atoms: N_11  and  C_12
REMARK    7  A    between atoms: N_11  and  C_13
REMARK    8  A    between atoms: C_14  and  C_15
REMARK    9  A    between atoms: C_15  and  N_16
REMARK   10  A    between atoms: N_16  and  C_23
REMARK   11  A    between atoms: N_19  and  C_20
REMARK   12  A    between atoms: C_20  and  C_21
REMARK   13  A    between atoms: C_20  and  C_22
REMARK   14  A    between atoms: C_23  and  C_24
REMARK   15  A    between atoms: C_23  and  C_25
REMARK                            x       y       z     vdW  Elec       q    Type
REMARK                         _______ _______ _______ _____ _____    ______ ____
ROOT
ATOM      1  C   UNL     1      -0.957  11.271  19.380  0.00  0.00    +0.000 C 
ENDROOT
BRANCH   1   6
ATOM      2  C   UNL     1      -3.695  13.223  21.119  0.00  0.00    +0.000 A 
ATOM      3  C   UNL     1      -4.791  12.734  20.404  0.00  0.00    +0.000 A 
ATOM      4  C   UNL     1      -4.640  12.049  19.183  0.00  0.00    +0.000 A 
ATOM      5  C   UNL     1      -3.392  11.706  18.670  0.00  0.00    +0.000 A 
ATOM      6  C   UNL     1      -2.267  12.022  19.505  0.00  0.00    +0.000 A 
ATOM      7  C   UNL     1      -2.428  12.926  20.613  0.00  0.00    +0.000 A 
BRANCH   2  10
ATOM      8  C   UNL     1      -3.726  13.249  23.621  0.00  0.00    +0.000 C 
ATOM      9  O   UNL     1      -3.810  12.039  23.818  0.00  0.00    +0.000 OA
ATOM     10  N   UNL     1      -3.795  13.874  22.381  0.00  0.00    +0.000 N 
ATOM     11  H   UNL     1      -3.772  14.888  22.387  0.00  0.00    +0.000 HD
BRANCH   8  12
ATOM     12  C   UNL     1      -3.368  14.172  24.815  0.00  0.00    +0.000 C 
BRANCH  12  14
ATOM     13  C   UNL     1      -1.645  15.456  25.802  0.00  0.00    +0.000 C 
ATOM     14  O   UNL     1      -2.474  15.257  24.666  0.00  0.00    +0.000 OA
ENDBRANCH  12  14
ENDBRANCH   8  12
ENDBRANCH   2  10
BRANCH   5  15
ATOM     15  N   UNL     1      -3.236  11.025  17.435  0.00  0.00    +0.000 N 
ATOM     16  C   UNL     1      -3.235   9.554  17.521  0.00  0.00    +0.000 C 
ATOM     17  C   UNL     1      -4.150  11.373  16.319  0.00  0.00    +0.000 C 
ENDBRANCH   5  15
ENDBRANCH   1   6
BRANCH   1  18
ATOM     18  N   UNL     1       0.132  11.378  20.374  0.00  0.00    +0.000 N 
ATOM     19  C   UNL     1       1.053  12.426  20.432  0.00  0.00    +0.000 C 
ATOM     20  O   UNL     1       1.939  12.510  21.276  0.00  0.00    +0.000 OA
ATOM     21  N   UNL     1       0.884  13.380  19.469  0.00  0.00    +0.000 N 
ATOM     22  H   UNL     1       0.476  13.004  18.656  0.00  0.00    +0.000 HD
BRANCH  21  23
ATOM     23  C   UNL     1       1.693  14.559  19.187  0.00  0.00    +0.000 C 
ATOM     24  C   UNL     1       2.747  14.246  18.115  0.00  0.00    +0.000 C 
ATOM     25  C   UNL     1       0.802  15.754  18.797  0.00  0.00    +0.000 C 
ENDBRANCH  21  23
BRANCH  18  26
ATOM     26  C   UNL     1       0.540  10.094  21.056  0.00  0.00    +0.000 C 
ATOM     27  C   UNL     1      -0.610   9.301  21.708  0.00  0.00    +0.000 C 
BRANCH  26  28
ATOM     28  C   UNL     1       1.338   9.210  20.081  0.00  0.00    +0.000 A 
ATOM     29  C   UNL     1       1.485   9.606  18.743  0.00  0.00    +0.000 A 
ATOM     30  C   UNL     1       1.946   8.702  17.783  0.00  0.00    +0.000 A 
ATOM     31  C   UNL     1       2.302   7.406  18.151  0.00  0.00    +0.000 A 
ATOM     32  C   UNL     1       2.282   7.041  19.493  0.00  0.00    +0.000 A 
ATOM     33  C   UNL     1       1.820   7.942  20.453  0.00  0.00    +0.000 A 
ENDBRANCH  26  28
ENDBRANCH  18  26
ENDBRANCH   1  18
TORSDOF 9
ENDMDL
